MODEL 1
REMARK VINA RESULT:      -7.7      0.000      0.000
REMARK  Name = 
REMARK  4 active torsions:
REMARK  status: ('A' for Active; 'I' for Inactive)
REMARK    1  A    between atoms: N_7  and  C_8
REMARK    2  A    between atoms: C_8  and  C_9
REMARK    3  A    between atoms: C_9  and  C_10
REMARK    4  A    between atoms: C_20  and  C_21
REMARK                            x       y       z     vdW  Elec       q    Type
REMARK                         _______ _______ _______ _____ _____    ______ ____
ROOT
ATOM      1  O   UNL     1       1.713   7.644  20.856  0.00  0.00    +0.000 OA
ATOM      2  C   UNL     1       1.473   8.465  19.985  0.00  0.00    +0.000 C 
ATOM      3  C   UNL     1       0.825   9.756  20.381  0.00  0.00    +0.000 C 
ATOM      4  C   UNL     1       0.331  10.512  19.133  0.00  0.00    +0.000 C 
ATOM      5  C   UNL     1      -0.897   9.777  18.510  0.00  0.00    +0.000 C 
ATOM      6  C   UNL     1      -1.567  10.632  17.414  0.00  0.00    +0.000 C 
ATOM      7  N   UNL     1      -1.984  11.957  17.931  0.00  0.00    +0.000 NA
ATOM      8  C   UNL     1      -0.785  12.687  18.410  0.00  0.00    +0.000 C 
ATOM      9  C   UNL     1      -0.079  11.942  19.553  0.00  0.00    +0.000 C 
ATOM     10  O   UNL     1       1.357  10.550  18.195  0.00  0.00    +0.000 OA
ATOM     11  C   UNL     1       1.997   9.409  17.798  0.00  0.00    +0.000 C 
ATOM     12  C   UNL     1       2.044   8.316  18.608  0.00  0.00    +0.000 C 
ENDROOT
BRANCH  12  13
ATOM     13  C   UNL     1       2.661   7.022  18.160  0.00  0.00    +0.000 A 
ATOM     14  C   UNL     1       3.956   6.970  17.599  0.00  0.00    +0.000 A 
ATOM     15  C   UNL     1       4.502   5.756  17.176  0.00  0.00    +0.000 A 
ATOM     16  C   UNL     1       3.762   4.577  17.280  0.00  0.00    +0.000 A 
ATOM     17  C   UNL     1       2.478   4.609  17.818  0.00  0.00    +0.000 A 
ATOM     18  C   UNL     1       1.934   5.816  18.260  0.00  0.00    +0.000 A 
ENDBRANCH  12  13
BRANCH   7  19
ATOM     19  C   UNL     1      -3.094  11.828  18.919  0.00  0.00    +0.000 C 
BRANCH  19  20
ATOM     20  C   UNL     1      -4.494  11.726  18.297  0.00  0.00    +0.000 C 
BRANCH  20  21
ATOM     21  C   UNL     1      -5.591  11.650  19.322  0.00  0.00    +0.000 A 
ATOM     22  C   UNL     1      -6.603  10.679  19.212  0.00  0.00    +0.000 A 
ATOM     23  C   UNL     1      -7.606  10.597  20.182  0.00  0.00    +0.000 A 
ATOM     24  C   UNL     1      -7.611  11.481  21.266  0.00  0.00    +0.000 A 
ATOM     25  C   UNL     1      -6.607  12.447  21.381  0.00  0.00    +0.000 A 
ATOM     26  C   UNL     1      -5.600  12.531  20.415  0.00  0.00    +0.000 A 
ENDBRANCH  20  21
ENDBRANCH  19  20
ENDBRANCH   7  19
TORSDOF 4
ENDMDL
MODEL 2
REMARK VINA RESULT:      -7.7      0.120      1.345
REMARK  Name = 
REMARK  4 active torsions:
REMARK  status: ('A' for Active; 'I' for Inactive)
REMARK    1  A    between atoms: N_7  and  C_8
REMARK    2  A    between atoms: C_8  and  C_9
REMARK    3  A    between atoms: C_9  and  C_10
REMARK    4  A    between atoms: C_20  and  C_21
REMARK                            x       y       z     vdW  Elec       q    Type
REMARK                         _______ _______ _______ _____ _____    ______ ____
ROOT
ATOM      1  O   UNL     1       1.672   7.533  20.873  0.00  0.00    +0.000 OA
ATOM      2  C   UNL     1       1.453   8.363  20.005  0.00  0.00    +0.000 C 
ATOM      3  C   UNL     1       0.843   9.671  20.407  0.00  0.00    +0.000 C 
ATOM      4  C   UNL     1       0.367  10.444  19.162  0.00  0.00    +0.000 C 
ATOM      5  C   UNL     1      -0.883   9.745  18.540  0.00  0.00    +0.000 C 
ATOM      6  C   UNL     1      -1.532  10.622  17.449  0.00  0.00    +0.000 C 
ATOM      7  N   UNL     1      -1.910  11.956  17.971  0.00  0.00    +0.000 NA
ATOM      8  C   UNL     1      -0.690  12.651  18.449  0.00  0.00    +0.000 C 
ATOM      9  C   UNL     1      -0.003  11.883  19.588  0.00  0.00    +0.000 C 
ATOM     10  O   UNL     1       1.391  10.456  18.221  0.00  0.00    +0.000 OA
ATOM     11  C   UNL     1       1.998   9.299  17.820  0.00  0.00    +0.000 C 
ATOM     12  C   UNL     1       2.017   8.202  18.626  0.00  0.00    +0.000 C 
ENDROOT
BRANCH  12  13
ATOM     13  C   UNL     1       2.596   6.893  18.173  0.00  0.00    +0.000 A 
ATOM     14  C   UNL     1       1.836   5.703  18.173  0.00  0.00    +0.000 A 
ATOM     15  C   UNL     1       2.403   4.495  17.762  0.00  0.00    +0.000 A 
ATOM     16  C   UNL     1       3.741   4.442  17.368  0.00  0.00    +0.000 A 
ATOM     17  C   UNL     1       4.511   5.602  17.374  0.00  0.00    +0.000 A 
ATOM     18  C   UNL     1       3.946   6.816  17.766  0.00  0.00    +0.000 A 
ENDBRANCH  12  13
BRANCH   7  19
ATOM     19  C   UNL     1      -3.021  11.855  18.961  0.00  0.00    +0.000 C 
BRANCH  19  20
ATOM     20  C   UNL     1      -4.425  11.808  18.343  0.00  0.00    +0.000 C 
BRANCH  20  21
ATOM     21  C   UNL     1      -5.518  11.685  19.369  0.00  0.00    +0.000 A 
ATOM     22  C   UNL     1      -5.561  12.556  20.472  0.00  0.00    +0.000 A 
ATOM     23  C   UNL     1      -6.594  12.453  21.408  0.00  0.00    +0.000 A 
ATOM     24  C   UNL     1      -7.588  11.482  21.256  0.00  0.00    +0.000 A 
ATOM     25  C   UNL     1      -7.550  10.614  20.160  0.00  0.00    +0.000 A 
ATOM     26  C   UNL     1      -6.522  10.715  19.219  0.00  0.00    +0.000 A 
ENDBRANCH  20  21
ENDBRANCH  19  20
ENDBRANCH   7  19
TORSDOF 4
ENDMDL
MODEL 3
REMARK VINA RESULT:      -7.5      1.562      2.059
REMARK  Name = 
REMARK  4 active torsions:
REMARK  status: ('A' for Active; 'I' for Inactive)
REMARK    1  A    between atoms: N_7  and  C_8
REMARK    2  A    between atoms: C_8  and  C_9
REMARK    3  A    between atoms: C_9  and  C_10
REMARK    4  A    between atoms: C_20  and  C_21
REMARK                            x       y       z     vdW  Elec       q    Type
REMARK                         _______ _______ _______ _____ _____    ______ ____
ROOT
ATOM      1  O   UNL     1       1.775   7.633  20.929  0.00  0.00    +0.000 OA
ATOM      2  C   UNL     1       1.504   8.476  20.089  0.00  0.00    +0.000 C 
ATOM      3  C   UNL     1       0.863   9.752  20.541  0.00  0.00    +0.000 C 
ATOM      4  C   UNL     1       0.325  10.540  19.331  0.00  0.00    +0.000 C 
ATOM      5  C   UNL     1      -0.919   9.815  18.727  0.00  0.00    +0.000 C 
ATOM      6  C   UNL     1      -1.628  10.696  17.678  0.00  0.00    +0.000 C 
ATOM      7  N   UNL     1      -2.035  12.003  18.244  0.00  0.00    +0.000 NA
ATOM      8  C   UNL     1      -0.824  12.727  18.705  0.00  0.00    +0.000 C 
ATOM      9  C   UNL     1      -0.079  11.955  19.804  0.00  0.00    +0.000 C 
ATOM     10  O   UNL     1       1.320  10.610  18.362  0.00  0.00    +0.000 OA
ATOM     11  C   UNL     1       1.953   9.483  17.913  0.00  0.00    +0.000 C 
ATOM     12  C   UNL     1       2.031   8.369  18.690  0.00  0.00    +0.000 C 
ENDROOT
BRANCH  12  13
ATOM     13  C   UNL     1       2.640   7.091  18.187  0.00  0.00    +0.000 A 
ATOM     14  C   UNL     1       3.913   7.063  17.578  0.00  0.00    +0.000 A 
ATOM     15  C   UNL     1       4.450   5.865  17.103  0.00  0.00    +0.000 A 
ATOM     16  C   UNL     1       3.724   4.678  17.205  0.00  0.00    +0.000 A 
ATOM     17  C   UNL     1       2.460   4.686  17.790  0.00  0.00    +0.000 A 
ATOM     18  C   UNL     1       1.925   5.877  18.283  0.00  0.00    +0.000 A 
ENDBRANCH  12  13
BRANCH   7  19
ATOM     19  C   UNL     1      -3.112  11.841  19.264  0.00  0.00    +0.000 C 
BRANCH  19  20
ATOM     20  C   UNL     1      -3.479  13.128  20.015  0.00  0.00    +0.000 C 
BRANCH  20  21
ATOM     21  C   UNL     1      -3.690  12.912  21.488  0.00  0.00    +0.000 A 
ATOM     22  C   UNL     1      -4.923  13.228  22.086  0.00  0.00    +0.000 A 
ATOM     23  C   UNL     1      -5.121  13.001  23.450  0.00  0.00    +0.000 A 
ATOM     24  C   UNL     1      -4.093  12.461  24.231  0.00  0.00    +0.000 A 
ATOM     25  C   UNL     1      -2.866  12.144  23.641  0.00  0.00    +0.000 A 
ATOM     26  C   UNL     1      -2.664  12.366  22.276  0.00  0.00    +0.000 A 
ENDBRANCH  20  21
ENDBRANCH  19  20
ENDBRANCH   7  19
TORSDOF 4
ENDMDL
MODEL 4
REMARK VINA RESULT:      -7.4      0.999      1.310
REMARK  Name = 
REMARK  4 active torsions:
REMARK  status: ('A' for Active; 'I' for Inactive)
REMARK    1  A    between atoms: N_7  and  C_8
REMARK    2  A    between atoms: C_8  and  C_9
REMARK    3  A    between atoms: C_9  and  C_10
REMARK    4  A    between atoms: C_20  and  C_21
REMARK                            x       y       z     vdW  Elec       q    Type
REMARK                         _______ _______ _______ _____ _____    ______ ____
ROOT
ATOM      1  O   UNL     1       1.638   7.546  20.815  0.00  0.00    +0.000 OA
ATOM      2  C   UNL     1       1.437   8.383  19.949  0.00  0.00    +0.000 C 
ATOM      3  C   UNL     1       0.779   9.671  20.340  0.00  0.00    +0.000 C 
ATOM      4  C   UNL     1       0.339  10.449  19.086  0.00  0.00    +0.000 C 
ATOM      5  C   UNL     1      -0.866   9.731  18.402  0.00  0.00    +0.000 C 
ATOM      6  C   UNL     1      -1.488  10.607  17.294  0.00  0.00    +0.000 C 
ATOM      7  N   UNL     1      -1.920  11.925  17.817  0.00  0.00    +0.000 NA
ATOM      8  C   UNL     1      -0.738  12.642  18.356  0.00  0.00    +0.000 C 
ATOM      9  C   UNL     1      -0.082  11.874  19.513  0.00  0.00    +0.000 C 
ATOM     10  O   UNL     1       1.402  10.498  18.190  0.00  0.00    +0.000 OA
ATOM     11  C   UNL     1       2.053   9.361  17.800  0.00  0.00    +0.000 C 
ATOM     12  C   UNL     1       2.063   8.254  18.593  0.00  0.00    +0.000 C 
ENDROOT
BRANCH  12  13
ATOM     13  C   UNL     1       2.692   6.965  18.149  0.00  0.00    +0.000 A 
ATOM     14  C   UNL     1       4.018   6.912  17.667  0.00  0.00    +0.000 A 
ATOM     15  C   UNL     1       4.576   5.703  17.245  0.00  0.00    +0.000 A 
ATOM     16  C   UNL     1       3.818   4.531  17.272  0.00  0.00    +0.000 A 
ATOM     17  C   UNL     1       2.504   4.564  17.730  0.00  0.00    +0.000 A 
ATOM     18  C   UNL     1       1.947   5.765  18.170  0.00  0.00    +0.000 A 
ENDBRANCH  12  13
BRANCH   7  19
ATOM     19  C   UNL     1      -3.069  11.785  18.757  0.00  0.00    +0.000 C 
BRANCH  19  20
ATOM     20  C   UNL     1      -4.343  11.205  18.126  0.00  0.00    +0.000 C 
BRANCH  20  21
ATOM     21  C   UNL     1      -5.578  11.998  18.453  0.00  0.00    +0.000 A 
ATOM     22  C   UNL     1      -5.910  12.280  19.790  0.00  0.00    +0.000 A 
ATOM     23  C   UNL     1      -7.045  13.040  20.087  0.00  0.00    +0.000 A 
ATOM     24  C   UNL     1      -7.859  13.522  19.057  0.00  0.00    +0.000 A 
ATOM     25  C   UNL     1      -7.532  13.246  17.726  0.00  0.00    +0.000 A 
ATOM     26  C   UNL     1      -6.396  12.489  17.424  0.00  0.00    +0.000 A 
ENDBRANCH  20  21
ENDBRANCH  19  20
ENDBRANCH   7  19
TORSDOF 4
ENDMDL
MODEL 5
REMARK VINA RESULT:      -7.4      0.942      1.411
REMARK  Name = 
REMARK  4 active torsions:
REMARK  status: ('A' for Active; 'I' for Inactive)
REMARK    1  A    between atoms: N_7  and  C_8
REMARK    2  A    between atoms: C_8  and  C_9
REMARK    3  A    between atoms: C_9  and  C_10
REMARK    4  A    between atoms: C_20  and  C_21
REMARK                            x       y       z     vdW  Elec       q    Type
REMARK                         _______ _______ _______ _____ _____    ______ ____
ROOT
ATOM      1  O   UNL     1       1.668   7.562  20.799  0.00  0.00    +0.000 OA
ATOM      2  C   UNL     1       1.456   8.408  19.945  0.00  0.00    +0.000 C 
ATOM      3  C   UNL     1       0.798   9.689  20.357  0.00  0.00    +0.000 C 
ATOM      4  C   UNL     1       0.343  10.480  19.116  0.00  0.00    +0.000 C 
ATOM      5  C   UNL     1      -0.867   9.765  18.436  0.00  0.00    +0.000 C 
ATOM      6  C   UNL     1      -1.503  10.652  17.345  0.00  0.00    +0.000 C 
ATOM      7  N   UNL     1      -1.934  11.963  17.886  0.00  0.00    +0.000 NA
ATOM      8  C   UNL     1      -0.749  12.677  18.421  0.00  0.00    +0.000 C 
ATOM      9  C   UNL     1      -0.079  11.899  19.564  0.00  0.00    +0.000 C 
ATOM     10  O   UNL     1       1.396  10.543  18.211  0.00  0.00    +0.000 OA
ATOM     11  C   UNL     1       2.047   9.411  17.801  0.00  0.00    +0.000 C 
ATOM     12  C   UNL     1       2.068   8.297  18.581  0.00  0.00    +0.000 C 
ENDROOT
BRANCH  12  13
ATOM     13  C   UNL     1       2.697   7.014  18.117  0.00  0.00    +0.000 A 
ATOM     14  C   UNL     1       2.029   5.775  18.228  0.00  0.00    +0.000 A 
ATOM     15  C   UNL     1       2.642   4.594  17.804  0.00  0.00    +0.000 A 
ATOM     16  C   UNL     1       3.937   4.620  17.283  0.00  0.00    +0.000 A 
ATOM     17  C   UNL     1       4.618   5.830  17.178  0.00  0.00    +0.000 A 
ATOM     18  C   UNL     1       4.005   7.016  17.583  0.00  0.00    +0.000 A 
ENDBRANCH  12  13
BRANCH   7  19
ATOM     19  C   UNL     1      -3.073  11.808  18.837  0.00  0.00    +0.000 C 
BRANCH  19  20
ATOM     20  C   UNL     1      -4.380  11.324  18.193  0.00  0.00    +0.000 C 
BRANCH  20  21
ATOM     21  C   UNL     1      -5.576  12.141  18.598  0.00  0.00    +0.000 A 
ATOM     22  C   UNL     1      -6.578  12.451  17.661  0.00  0.00    +0.000 A 
ATOM     23  C   UNL     1      -7.699  13.189  18.050  0.00  0.00    +0.000 A 
ATOM     24  C   UNL     1      -7.830  13.627  19.372  0.00  0.00    +0.000 A 
ATOM     25  C   UNL     1      -6.836  13.321  20.307  0.00  0.00    +0.000 A 
ATOM     26  C   UNL     1      -5.715  12.580  19.924  0.00  0.00    +0.000 A 
ENDBRANCH  20  21
ENDBRANCH  19  20
ENDBRANCH   7  19
TORSDOF 4
ENDMDL
MODEL 6
REMARK VINA RESULT:      -7.3      1.776      2.394
REMARK  Name = 
REMARK  4 active torsions:
REMARK  status: ('A' for Active; 'I' for Inactive)
REMARK    1  A    between atoms: N_7  and  C_8
REMARK    2  A    between atoms: C_8  and  C_9
REMARK    3  A    between atoms: C_9  and  C_10
REMARK    4  A    between atoms: C_20  and  C_21
REMARK                            x       y       z     vdW  Elec       q    Type
REMARK                         _______ _______ _______ _____ _____    ______ ____
ROOT
ATOM      1  O   UNL     1       1.848   6.982  20.878  0.00  0.00    +0.000 OA
ATOM      2  C   UNL     1       1.672   7.871  20.061  0.00  0.00    +0.000 C 
ATOM      3  C   UNL     1       1.194   9.204  20.550  0.00  0.00    +0.000 C 
ATOM      4  C   UNL     1       0.744  10.080  19.365  0.00  0.00    +0.000 C 
ATOM      5  C   UNL     1      -0.585   9.525  18.761  0.00  0.00    +0.000 C 
ATOM      6  C   UNL     1      -1.192  10.510  17.741  0.00  0.00    +0.000 C 
ATOM      7  N   UNL     1      -1.433  11.843  18.342  0.00  0.00    +0.000 NA
ATOM      8  C   UNL     1      -0.139  12.404  18.804  0.00  0.00    +0.000 C 
ATOM      9  C   UNL     1       0.518  11.522  19.875  0.00  0.00    +0.000 C 
ATOM     10  O   UNL     1       1.730  10.053  18.385  0.00  0.00    +0.000 OA
ATOM     11  C   UNL     1       2.218   8.869  17.903  0.00  0.00    +0.000 C 
ATOM     12  C   UNL     1       2.169   7.735  18.654  0.00  0.00    +0.000 C 
ENDROOT
BRANCH  12  13
ATOM     13  C   UNL     1       2.614   6.406  18.114  0.00  0.00    +0.000 A 
ATOM     14  C   UNL     1       1.756   5.285  18.099  0.00  0.00    +0.000 A 
ATOM     15  C   UNL     1       2.199   4.055  17.607  0.00  0.00    +0.000 A 
ATOM     16  C   UNL     1       3.508   3.911  17.144  0.00  0.00    +0.000 A 
ATOM     17  C   UNL     1       4.374   5.002  17.164  0.00  0.00    +0.000 A 
ATOM     18  C   UNL     1       3.932   6.238  17.637  0.00  0.00    +0.000 A 
ENDBRANCH  12  13
BRANCH   7  19
ATOM     19  C   UNL     1      -2.512  11.786  19.371  0.00  0.00    +0.000 C 
BRANCH  19  20
ATOM     20  C   UNL     1      -2.724  13.095  20.145  0.00  0.00    +0.000 C 
BRANCH  20  21
ATOM     21  C   UNL     1      -3.271  12.880  21.529  0.00  0.00    +0.000 A 
ATOM     22  C   UNL     1      -2.482  12.270  22.520  0.00  0.00    +0.000 A 
ATOM     23  C   UNL     1      -2.987  12.095  23.812  0.00  0.00    +0.000 A 
ATOM     24  C   UNL     1      -4.281  12.524  24.126  0.00  0.00    +0.000 A 
ATOM     25  C   UNL     1      -5.069  13.133  23.144  0.00  0.00    +0.000 A 
ATOM     26  C   UNL     1      -4.567  13.312  21.852  0.00  0.00    +0.000 A 
ENDBRANCH  20  21
ENDBRANCH  19  20
ENDBRANCH   7  19
TORSDOF 4
ENDMDL
MODEL 7
REMARK VINA RESULT:      -7.3      0.739      1.432
REMARK  Name = 
REMARK  4 active torsions:
REMARK  status: ('A' for Active; 'I' for Inactive)
REMARK    1  A    between atoms: N_7  and  C_8
REMARK    2  A    between atoms: C_8  and  C_9
REMARK    3  A    between atoms: C_9  and  C_10
REMARK    4  A    between atoms: C_20  and  C_21
REMARK                            x       y       z     vdW  Elec       q    Type
REMARK                         _______ _______ _______ _____ _____    ______ ____
ROOT
ATOM      1  O   UNL     1       1.693   7.585  20.823  0.00  0.00    +0.000 OA
ATOM      2  C   UNL     1       1.445   8.444  19.993  0.00  0.00    +0.000 C 
ATOM      3  C   UNL     1       0.763   9.698  20.446  0.00  0.00    +0.000 C 
ATOM      4  C   UNL     1       0.266  10.506  19.232  0.00  0.00    +0.000 C 
ATOM      5  C   UNL     1      -0.938   9.777  18.557  0.00  0.00    +0.000 C 
ATOM      6  C   UNL     1      -1.615  10.672  17.498  0.00  0.00    +0.000 C 
ATOM      7  N   UNL     1      -2.069  11.958  18.077  0.00  0.00    +0.000 NA
ATOM      8  C   UNL     1      -0.892  12.690  18.608  0.00  0.00    +0.000 C 
ATOM      9  C   UNL     1      -0.183  11.903  19.720  0.00  0.00    +0.000 C 
ATOM     10  O   UNL     1       1.301  10.616  18.310  0.00  0.00    +0.000 OA
ATOM     11  C   UNL     1       1.972   9.511  17.863  0.00  0.00    +0.000 C 
ATOM     12  C   UNL     1       2.035   8.379  18.617  0.00  0.00    +0.000 C 
ENDROOT
BRANCH  12  13
ATOM     13  C   UNL     1       2.687   7.124  18.111  0.00  0.00    +0.000 A 
ATOM     14  C   UNL     1       2.069   5.862  18.239  0.00  0.00    +0.000 A 
ATOM     15  C   UNL     1       2.703   4.707  17.776  0.00  0.00    +0.000 A 
ATOM     16  C   UNL     1       3.971   4.783  17.199  0.00  0.00    +0.000 A 
ATOM     17  C   UNL     1       4.604   6.017  17.076  0.00  0.00    +0.000 A 
ATOM     18  C   UNL     1       3.969   7.177  17.520  0.00  0.00    +0.000 A 
ENDBRANCH  12  13
BRANCH   7  19
ATOM     19  C   UNL     1      -3.187  11.754  19.043  0.00  0.00    +0.000 C 
BRANCH  19  20
ATOM     20  C   UNL     1      -3.322  12.855  20.105  0.00  0.00    +0.000 C 
BRANCH  20  21
ATOM     21  C   UNL     1      -4.598  12.758  20.895  0.00  0.00    +0.000 A 
ATOM     22  C   UNL     1      -5.764  12.239  20.305  0.00  0.00    +0.000 A 
ATOM     23  C   UNL     1      -6.940  12.128  21.053  0.00  0.00    +0.000 A 
ATOM     24  C   UNL     1      -6.965  12.535  22.391  0.00  0.00    +0.000 A 
ATOM     25  C   UNL     1      -5.807  13.051  22.982  0.00  0.00    +0.000 A 
ATOM     26  C   UNL     1      -4.628  13.161  22.240  0.00  0.00    +0.000 A 
ENDBRANCH  20  21
ENDBRANCH  19  20
ENDBRANCH   7  19
TORSDOF 4
ENDMDL
MODEL 8
REMARK VINA RESULT:      -7.2      3.171      9.760
REMARK  Name = 
REMARK  4 active torsions:
REMARK  status: ('A' for Active; 'I' for Inactive)
REMARK    1  A    between atoms: N_7  and  C_8
REMARK    2  A    between atoms: C_8  and  C_9
REMARK    3  A    between atoms: C_9  and  C_10
REMARK    4  A    between atoms: C_20  and  C_21
REMARK                            x       y       z     vdW  Elec       q    Type
REMARK                         _______ _______ _______ _____ _____    ______ ____
ROOT
ATOM      1  O   UNL     1       2.206  10.021  17.290  0.00  0.00    +0.000 OA
ATOM      2  C   UNL     1       2.162   9.068  18.052  0.00  0.00    +0.000 C 
ATOM      3  C   UNL     1       3.262   8.053  17.988  0.00  0.00    +0.000 C 
ATOM      4  C   UNL     1       2.877   6.795  18.790  0.00  0.00    +0.000 C 
ATOM      5  C   UNL     1       1.746   6.012  18.052  0.00  0.00    +0.000 C 
ATOM      6  C   UNL     1       1.510   4.628  18.694  0.00  0.00    +0.000 C 
ATOM      7  N   UNL     1       2.750   3.817  18.718  0.00  0.00    +0.000 NA
ATOM      8  C   UNL     1       3.775   4.525  19.524  0.00  0.00    +0.000 C 
ATOM      9  C   UNL     1       4.127   5.896  18.926  0.00  0.00    +0.000 C 
ATOM     10  O   UNL     1       2.412   7.184  20.041  0.00  0.00    +0.000 OA
ATOM     11  C   UNL     1       1.418   8.115  20.170  0.00  0.00    +0.000 C 
ATOM     12  C   UNL     1       1.197   9.041  19.198  0.00  0.00    +0.000 C 
ENDROOT
BRANCH  12  13
ATOM     13  C   UNL     1       0.056  10.015  19.273  0.00  0.00    +0.000 A 
ATOM     14  C   UNL     1      -0.925  10.091  18.260  0.00  0.00    +0.000 A 
ATOM     15  C   UNL     1      -1.968  11.016  18.345  0.00  0.00    +0.000 A 
ATOM     16  C   UNL     1      -2.041  11.898  19.424  0.00  0.00    +0.000 A 
ATOM     17  C   UNL     1      -1.076  11.849  20.426  0.00  0.00    +0.000 A 
ATOM     18  C   UNL     1      -0.042  10.915  20.357  0.00  0.00    +0.000 A 
ENDBRANCH  12  13
BRANCH   7  19
ATOM     19  C   UNL     1       3.172   3.431  17.340  0.00  0.00    +0.000 C 
BRANCH  19  20
ATOM     20  C   UNL     1       4.604   2.885  17.240  0.00  0.00    +0.000 C 
BRANCH  20  21
ATOM     21  C   UNL     1       5.461   3.652  16.271  0.00  0.00    +0.000 A 
ATOM     22  C   UNL     1       6.541   4.425  16.732  0.00  0.00    +0.000 A 
ATOM     23  C   UNL     1       7.350   5.114  15.824  0.00  0.00    +0.000 A 
ATOM     24  C   UNL     1       7.088   5.042  14.452  0.00  0.00    +0.000 A 
ATOM     25  C   UNL     1       6.015   4.273  13.988  0.00  0.00    +0.000 A 
ATOM     26  C   UNL     1       5.206   3.579  14.892  0.00  0.00    +0.000 A 
ENDBRANCH  20  21
ENDBRANCH  19  20
ENDBRANCH   7  19
TORSDOF 4
ENDMDL
MODEL 9
REMARK VINA RESULT:      -7.2      3.140      9.673
REMARK  Name = 
REMARK  4 active torsions:
REMARK  status: ('A' for Active; 'I' for Inactive)
REMARK    1  A    between atoms: N_7  and  C_8
REMARK    2  A    between atoms: C_8  and  C_9
REMARK    3  A    between atoms: C_9  and  C_10
REMARK    4  A    between atoms: C_20  and  C_21
REMARK                            x       y       z     vdW  Elec       q    Type
REMARK                         _______ _______ _______ _____ _____    ______ ____
ROOT
ATOM      1  O   UNL     1       2.194  10.006  17.251  0.00  0.00    +0.000 OA
ATOM      2  C   UNL     1       2.149   9.065  18.027  0.00  0.00    +0.000 C 
ATOM      3  C   UNL     1       3.247   8.046  17.976  0.00  0.00    +0.000 C 
ATOM      4  C   UNL     1       2.860   6.801  18.796  0.00  0.00    +0.000 C 
ATOM      5  C   UNL     1       1.726   6.010  18.071  0.00  0.00    +0.000 C 
ATOM      6  C   UNL     1       1.489   4.636  18.733  0.00  0.00    +0.000 C 
ATOM      7  N   UNL     1       2.727   3.822  18.766  0.00  0.00    +0.000 NA
ATOM      8  C   UNL     1       3.755   4.539  19.560  0.00  0.00    +0.000 C 
ATOM      9  C   UNL     1       4.108   5.900  18.943  0.00  0.00    +0.000 C 
ATOM     10  O   UNL     1       2.399   7.209  20.043  0.00  0.00    +0.000 OA
ATOM     11  C   UNL     1       1.407   8.144  20.160  0.00  0.00    +0.000 C 
ATOM     12  C   UNL     1       1.187   9.056  19.175  0.00  0.00    +0.000 C 
ENDROOT
BRANCH  12  13
ATOM     13  C   UNL     1       0.048  10.034  19.239  0.00  0.00    +0.000 A 
ATOM     14  C   UNL     1      -0.102  10.932  20.317  0.00  0.00    +0.000 A 
ATOM     15  C   UNL     1      -1.179  11.820  20.361  0.00  0.00    +0.000 A 
ATOM     16  C   UNL     1      -2.138  11.815  19.347  0.00  0.00    +0.000 A 
ATOM     17  C   UNL     1      -2.016  10.927  18.282  0.00  0.00    +0.000 A 
ATOM     18  C   UNL     1      -0.933  10.050  18.223  0.00  0.00    +0.000 A 
ENDBRANCH  12  13
BRANCH   7  19
ATOM     19  C   UNL     1       3.145   3.416  17.392  0.00  0.00    +0.000 C 
BRANCH  19  20
ATOM     20  C   UNL     1       4.576   2.869  17.297  0.00  0.00    +0.000 C 
BRANCH  20  21
ATOM     21  C   UNL     1       5.442   3.646  16.345  0.00  0.00    +0.000 A 
ATOM     22  C   UNL     1       5.193   3.608  14.961  0.00  0.00    +0.000 A 
ATOM     23  C   UNL     1       5.986   4.353  14.084  0.00  0.00    +0.000 A 
ATOM     24  C   UNL     1       7.034   5.138  14.576  0.00  0.00    +0.000 A 
ATOM     25  C   UNL     1       7.285   5.181  15.951  0.00  0.00    +0.000 A 
ATOM     26  C   UNL     1       6.493   4.440  16.833  0.00  0.00    +0.000 A 
ENDBRANCH  20  21
ENDBRANCH  19  20
ENDBRANCH   7  19
TORSDOF 4
ENDMDL
