MODEL 1
REMARK VINA RESULT:      -8.6      0.000      0.000
REMARK  Name = 
REMARK  4 active torsions:
REMARK  status: ('A' for Active; 'I' for Inactive)
REMARK    1  A    between atoms: C_1  and  S_2
REMARK    2  A    between atoms: S_2  and  N_5
REMARK    3  A    between atoms: N_5  and  C_6
REMARK    4  A    between atoms: C_9  and  C_10
REMARK                            x       y       z     vdW  Elec       q    Type
REMARK                         _______ _______ _______ _____ _____    ______ ____
ROOT
ATOM      1  C   UNL     1       4.660   5.613  17.626  0.00  0.00    +0.000 A 
ATOM      2  C   UNL     1       4.555   6.878  17.062  0.00  0.00    +0.000 A 
ATOM      3  C   UNL     1       3.585   7.758  17.537  0.00  0.00    +0.000 A 
ATOM      4  C   UNL     1       2.688   7.393  18.566  0.00  0.00    +0.000 A 
ATOM      5  C   UNL     1       2.817   6.073  19.135  0.00  0.00    +0.000 A 
ATOM      6  C   UNL     1       1.992   5.525  20.149  0.00  0.00    +0.000 A 
ATOM      7  C   UNL     1       2.249   4.281  20.720  0.00  0.00    +0.000 A 
ATOM      8  C   UNL     1       3.296   3.551  20.216  0.00  0.00    +0.000 A 
ATOM      9  N   UNL     1       4.063   3.973  19.194  0.00  0.00    +0.000 NA
ATOM     10  C   UNL     1       3.835   5.201  18.672  0.00  0.00    +0.000 A 
ENDROOT
BRANCH   4  11
ATOM     11  C   UNL     1       1.665   8.395  19.000  0.00  0.00    +0.000 A 
ATOM     12  C   UNL     1       1.045   9.253  18.065  0.00  0.00    +0.000 A 
ATOM     13  C   UNL     1       0.054  10.170  18.444  0.00  0.00    +0.000 A 
ATOM     14  C   UNL     1      -0.361  10.219  19.765  0.00  0.00    +0.000 A 
ATOM     15  F   UNL     1      -1.347  11.054  20.120  0.00  0.00    +0.000 F 
ATOM     16  C   UNL     1       0.245   9.408  20.710  0.00  0.00    +0.000 A 
ATOM     17  F   UNL     1      -0.163   9.435  21.986  0.00  0.00    +0.000 F 
ATOM     18  C   UNL     1       1.276   8.542  20.345  0.00  0.00    +0.000 A 
ENDBRANCH   4  11
BRANCH   1  19
ATOM     19  N   UNL     1       5.684   4.712  17.150  0.00  0.00    +0.000 N 
ATOM     20  H   UNL     1       5.601   3.796  17.605  0.00  0.00    +0.000 HD
BRANCH  19  22
ATOM     21  C   UNL     1       7.413   5.847  18.928  0.00  0.00    +0.000 C 
ATOM     22  S   UNL     1       7.283   5.249  17.252  0.00  0.00    +0.000 S 
ATOM     23  O   UNL     1       7.466   6.366  16.353  0.00  0.00    +0.000 OA
ATOM     24  O   UNL     1       8.110   4.060  17.152  0.00  0.00    +0.000 OA
ENDBRANCH  19  22
ENDBRANCH   1  19
TORSDOF 3
ENDMDL
MODEL 2
REMARK VINA RESULT:      -8.4      0.559      1.362
REMARK  Name = 
REMARK  4 active torsions:
REMARK  status: ('A' for Active; 'I' for Inactive)
REMARK    1  A    between atoms: C_1  and  S_2
REMARK    2  A    between atoms: S_2  and  N_5
REMARK    3  A    between atoms: N_5  and  C_6
REMARK    4  A    between atoms: C_9  and  C_10
REMARK                            x       y       z     vdW  Elec       q    Type
REMARK                         _______ _______ _______ _____ _____    ______ ____
ROOT
ATOM      1  C   UNL     1       4.610   5.709  17.625  0.00  0.00    +0.000 A 
ATOM      2  C   UNL     1       4.461   7.001  17.137  0.00  0.00    +0.000 A 
ATOM      3  C   UNL     1       3.499   7.835  17.700  0.00  0.00    +0.000 A 
ATOM      4  C   UNL     1       2.653   7.399  18.744  0.00  0.00    +0.000 A 
ATOM      5  C   UNL     1       2.827   6.052  19.233  0.00  0.00    +0.000 A 
ATOM      6  C   UNL     1       2.054   5.434  20.248  0.00  0.00    +0.000 A 
ATOM      7  C   UNL     1       2.355   4.166  20.738  0.00  0.00    +0.000 A 
ATOM      8  C   UNL     1       3.392   3.483  20.152  0.00  0.00    +0.000 A 
ATOM      9  N   UNL     1       4.107   3.975  19.123  0.00  0.00    +0.000 NA
ATOM     10  C   UNL     1       3.838   5.225  18.680  0.00  0.00    +0.000 A 
ENDROOT
BRANCH   4  11
ATOM     11  C   UNL     1       1.633   8.356  19.276  0.00  0.00    +0.000 A 
ATOM     12  C   UNL     1       1.286   8.364  20.646  0.00  0.00    +0.000 A 
ATOM     13  C   UNL     1       0.365   9.280  21.172  0.00  0.00    +0.000 A 
ATOM     14  C   UNL     1      -0.202  10.233  20.340  0.00  0.00    +0.000 A 
ATOM     15  F   UNL     1      -1.040  11.145  20.850  0.00  0.00    +0.000 F 
ATOM     16  C   UNL     1       0.099  10.235  18.988  0.00  0.00    +0.000 A 
ATOM     17  F   UNL     1      -0.430  11.164  18.179  0.00  0.00    +0.000 F 
ATOM     18  C   UNL     1       0.966   9.282  18.452  0.00  0.00    +0.000 A 
ENDBRANCH   4  11
BRANCH   1  19
ATOM     19  N   UNL     1       5.627   4.854  17.057  0.00  0.00    +0.000 N 
ATOM     20  H   UNL     1       5.522   3.891  17.396  0.00  0.00    +0.000 HD
BRANCH  19  22
ATOM     21  C   UNL     1       7.328   5.794  18.971  0.00  0.00    +0.000 C 
ATOM     22  S   UNL     1       7.232   5.346  17.247  0.00  0.00    +0.000 S 
ATOM     23  O   UNL     1       7.461   6.532  16.452  0.00  0.00    +0.000 OA
ATOM     24  O   UNL     1       8.039   4.153  17.065  0.00  0.00    +0.000 OA
ENDBRANCH  19  22
ENDBRANCH   1  19
TORSDOF 3
ENDMDL
MODEL 3
REMARK VINA RESULT:      -8.2      5.708      7.620
REMARK  Name = 
REMARK  4 active torsions:
REMARK  status: ('A' for Active; 'I' for Inactive)
REMARK    1  A    between atoms: C_1  and  S_2
REMARK    2  A    between atoms: S_2  and  N_5
REMARK    3  A    between atoms: N_5  and  C_6
REMARK    4  A    between atoms: C_9  and  C_10
REMARK                            x       y       z     vdW  Elec       q    Type
REMARK                         _______ _______ _______ _____ _____    ______ ____
ROOT
ATOM      1  C   UNL     1       3.972   4.477  18.672  0.00  0.00    +0.000 A 
ATOM      2  C   UNL     1       3.281   4.067  17.538  0.00  0.00    +0.000 A 
ATOM      3  C   UNL     1       3.947   4.018  16.316  0.00  0.00    +0.000 A 
ATOM      4  C   UNL     1       5.303   4.392  16.190  0.00  0.00    +0.000 A 
ATOM      5  C   UNL     1       5.998   4.814  17.382  0.00  0.00    +0.000 A 
ATOM      6  C   UNL     1       7.345   5.252  17.443  0.00  0.00    +0.000 A 
ATOM      7  C   UNL     1       7.975   5.541  18.651  0.00  0.00    +0.000 A 
ATOM      8  C   UNL     1       7.224   5.464  19.798  0.00  0.00    +0.000 A 
ATOM      9  N   UNL     1       5.917   5.144  19.801  0.00  0.00    +0.000 NA
ATOM     10  C   UNL     1       5.322   4.821  18.629  0.00  0.00    +0.000 A 
ENDROOT
BRANCH   4  11
ATOM     11  C   UNL     1       5.932   4.326  14.834  0.00  0.00    +0.000 A 
ATOM     12  C   UNL     1       5.357   3.551  13.802  0.00  0.00    +0.000 A 
ATOM     13  C   UNL     1       5.906   3.509  12.513  0.00  0.00    +0.000 A 
ATOM     14  C   UNL     1       7.026   4.273  12.222  0.00  0.00    +0.000 A 
ATOM     15  F   UNL     1       7.520   4.279  10.977  0.00  0.00    +0.000 F 
ATOM     16  C   UNL     1       7.628   5.023  13.219  0.00  0.00    +0.000 A 
ATOM     17  F   UNL     1       8.699   5.779  12.943  0.00  0.00    +0.000 F 
ATOM     18  C   UNL     1       7.119   5.014  14.519  0.00  0.00    +0.000 A 
ENDBRANCH   4  11
BRANCH   1  19
ATOM     19  N   UNL     1       3.287   4.502  19.944  0.00  0.00    +0.000 N 
ATOM     20  H   UNL     1       3.827   5.032  20.636  0.00  0.00    +0.000 HD
BRANCH  19  22
ATOM     21  C   UNL     1       1.226   2.717  19.895  0.00  0.00    +0.000 C 
ATOM     22  S   UNL     1       2.838   3.012  20.600  0.00  0.00    +0.000 S 
ATOM     23  O   UNL     1       2.692   3.149  22.033  0.00  0.00    +0.000 OA
ATOM     24  O   UNL     1       3.746   2.034  20.028  0.00  0.00    +0.000 OA
ENDBRANCH  19  22
ENDBRANCH   1  19
TORSDOF 3
ENDMDL
MODEL 4
REMARK VINA RESULT:      -8.2      5.876      7.616
REMARK  Name = 
REMARK  4 active torsions:
REMARK  status: ('A' for Active; 'I' for Inactive)
REMARK    1  A    between atoms: C_1  and  S_2
REMARK    2  A    between atoms: S_2  and  N_5
REMARK    3  A    between atoms: N_5  and  C_6
REMARK    4  A    between atoms: C_9  and  C_10
REMARK                            x       y       z     vdW  Elec       q    Type
REMARK                         _______ _______ _______ _____ _____    ______ ____
ROOT
ATOM      1  C   UNL     1       3.981   4.335  18.648  0.00  0.00    +0.000 A 
ATOM      2  C   UNL     1       3.314   3.881  17.518  0.00  0.00    +0.000 A 
ATOM      3  C   UNL     1       3.978   3.867  16.295  0.00  0.00    +0.000 A 
ATOM      4  C   UNL     1       5.310   4.321  16.164  0.00  0.00    +0.000 A 
ATOM      5  C   UNL     1       5.981   4.789  17.353  0.00  0.00    +0.000 A 
ATOM      6  C   UNL     1       7.299   5.307  17.408  0.00  0.00    +0.000 A 
ATOM      7  C   UNL     1       7.913   5.639  18.614  0.00  0.00    +0.000 A 
ATOM      8  C   UNL     1       7.172   5.521  19.763  0.00  0.00    +0.000 A 
ATOM      9  N   UNL     1       5.886   5.122  19.770  0.00  0.00    +0.000 NA
ATOM     10  C   UNL     1       5.309   4.761  18.601  0.00  0.00    +0.000 A 
ENDROOT
BRANCH   4  11
ATOM     11  C   UNL     1       5.938   4.288  14.807  0.00  0.00    +0.000 A 
ATOM     12  C   UNL     1       5.370   3.528  13.760  0.00  0.00    +0.000 A 
ATOM     13  C   UNL     1       5.919   3.516  12.470  0.00  0.00    +0.000 A 
ATOM     14  C   UNL     1       7.031   4.297  12.194  0.00  0.00    +0.000 A 
ATOM     15  F   UNL     1       7.524   4.332  10.949  0.00  0.00    +0.000 F 
ATOM     16  C   UNL     1       7.625   5.033  13.205  0.00  0.00    +0.000 A 
ATOM     17  F   UNL     1       8.689   5.806  12.943  0.00  0.00    +0.000 F 
ATOM     18  C   UNL     1       7.118   4.995  14.504  0.00  0.00    +0.000 A 
ENDBRANCH   4  11
BRANCH   1  19
ATOM     19  N   UNL     1       3.300   4.325  19.922  0.00  0.00    +0.000 N 
ATOM     20  H   UNL     1       3.817   4.875  20.616  0.00  0.00    +0.000 HD
BRANCH  19  22
ATOM     21  C   UNL     1       4.440   1.894  20.401  0.00  0.00    +0.000 C 
ATOM     22  S   UNL     1       2.920   2.813  20.574  0.00  0.00    +0.000 S 
ATOM     23  O   UNL     1       1.911   2.182  19.752  0.00  0.00    +0.000 OA
ATOM     24  O   UNL     1       2.705   3.032  21.992  0.00  0.00    +0.000 OA
ENDBRANCH  19  22
ENDBRANCH   1  19
TORSDOF 3
ENDMDL
MODEL 5
REMARK VINA RESULT:      -8.2      1.901      2.475
REMARK  Name = 
REMARK  4 active torsions:
REMARK  status: ('A' for Active; 'I' for Inactive)
REMARK    1  A    between atoms: C_1  and  S_2
REMARK    2  A    between atoms: S_2  and  N_5
REMARK    3  A    between atoms: N_5  and  C_6
REMARK    4  A    between atoms: C_9  and  C_10
REMARK                            x       y       z     vdW  Elec       q    Type
REMARK                         _______ _______ _______ _____ _____    ______ ____
ROOT
ATOM      1  C   UNL     1       4.840   5.191  16.896  0.00  0.00    +0.000 A 
ATOM      2  C   UNL     1       5.141   6.531  17.099  0.00  0.00    +0.000 A 
ATOM      3  C   UNL     1       4.248   7.331  17.807  0.00  0.00    +0.000 A 
ATOM      4  C   UNL     1       3.030   6.822  18.311  0.00  0.00    +0.000 A 
ATOM      5  C   UNL     1       2.739   5.426  18.086  0.00  0.00    +0.000 A 
ATOM      6  C   UNL     1       1.560   4.752  18.489  0.00  0.00    +0.000 A 
ATOM      7  C   UNL     1       1.402   3.377  18.329  0.00  0.00    +0.000 A 
ATOM      8  C   UNL     1       2.404   2.689  17.690  0.00  0.00    +0.000 A 
ATOM      9  N   UNL     1       3.508   3.283  17.202  0.00  0.00    +0.000 NA
ATOM     10  C   UNL     1       3.675   4.612  17.400  0.00  0.00    +0.000 A 
ENDROOT
BRANCH   4  11
ATOM     11  C   UNL     1       2.121   7.758  19.043  0.00  0.00    +0.000 A 
ATOM     12  C   UNL     1       1.812   7.555  20.407  0.00  0.00    +0.000 A 
ATOM     13  C   UNL     1       0.997   8.443  21.122  0.00  0.00    +0.000 A 
ATOM     14  C   UNL     1       0.502   9.574  20.493  0.00  0.00    +0.000 A 
ATOM     15  F   UNL     1      -0.231  10.453  21.189  0.00  0.00    +0.000 F 
ATOM     16  C   UNL     1       0.766   9.788  19.150  0.00  0.00    +0.000 A 
ATOM     17  F   UNL     1       0.307  10.888  18.538  0.00  0.00    +0.000 F 
ATOM     18  C   UNL     1       1.524   8.871  18.421  0.00  0.00    +0.000 A 
ENDBRANCH   4  11
BRANCH   1  19
ATOM     19  N   UNL     1       5.780   4.356  16.184  0.00  0.00    +0.000 N 
ATOM     20  H   UNL     1       6.554   4.076  16.797  0.00  0.00    +0.000 HD
BRANCH  19  22
ATOM     21  C   UNL     1       6.185   3.617  13.591  0.00  0.00    +0.000 C 
ATOM     22  S   UNL     1       6.401   4.967  14.737  0.00  0.00    +0.000 S 
ATOM     23  O   UNL     1       7.818   5.211  14.894  0.00  0.00    +0.000 OA
ATOM     24  O   UNL     1       5.497   6.028  14.331  0.00  0.00    +0.000 OA
ENDBRANCH  19  22
ENDBRANCH   1  19
TORSDOF 3
ENDMDL
MODEL 6
REMARK VINA RESULT:      -8.2      1.307      1.619
REMARK  Name = 
REMARK  4 active torsions:
REMARK  status: ('A' for Active; 'I' for Inactive)
REMARK    1  A    between atoms: C_1  and  S_2
REMARK    2  A    between atoms: S_2  and  N_5
REMARK    3  A    between atoms: N_5  and  C_6
REMARK    4  A    between atoms: C_9  and  C_10
REMARK                            x       y       z     vdW  Elec       q    Type
REMARK                         _______ _______ _______ _____ _____    ______ ____
ROOT
ATOM      1  C   UNL     1       3.793   5.924  17.791  0.00  0.00    +0.000 A 
ATOM      2  C   UNL     1       3.653   7.264  17.453  0.00  0.00    +0.000 A 
ATOM      3  C   UNL     1       2.857   8.087  18.246  0.00  0.00    +0.000 A 
ATOM      4  C   UNL     1       2.169   7.593  19.377  0.00  0.00    +0.000 A 
ATOM      5  C   UNL     1       2.330   6.198  19.706  0.00  0.00    +0.000 A 
ATOM      6  C   UNL     1       1.697   5.524  20.781  0.00  0.00    +0.000 A 
ATOM      7  C   UNL     1       1.989   4.199  21.097  0.00  0.00    +0.000 A 
ATOM      8  C   UNL     1       2.864   3.525  20.282  0.00  0.00    +0.000 A 
ATOM      9  N   UNL     1       3.430   4.078  19.194  0.00  0.00    +0.000 NA
ATOM     10  C   UNL     1       3.176   5.379  18.917  0.00  0.00    +0.000 A 
ENDROOT
BRANCH   4  11
ATOM     11  C   UNL     1       1.320   8.545  20.159  0.00  0.00    +0.000 A 
ATOM     12  C   UNL     1       0.515   9.507  19.508  0.00  0.00    +0.000 A 
ATOM     13  C   UNL     1      -0.319  10.380  20.220  0.00  0.00    +0.000 A 
ATOM     14  C   UNL     1      -0.391  10.282  21.601  0.00  0.00    +0.000 A 
ATOM     15  F   UNL     1      -1.229  11.077  22.279  0.00  0.00    +0.000 F 
ATOM     16  C   UNL     1       0.404   9.367  22.270  0.00  0.00    +0.000 A 
ATOM     17  F   UNL     1       0.328   9.252  23.603  0.00  0.00    +0.000 F 
ATOM     18  C   UNL     1       1.283   8.542  21.566  0.00  0.00    +0.000 A 
ENDBRANCH   4  11
BRANCH   1  19
ATOM     19  N   UNL     1       4.641   5.078  16.984  0.00  0.00    +0.000 N 
ATOM     20  H   UNL     1       4.366   4.094  17.077  0.00  0.00    +0.000 HD
BRANCH  19  22
ATOM     21  C   UNL     1       6.996   4.443  15.765  0.00  0.00    +0.000 C 
ATOM     22  S   UNL     1       6.308   5.221  17.216  0.00  0.00    +0.000 S 
ATOM     23  O   UNL     1       6.693   4.448  18.375  0.00  0.00    +0.000 OA
ATOM     24  O   UNL     1       6.602   6.639  17.127  0.00  0.00    +0.000 OA
ENDBRANCH  19  22
ENDBRANCH   1  19
TORSDOF 3
ENDMDL
MODEL 7
REMARK VINA RESULT:      -8.2      1.848      2.113
REMARK  Name = 
REMARK  4 active torsions:
REMARK  status: ('A' for Active; 'I' for Inactive)
REMARK    1  A    between atoms: C_1  and  S_2
REMARK    2  A    between atoms: S_2  and  N_5
REMARK    3  A    between atoms: N_5  and  C_6
REMARK    4  A    between atoms: C_9  and  C_10
REMARK                            x       y       z     vdW  Elec       q    Type
REMARK                         _______ _______ _______ _____ _____    ______ ____
ROOT
ATOM      1  C   UNL     1       4.854   5.239  16.826  0.00  0.00    +0.000 A 
ATOM      2  C   UNL     1       5.160   6.585  16.980  0.00  0.00    +0.000 A 
ATOM      3  C   UNL     1       4.268   7.413  17.657  0.00  0.00    +0.000 A 
ATOM      4  C   UNL     1       3.048   6.927  18.177  0.00  0.00    +0.000 A 
ATOM      5  C   UNL     1       2.753   5.525  18.003  0.00  0.00    +0.000 A 
ATOM      6  C   UNL     1       1.570   4.870  18.429  0.00  0.00    +0.000 A 
ATOM      7  C   UNL     1       1.408   3.491  18.319  0.00  0.00    +0.000 A 
ATOM      8  C   UNL     1       2.408   2.776  17.708  0.00  0.00    +0.000 A 
ATOM      9  N   UNL     1       3.515   3.348  17.200  0.00  0.00    +0.000 NA
ATOM     10  C   UNL     1       3.687   4.682  17.349  0.00  0.00    +0.000 A 
ENDROOT
BRANCH   4  11
ATOM     11  C   UNL     1       2.141   7.892  18.872  0.00  0.00    +0.000 A 
ATOM     12  C   UNL     1       1.516   8.944  18.164  0.00  0.00    +0.000 A 
ATOM     13  C   UNL     1       0.631   9.834  18.788  0.00  0.00    +0.000 A 
ATOM     14  C   UNL     1       0.325   9.666  20.130  0.00  0.00    +0.000 A 
ATOM     15  F   UNL     1      -0.563  10.480  20.715  0.00  0.00    +0.000 F 
ATOM     16  C   UNL     1       0.940   8.660  20.857  0.00  0.00    +0.000 A 
ATOM     17  F   UNL     1       0.637   8.478  22.149  0.00  0.00    +0.000 F 
ATOM     18  C   UNL     1       1.870   7.814  20.252  0.00  0.00    +0.000 A 
ENDBRANCH   4  11
BRANCH   1  19
ATOM     19  N   UNL     1       5.793   4.375  16.147  0.00  0.00    +0.000 N 
ATOM     20  H   UNL     1       6.561   4.110  16.772  0.00  0.00    +0.000 HD
BRANCH  19  22
ATOM     21  C   UNL     1       6.216   3.544  13.584  0.00  0.00    +0.000 C 
ATOM     22  S   UNL     1       6.425   4.934  14.684  0.00  0.00    +0.000 S 
ATOM     23  O   UNL     1       7.841   5.182  14.842  0.00  0.00    +0.000 OA
ATOM     24  O   UNL     1       5.525   5.980  14.234  0.00  0.00    +0.000 OA
ENDBRANCH  19  22
ENDBRANCH   1  19
TORSDOF 3
ENDMDL
MODEL 8
REMARK VINA RESULT:      -8.1      5.824      7.689
REMARK  Name = 
REMARK  4 active torsions:
REMARK  status: ('A' for Active; 'I' for Inactive)
REMARK    1  A    between atoms: C_1  and  S_2
REMARK    2  A    between atoms: S_2  and  N_5
REMARK    3  A    between atoms: N_5  and  C_6
REMARK    4  A    between atoms: C_9  and  C_10
REMARK                            x       y       z     vdW  Elec       q    Type
REMARK                         _______ _______ _______ _____ _____    ______ ____
ROOT
ATOM      1  C   UNL     1       4.332   3.682  18.609  0.00  0.00    +0.000 A 
ATOM      2  C   UNL     1       3.769   3.077  17.494  0.00  0.00    +0.000 A 
ATOM      3  C   UNL     1       4.372   3.244  16.250  0.00  0.00    +0.000 A 
ATOM      4  C   UNL     1       5.535   4.030  16.085  0.00  0.00    +0.000 A 
ATOM      5  C   UNL     1       6.100   4.649  17.260  0.00  0.00    +0.000 A 
ATOM      6  C   UNL     1       7.240   5.492  17.283  0.00  0.00    +0.000 A 
ATOM      7  C   UNL     1       7.787   5.965  18.473  0.00  0.00    +0.000 A 
ATOM      8  C   UNL     1       7.140   5.651  19.643  0.00  0.00    +0.000 A 
ATOM      9  N   UNL     1       6.003   4.931  19.684  0.00  0.00    +0.000 NA
ATOM     10  C   UNL     1       5.501   4.439  18.527  0.00  0.00    +0.000 A 
ENDROOT
BRANCH   4  11
ATOM     11  C   UNL     1       6.104   4.171  14.709  0.00  0.00    +0.000 A 
ATOM     12  C   UNL     1       5.499   3.534  13.602  0.00  0.00    +0.000 A 
ATOM     13  C   UNL     1       5.992   3.686  12.299  0.00  0.00    +0.000 A 
ATOM     14  C   UNL     1       7.083   4.511  12.073  0.00  0.00    +0.000 A 
ATOM     15  F   UNL     1       7.522   4.703  10.822  0.00  0.00    +0.000 F 
ATOM     16  C   UNL     1       7.713   5.129  13.140  0.00  0.00    +0.000 A 
ATOM     17  F   UNL     1       8.757   5.942  12.930  0.00  0.00    +0.000 F 
ATOM     18  C   UNL     1       7.263   4.926  14.445  0.00  0.00    +0.000 A 
ENDBRANCH   4  11
BRANCH   1  19
ATOM     19  N   UNL     1       3.720   3.486  19.903  0.00  0.00    +0.000 N 
ATOM     20  H   UNL     1       3.564   2.489  20.084  0.00  0.00    +0.000 HD
BRANCH  19  22
ATOM     21  C   UNL     1       1.013   3.200  19.739  0.00  0.00    +0.000 C 
ATOM     22  S   UNL     1       2.297   4.343  20.213  0.00  0.00    +0.000 S 
ATOM     23  O   UNL     1       2.234   5.491  19.336  0.00  0.00    +0.000 OA
ATOM     24  O   UNL     1       2.230   4.496  21.655  0.00  0.00    +0.000 OA
ENDBRANCH  19  22
ENDBRANCH   1  19
TORSDOF 3
ENDMDL
MODEL 9
REMARK VINA RESULT:      -8.1      5.787      7.658
REMARK  Name = 
REMARK  4 active torsions:
REMARK  status: ('A' for Active; 'I' for Inactive)
REMARK    1  A    between atoms: C_1  and  S_2
REMARK    2  A    between atoms: S_2  and  N_5
REMARK    3  A    between atoms: N_5  and  C_6
REMARK    4  A    between atoms: C_9  and  C_10
REMARK                            x       y       z     vdW  Elec       q    Type
REMARK                         _______ _______ _______ _____ _____    ______ ____
ROOT
ATOM      1  C   UNL     1       3.927   4.400  18.610  0.00  0.00    +0.000 A 
ATOM      2  C   UNL     1       3.237   3.977  17.482  0.00  0.00    +0.000 A 
ATOM      3  C   UNL     1       3.884   3.969  16.250  0.00  0.00    +0.000 A 
ATOM      4  C   UNL     1       5.223   4.400  16.108  0.00  0.00    +0.000 A 
ATOM      5  C   UNL     1       5.918   4.836  17.295  0.00  0.00    +0.000 A 
ATOM      6  C   UNL     1       7.247   5.327  17.341  0.00  0.00    +0.000 A 
ATOM      7  C   UNL     1       7.884   5.628  18.542  0.00  0.00    +0.000 A 
ATOM      8  C   UNL     1       7.155   5.506  19.700  0.00  0.00    +0.000 A 
ATOM      9  N   UNL     1       5.862   5.133  19.718  0.00  0.00    +0.000 NA
ATOM     10  C   UNL     1       5.262   4.800  18.551  0.00  0.00    +0.000 A 
ENDROOT
BRANCH   4  11
ATOM     11  C   UNL     1       5.832   4.376  14.742  0.00  0.00    +0.000 A 
ATOM     12  C   UNL     1       7.000   5.118  14.453  0.00  0.00    +0.000 A 
ATOM     13  C   UNL     1       7.610   5.078  13.192  0.00  0.00    +0.000 A 
ATOM     14  C   UNL     1       7.083   4.262  12.204  0.00  0.00    +0.000 A 
ATOM     15  F   UNL     1       7.696   4.178  11.016  0.00  0.00    +0.000 F 
ATOM     16  C   UNL     1       5.925   3.542  12.448  0.00  0.00    +0.000 A 
ATOM     17  F   UNL     1       5.418   2.736  11.505  0.00  0.00    +0.000 F 
ATOM     18  C   UNL     1       5.281   3.632  13.682  0.00  0.00    +0.000 A 
ENDBRANCH   4  11
BRANCH   1  19
ATOM     19  N   UNL     1       3.263   4.382  19.893  0.00  0.00    +0.000 N 
ATOM     20  H   UNL     1       3.727   5.017  20.552  0.00  0.00    +0.000 HD
BRANCH  19  22
ATOM     21  C   UNL     1       1.742   2.131  19.658  0.00  0.00    +0.000 C 
ATOM     22  S   UNL     1       3.047   2.873  20.621  0.00  0.00    +0.000 S 
ATOM     23  O   UNL     1       2.567   3.063  21.972  0.00  0.00    +0.000 OA
ATOM     24  O   UNL     1       4.262   2.125  20.354  0.00  0.00    +0.000 OA
ENDBRANCH  19  22
ENDBRANCH   1  19
TORSDOF 3
ENDMDL
