MODEL 1
REMARK VINA RESULT:      -8.6      0.000      0.000
REMARK  Name = 
REMARK  6 active torsions:
REMARK  status: ('A' for Active; 'I' for Inactive)
REMARK    1  A    between atoms: C_1  and  C_2
REMARK    2  A    between atoms: C_6  and  C_7
REMARK    3  A    between atoms: C_7  and  O_8
REMARK    4  A    between atoms: C_7  and  C_16
REMARK    5  A    between atoms: O_8  and  C_9
REMARK    6  A    between atoms: N_12  and  C_13
REMARK                            x       y       z     vdW  Elec       q    Type
REMARK                         _______ _______ _______ _____ _____    ______ ____
ROOT
ATOM      1  C   UNL     1       5.760   4.358  16.103  0.00  0.00    +0.000 C 
ENDROOT
BRANCH   1   7
ATOM      2  C   UNL     1       5.174   2.519  11.430  0.00  0.00    +0.000 C 
ATOM      3  C   UNL     1       5.904   3.431  12.372  0.00  0.00    +0.000 A 
ATOM      4  C   UNL     1       7.016   4.159  11.939  0.00  0.00    +0.000 A 
ATOM      5  C   UNL     1       7.723   4.958  12.830  0.00  0.00    +0.000 A 
ATOM      6  C   UNL     1       7.332   5.025  14.166  0.00  0.00    +0.000 A 
ATOM      7  C   UNL     1       6.204   4.324  14.632  0.00  0.00    +0.000 A 
ATOM      8  C   UNL     1       5.494   3.536  13.710  0.00  0.00    +0.000 A 
ENDBRANCH   1   7
BRANCH   1   9
ATOM      9  C   UNL     1       6.544   5.305  17.025  0.00  0.00    +0.000 A 
ATOM     10  C   UNL     1       7.339   4.802  18.069  0.00  0.00    +0.000 A 
ATOM     11  C   UNL     1       8.073   5.657  18.895  0.00  0.00    +0.000 A 
ATOM     12  C   UNL     1       8.062   7.029  18.666  0.00  0.00    +0.000 A 
ATOM     13  C   UNL     1       7.316   7.547  17.611  0.00  0.00    +0.000 A 
ATOM     14  C   UNL     1       6.571   6.693  16.794  0.00  0.00    +0.000 A 
ENDBRANCH   1   9
BRANCH   1  15
ATOM     15  O   UNL     1       4.326   4.386  16.302  0.00  0.00    +0.000 OA
BRANCH  15  16
ATOM     16  C   UNL     1       3.818   4.083  17.601  0.00  0.00    +0.000 C 
ATOM     17  C   UNL     1       3.476   2.608  17.779  0.00  0.00    +0.000 C 
ATOM     18  C   UNL     1       3.022   2.365  19.206  0.00  0.00    +0.000 C 
ATOM     19  N   UNL     1       1.797   3.119  19.482  0.00  0.00    +0.000 NA
ATOM     20  C   UNL     1       1.360   2.852  20.853  0.00  0.00    +0.000 C 
ATOM     21  C   UNL     1       1.968   4.563  19.250  0.00  0.00    +0.000 C 
ATOM     22  C   UNL     1       2.536   4.884  17.858  0.00  0.00    +0.000 C 
ENDBRANCH  15  16
ENDBRANCH   1  15
TORSDOF 4
ENDMDL
MODEL 2
REMARK VINA RESULT:      -8.6      0.115      1.032
REMARK  Name = 
REMARK  6 active torsions:
REMARK  status: ('A' for Active; 'I' for Inactive)
REMARK    1  A    between atoms: C_1  and  C_2
REMARK    2  A    between atoms: C_6  and  C_7
REMARK    3  A    between atoms: C_7  and  O_8
REMARK    4  A    between atoms: C_7  and  C_16
REMARK    5  A    between atoms: O_8  and  C_9
REMARK    6  A    between atoms: N_12  and  C_13
REMARK                            x       y       z     vdW  Elec       q    Type
REMARK                         _______ _______ _______ _____ _____    ______ ____
ROOT
ATOM      1  C   UNL     1       5.845   4.455  16.108  0.00  0.00    +0.000 C 
ENDROOT
BRANCH   1   7
ATOM      2  C   UNL     1       5.190   2.515  11.486  0.00  0.00    +0.000 C 
ATOM      3  C   UNL     1       5.935   3.446  12.397  0.00  0.00    +0.000 A 
ATOM      4  C   UNL     1       7.041   4.163  11.932  0.00  0.00    +0.000 A 
ATOM      5  C   UNL     1       7.762   4.981  12.796  0.00  0.00    +0.000 A 
ATOM      6  C   UNL     1       7.390   5.077  14.134  0.00  0.00    +0.000 A 
ATOM      7  C   UNL     1       6.268   4.388  14.632  0.00  0.00    +0.000 A 
ATOM      8  C   UNL     1       5.544   3.581  13.738  0.00  0.00    +0.000 A 
ENDBRANCH   1   7
BRANCH   1   9
ATOM      9  C   UNL     1       6.685   5.370  17.012  0.00  0.00    +0.000 A 
ATOM     10  C   UNL     1       6.719   6.760  16.801  0.00  0.00    +0.000 A 
ATOM     11  C   UNL     1       7.462   7.600  17.634  0.00  0.00    +0.000 A 
ATOM     12  C   UNL     1       8.151   7.073  18.722  0.00  0.00    +0.000 A 
ATOM     13  C   UNL     1       8.097   5.705  18.976  0.00  0.00    +0.000 A 
ATOM     14  C   UNL     1       7.366   4.864  18.135  0.00  0.00    +0.000 A 
ENDBRANCH   1   9
BRANCH   1  15
ATOM     15  O   UNL     1       4.417   4.554  16.324  0.00  0.00    +0.000 OA
BRANCH  15  16
ATOM     16  C   UNL     1       3.900   4.191  17.604  0.00  0.00    +0.000 C 
ATOM     17  C   UNL     1       3.597   2.702  17.725  0.00  0.00    +0.000 C 
ATOM     18  C   UNL     1       3.132   2.396  19.136  0.00  0.00    +0.000 C 
ATOM     19  N   UNL     1       1.883   3.106  19.422  0.00  0.00    +0.000 NA
ATOM     20  C   UNL     1       1.435   2.779  20.776  0.00  0.00    +0.000 C 
ATOM     21  C   UNL     1       2.017   4.561  19.243  0.00  0.00    +0.000 C 
ATOM     22  C   UNL     1       2.593   4.948  17.872  0.00  0.00    +0.000 C 
ENDBRANCH  15  16
ENDBRANCH   1  15
TORSDOF 4
ENDMDL
MODEL 3
REMARK VINA RESULT:      -8.4      3.177      5.592
REMARK  Name = 
REMARK  6 active torsions:
REMARK  status: ('A' for Active; 'I' for Inactive)
REMARK    1  A    between atoms: C_1  and  C_2
REMARK    2  A    between atoms: C_6  and  C_7
REMARK    3  A    between atoms: C_7  and  O_8
REMARK    4  A    between atoms: C_7  and  C_16
REMARK    5  A    between atoms: O_8  and  C_9
REMARK    6  A    between atoms: N_12  and  C_13
REMARK                            x       y       z     vdW  Elec       q    Type
REMARK                         _______ _______ _______ _____ _____    ______ ____
ROOT
ATOM      1  C   UNL     1       3.343   5.762  18.210  0.00  0.00    +0.000 C 
ENDROOT
BRANCH   1   7
ATOM      2  C   UNL     1       6.068   4.006  14.331  0.00  0.00    +0.000 C 
ATOM      3  C   UNL     1       6.012   4.489  15.751  0.00  0.00    +0.000 A 
ATOM      4  C   UNL     1       7.154   4.461  16.557  0.00  0.00    +0.000 A 
ATOM      5  C   UNL     1       7.084   4.857  17.888  0.00  0.00    +0.000 A 
ATOM      6  C   UNL     1       5.868   5.270  18.428  0.00  0.00    +0.000 A 
ATOM      7  C   UNL     1       4.703   5.333  17.640  0.00  0.00    +0.000 A 
ATOM      8  C   UNL     1       4.801   4.945  16.292  0.00  0.00    +0.000 A 
ENDBRANCH   1   7
BRANCH   1   9
ATOM      9  C   UNL     1       2.565   4.689  18.986  0.00  0.00    +0.000 A 
ATOM     10  C   UNL     1       2.651   4.606  20.387  0.00  0.00    +0.000 A 
ATOM     11  C   UNL     1       1.927   3.646  21.100  0.00  0.00    +0.000 A 
ATOM     12  C   UNL     1       1.069   2.780  20.431  0.00  0.00    +0.000 A 
ATOM     13  C   UNL     1       0.935   2.871  19.049  0.00  0.00    +0.000 A 
ATOM     14  C   UNL     1       1.669   3.821  18.335  0.00  0.00    +0.000 A 
ENDBRANCH   1   9
BRANCH   1  15
ATOM     15  O   UNL     1       3.333   7.070  18.832  0.00  0.00    +0.000 OA
BRANCH  15  16
ATOM     16  C   UNL     1       2.101   7.791  18.868  0.00  0.00    +0.000 C 
ATOM     17  C   UNL     1       2.112   9.037  17.988  0.00  0.00    +0.000 C 
ATOM     18  C   UNL     1       0.744   9.691  18.026  0.00  0.00    +0.000 C 
ATOM     19  N   UNL     1       0.435  10.138  19.386  0.00  0.00    +0.000 NA
ATOM     20  C   UNL     1      -0.875  10.790  19.398  0.00  0.00    +0.000 C 
ATOM     21  C   UNL     1       0.489   9.035  20.360  0.00  0.00    +0.000 C 
ATOM     22  C   UNL     1       1.808   8.248  20.303  0.00  0.00    +0.000 C 
ENDBRANCH  15  16
ENDBRANCH   1  15
TORSDOF 4
ENDMDL
MODEL 4
REMARK VINA RESULT:      -8.4      0.554      4.539
REMARK  Name = 
REMARK  6 active torsions:
REMARK  status: ('A' for Active; 'I' for Inactive)
REMARK    1  A    between atoms: C_1  and  C_2
REMARK    2  A    between atoms: C_6  and  C_7
REMARK    3  A    between atoms: C_7  and  O_8
REMARK    4  A    between atoms: C_7  and  C_16
REMARK    5  A    between atoms: O_8  and  C_9
REMARK    6  A    between atoms: N_12  and  C_13
REMARK                            x       y       z     vdW  Elec       q    Type
REMARK                         _______ _______ _______ _____ _____    ______ ____
ROOT
ATOM      1  C   UNL     1       5.390   4.850  15.897  0.00  0.00    +0.000 C 
ENDROOT
BRANCH   1   7
ATOM      2  C   UNL     1       7.832   8.874  17.741  0.00  0.00    +0.000 C 
ATOM      3  C   UNL     1       7.526   7.407  17.819  0.00  0.00    +0.000 A 
ATOM      4  C   UNL     1       8.175   6.594  18.753  0.00  0.00    +0.000 A 
ATOM      5  C   UNL     1       7.929   5.225  18.783  0.00  0.00    +0.000 A 
ATOM      6  C   UNL     1       7.044   4.657  17.870  0.00  0.00    +0.000 A 
ATOM      7  C   UNL     1       6.355   5.448  16.931  0.00  0.00    +0.000 A 
ATOM      8  C   UNL     1       6.606   6.832  16.930  0.00  0.00    +0.000 A 
ENDBRANCH   1   7
BRANCH   1   9
ATOM      9  C   UNL     1       5.974   4.584  14.501  0.00  0.00    +0.000 A 
ATOM     10  C   UNL     1       7.203   5.145  14.114  0.00  0.00    +0.000 A 
ATOM     11  C   UNL     1       7.751   4.888  12.854  0.00  0.00    +0.000 A 
ATOM     12  C   UNL     1       7.102   4.029  11.973  0.00  0.00    +0.000 A 
ATOM     13  C   UNL     1       5.905   3.427  12.351  0.00  0.00    +0.000 A 
ATOM     14  C   UNL     1       5.351   3.696  13.604  0.00  0.00    +0.000 A 
ENDBRANCH   1   9
BRANCH   1  15
ATOM     15  O   UNL     1       4.545   3.787  16.400  0.00  0.00    +0.000 OA
BRANCH  15  16
ATOM     16  C   UNL     1       4.027   3.907  17.725  0.00  0.00    +0.000 C 
ATOM     17  C   UNL     1       3.870   2.563  18.429  0.00  0.00    +0.000 C 
ATOM     18  C   UNL     1       3.392   2.792  19.850  0.00  0.00    +0.000 C 
ATOM     19  N   UNL     1       2.070   3.422  19.843  0.00  0.00    +0.000 NA
ATOM     20  C   UNL     1       1.613   3.611  21.221  0.00  0.00    +0.000 C 
ATOM     21  C   UNL     1       2.063   4.694  19.102  0.00  0.00    +0.000 C 
ATOM     22  C   UNL     1       2.642   4.566  17.684  0.00  0.00    +0.000 C 
ENDBRANCH  15  16
ENDBRANCH   1  15
TORSDOF 4
ENDMDL
MODEL 5
REMARK VINA RESULT:      -8.4      0.596      4.545
REMARK  Name = 
REMARK  6 active torsions:
REMARK  status: ('A' for Active; 'I' for Inactive)
REMARK    1  A    between atoms: C_1  and  C_2
REMARK    2  A    between atoms: C_6  and  C_7
REMARK    3  A    between atoms: C_7  and  O_8
REMARK    4  A    between atoms: C_7  and  C_16
REMARK    5  A    between atoms: O_8  and  C_9
REMARK    6  A    between atoms: N_12  and  C_13
REMARK                            x       y       z     vdW  Elec       q    Type
REMARK                         _______ _______ _______ _____ _____    ______ ____
ROOT
ATOM      1  C   UNL     1       5.365   4.946  15.802  0.00  0.00    +0.000 C 
ENDROOT
BRANCH   1   7
ATOM      2  C   UNL     1       7.851   8.880  17.779  0.00  0.00    +0.000 C 
ATOM      3  C   UNL     1       7.525   7.415  17.811  0.00  0.00    +0.000 A 
ATOM      4  C   UNL     1       8.159   6.566  18.723  0.00  0.00    +0.000 A 
ATOM      5  C   UNL     1       7.895   5.200  18.710  0.00  0.00    +0.000 A 
ATOM      6  C   UNL     1       7.007   4.671  17.777  0.00  0.00    +0.000 A 
ATOM      7  C   UNL     1       6.333   5.500  16.859  0.00  0.00    +0.000 A 
ATOM      8  C   UNL     1       6.602   6.879  16.901  0.00  0.00    +0.000 A 
ENDBRANCH   1   7
BRANCH   1   9
ATOM      9  C   UNL     1       5.985   4.570  14.448  0.00  0.00    +0.000 A 
ATOM     10  C   UNL     1       5.313   3.713  13.559  0.00  0.00    +0.000 A 
ATOM     11  C   UNL     1       5.861   3.387  12.316  0.00  0.00    +0.000 A 
ATOM     12  C   UNL     1       7.071   3.946  11.918  0.00  0.00    +0.000 A 
ATOM     13  C   UNL     1       7.734   4.831  12.763  0.00  0.00    +0.000 A 
ATOM     14  C   UNL     1       7.193   5.146  14.011  0.00  0.00    +0.000 A 
ENDBRANCH   1   9
BRANCH   1  15
ATOM     15  O   UNL     1       4.406   3.984  16.305  0.00  0.00    +0.000 OA
BRANCH  15  16
ATOM     16  C   UNL     1       4.014   4.074  17.675  0.00  0.00    +0.000 C 
ATOM     17  C   UNL     1       3.867   2.712  18.344  0.00  0.00    +0.000 C 
ATOM     18  C   UNL     1       3.529   2.905  19.810  0.00  0.00    +0.000 C 
ATOM     19  N   UNL     1       2.238   3.584  19.946  0.00  0.00    +0.000 NA
ATOM     20  C   UNL     1       1.916   3.739  21.365  0.00  0.00    +0.000 C 
ATOM     21  C   UNL     1       2.216   4.883  19.251  0.00  0.00    +0.000 C 
ATOM     22  C   UNL     1       2.659   4.786  17.783  0.00  0.00    +0.000 C 
ENDBRANCH  15  16
ENDBRANCH   1  15
TORSDOF 4
ENDMDL
MODEL 6
REMARK VINA RESULT:      -8.4      3.222      5.663
REMARK  Name = 
REMARK  6 active torsions:
REMARK  status: ('A' for Active; 'I' for Inactive)
REMARK    1  A    between atoms: C_1  and  C_2
REMARK    2  A    between atoms: C_6  and  C_7
REMARK    3  A    between atoms: C_7  and  O_8
REMARK    4  A    between atoms: C_7  and  C_16
REMARK    5  A    between atoms: O_8  and  C_9
REMARK    6  A    between atoms: N_12  and  C_13
REMARK                            x       y       z     vdW  Elec       q    Type
REMARK                         _______ _______ _______ _____ _____    ______ ____
ROOT
ATOM      1  C   UNL     1       3.284   5.828  18.169  0.00  0.00    +0.000 C 
ENDROOT
BRANCH   1   7
ATOM      2  C   UNL     1       6.074   4.030  14.356  0.00  0.00    +0.000 C 
ATOM      3  C   UNL     1       5.993   4.523  15.771  0.00  0.00    +0.000 A 
ATOM      4  C   UNL     1       7.119   4.495  16.599  0.00  0.00    +0.000 A 
ATOM      5  C   UNL     1       7.025   4.900  17.926  0.00  0.00    +0.000 A 
ATOM      6  C   UNL     1       5.802   5.323  18.439  0.00  0.00    +0.000 A 
ATOM      7  C   UNL     1       4.653   5.388  17.629  0.00  0.00    +0.000 A 
ATOM      8  C   UNL     1       4.774   4.989  16.286  0.00  0.00    +0.000 A 
ENDBRANCH   1   7
BRANCH   1   9
ATOM      9  C   UNL     1       2.463   4.750  18.893  0.00  0.00    +0.000 A 
ATOM     10  C   UNL     1       1.702   3.815  18.170  0.00  0.00    +0.000 A 
ATOM     11  C   UNL     1       0.973   2.817  18.823  0.00  0.00    +0.000 A 
ATOM     12  C   UNL     1       1.025   2.707  20.208  0.00  0.00    +0.000 A 
ATOM     13  C   UNL     1       1.806   3.596  20.943  0.00  0.00    +0.000 A 
ATOM     14  C   UNL     1       2.523   4.601  20.291  0.00  0.00    +0.000 A 
ENDBRANCH   1   9
BRANCH   1  15
ATOM     15  O   UNL     1       3.279   7.120  18.825  0.00  0.00    +0.000 OA
BRANCH  15  16
ATOM     16  C   UNL     1       2.053   7.849  18.872  0.00  0.00    +0.000 C 
ATOM     17  C   UNL     1       2.061   9.088  17.984  0.00  0.00    +0.000 C 
ATOM     18  C   UNL     1       0.698   9.752  18.034  0.00  0.00    +0.000 C 
ATOM     19  N   UNL     1       0.409  10.210  19.395  0.00  0.00    +0.000 NA
ATOM     20  C   UNL     1      -0.897  10.870  19.420  0.00  0.00    +0.000 C 
ATOM     21  C   UNL     1       0.467   9.113  20.375  0.00  0.00    +0.000 C 
ATOM     22  C   UNL     1       1.780   8.316  20.307  0.00  0.00    +0.000 C 
ENDBRANCH  15  16
ENDBRANCH   1  15
TORSDOF 4
ENDMDL
MODEL 7
REMARK VINA RESULT:      -8.3      0.662      1.577
REMARK  Name = 
REMARK  6 active torsions:
REMARK  status: ('A' for Active; 'I' for Inactive)
REMARK    1  A    between atoms: C_1  and  C_2
REMARK    2  A    between atoms: C_6  and  C_7
REMARK    3  A    between atoms: C_7  and  O_8
REMARK    4  A    between atoms: C_7  and  C_16
REMARK    5  A    between atoms: O_8  and  C_9
REMARK    6  A    between atoms: N_12  and  C_13
REMARK                            x       y       z     vdW  Elec       q    Type
REMARK                         _______ _______ _______ _____ _____    ______ ____
ROOT
ATOM      1  C   UNL     1       5.723   4.729  16.092  0.00  0.00    +0.000 C 
ENDROOT
BRANCH   1   7
ATOM      2  C   UNL     1       5.212   2.501  11.584  0.00  0.00    +0.000 C 
ATOM      3  C   UNL     1       5.945   3.469  12.465  0.00  0.00    +0.000 A 
ATOM      4  C   UNL     1       7.093   4.120  12.005  0.00  0.00    +0.000 A 
ATOM      5  C   UNL     1       7.801   4.973  12.845  0.00  0.00    +0.000 A 
ATOM      6  C   UNL     1       7.373   5.171  14.156  0.00  0.00    +0.000 A 
ATOM      7  C   UNL     1       6.208   4.550  14.646  0.00  0.00    +0.000 A 
ATOM      8  C   UNL     1       5.499   3.706  13.774  0.00  0.00    +0.000 A 
ENDBRANCH   1   7
BRANCH   1   9
ATOM      9  C   UNL     1       6.638   5.546  17.017  0.00  0.00    +0.000 A 
ATOM     10  C   UNL     1       6.786   6.933  16.845  0.00  0.00    +0.000 A 
ATOM     11  C   UNL     1       7.599   7.685  17.698  0.00  0.00    +0.000 A 
ATOM     12  C   UNL     1       8.244   7.072  18.767  0.00  0.00    +0.000 A 
ATOM     13  C   UNL     1       8.078   5.707  18.984  0.00  0.00    +0.000 A 
ATOM     14  C   UNL     1       7.277   4.954  18.123  0.00  0.00    +0.000 A 
ENDBRANCH   1   9
BRANCH   1  15
ATOM     15  O   UNL     1       4.315   5.040  16.224  0.00  0.00    +0.000 OA
BRANCH  15  16
ATOM     16  C   UNL     1       3.598   4.475  17.322  0.00  0.00    +0.000 C 
ATOM     17  C   UNL     1       3.711   5.301  18.598  0.00  0.00    +0.000 C 
ATOM     18  C   UNL     1       2.858   4.672  19.683  0.00  0.00    +0.000 C 
ATOM     19  N   UNL     1       3.355   3.332  20.003  0.00  0.00    +0.000 NA
ATOM     20  C   UNL     1       2.537   2.751  21.068  0.00  0.00    +0.000 C 
ATOM     21  C   UNL     1       3.389   2.454  18.821  0.00  0.00    +0.000 C 
ATOM     22  C   UNL     1       4.143   3.075  17.634  0.00  0.00    +0.000 C 
ENDBRANCH  15  16
ENDBRANCH   1  15
TORSDOF 4
ENDMDL
MODEL 8
REMARK VINA RESULT:      -8.3      0.756      4.658
REMARK  Name = 
REMARK  6 active torsions:
REMARK  status: ('A' for Active; 'I' for Inactive)
REMARK    1  A    between atoms: C_1  and  C_2
REMARK    2  A    between atoms: C_6  and  C_7
REMARK    3  A    between atoms: C_7  and  O_8
REMARK    4  A    between atoms: C_7  and  C_16
REMARK    5  A    between atoms: O_8  and  C_9
REMARK    6  A    between atoms: N_12  and  C_13
REMARK                            x       y       z     vdW  Elec       q    Type
REMARK                         _______ _______ _______ _____ _____    ______ ____
ROOT
ATOM      1  C   UNL     1       5.633   4.587  16.090  0.00  0.00    +0.000 C 
ENDROOT
BRANCH   1   7
ATOM      2  C   UNL     1       7.746   8.923  17.603  0.00  0.00    +0.000 C 
ATOM      3  C   UNL     1       7.542   7.451  17.807  0.00  0.00    +0.000 A 
ATOM      4  C   UNL     1       8.226   6.772  18.820  0.00  0.00    +0.000 A 
ATOM      5  C   UNL     1       8.077   5.397  18.969  0.00  0.00    +0.000 A 
ATOM      6  C   UNL     1       7.254   4.689  18.097  0.00  0.00    +0.000 A 
ATOM      7  C   UNL     1       6.531   5.342  17.081  0.00  0.00    +0.000 A 
ATOM      8  C   UNL     1       6.683   6.735  16.960  0.00  0.00    +0.000 A 
ENDBRANCH   1   7
BRANCH   1   9
ATOM      9  C   UNL     1       6.146   4.496  14.645  0.00  0.00    +0.000 A 
ATOM     10  C   UNL     1       7.316   5.169  14.251  0.00  0.00    +0.000 A 
ATOM     11  C   UNL     1       7.801   5.070  12.944  0.00  0.00    +0.000 A 
ATOM     12  C   UNL     1       7.151   4.263  12.017  0.00  0.00    +0.000 A 
ATOM     13  C   UNL     1       6.015   3.553  12.396  0.00  0.00    +0.000 A 
ATOM     14  C   UNL     1       5.523   3.662  13.698  0.00  0.00    +0.000 A 
ENDBRANCH   1   9
BRANCH   1  15
ATOM     15  O   UNL     1       5.072   3.353  16.600  0.00  0.00    +0.000 OA
BRANCH  15  16
ATOM     16  C   UNL     1       3.872   3.425  17.371  0.00  0.00    +0.000 C 
ATOM     17  C   UNL     1       3.348   4.848  17.530  0.00  0.00    +0.000 C 
ATOM     18  C   UNL     1       2.035   4.820  18.289  0.00  0.00    +0.000 C 
ATOM     19  N   UNL     1       2.244   4.294  19.640  0.00  0.00    +0.000 NA
ATOM     20  C   UNL     1       0.974   4.298  20.366  0.00  0.00    +0.000 C 
ATOM     21  C   UNL     1       2.845   2.949  19.627  0.00  0.00    +0.000 C 
ATOM     22  C   UNL     1       4.124   2.871  18.779  0.00  0.00    +0.000 C 
ENDBRANCH  15  16
ENDBRANCH   1  15
TORSDOF 4
ENDMDL
MODEL 9
REMARK VINA RESULT:      -8.2      0.780      4.650
REMARK  Name = 
REMARK  6 active torsions:
REMARK  status: ('A' for Active; 'I' for Inactive)
REMARK    1  A    between atoms: C_1  and  C_2
REMARK    2  A    between atoms: C_6  and  C_7
REMARK    3  A    between atoms: C_7  and  O_8
REMARK    4  A    between atoms: C_7  and  C_16
REMARK    5  A    between atoms: O_8  and  C_9
REMARK    6  A    between atoms: N_12  and  C_13
REMARK                            x       y       z     vdW  Elec       q    Type
REMARK                         _______ _______ _______ _____ _____    ______ ____
ROOT
ATOM      1  C   UNL     1       5.660   4.571  16.051  0.00  0.00    +0.000 C 
ENDROOT
BRANCH   1   7
ATOM      2  C   UNL     1       7.770   8.894  17.607  0.00  0.00    +0.000 C 
ATOM      3  C   UNL     1       7.559   7.421  17.803  0.00  0.00    +0.000 A 
ATOM      4  C   UNL     1       8.229   6.736  18.820  0.00  0.00    +0.000 A 
ATOM      5  C   UNL     1       8.074   5.361  18.962  0.00  0.00    +0.000 A 
ATOM      6  C   UNL     1       7.258   4.659  18.078  0.00  0.00    +0.000 A 
ATOM      7  C   UNL     1       6.550   5.319  17.056  0.00  0.00    +0.000 A 
ATOM      8  C   UNL     1       6.708   6.711  16.942  0.00  0.00    +0.000 A 
ENDBRANCH   1   7
BRANCH   1   9
ATOM      9  C   UNL     1       6.215   4.439  14.624  0.00  0.00    +0.000 A 
ATOM     10  C   UNL     1       5.568   3.634  13.670  0.00  0.00    +0.000 A 
ATOM     11  C   UNL     1       6.055   3.529  12.364  0.00  0.00    +0.000 A 
ATOM     12  C   UNL     1       7.171   4.260  11.974  0.00  0.00    +0.000 A 
ATOM     13  C   UNL     1       7.803   5.097  12.890  0.00  0.00    +0.000 A 
ATOM     14  C   UNL     1       7.325   5.191  14.199  0.00  0.00    +0.000 A 
ENDBRANCH   1   9
BRANCH   1  15
ATOM     15  O   UNL     1       5.049   3.363  16.566  0.00  0.00    +0.000 OA
BRANCH  15  16
ATOM     16  C   UNL     1       3.867   3.489  17.356  0.00  0.00    +0.000 C 
ATOM     17  C   UNL     1       3.429   4.937  17.551  0.00  0.00    +0.000 C 
ATOM     18  C   UNL     1       2.128   4.970  18.329  0.00  0.00    +0.000 C 
ATOM     19  N   UNL     1       2.326   4.406  19.667  0.00  0.00    +0.000 NA
ATOM     20  C   UNL     1       1.068   4.469  20.413  0.00  0.00    +0.000 C 
ATOM     21  C   UNL     1       2.846   3.029  19.619  0.00  0.00    +0.000 C 
ATOM     22  C   UNL     1       4.106   2.893  18.750  0.00  0.00    +0.000 C 
ENDBRANCH  15  16
ENDBRANCH   1  15
TORSDOF 4
ENDMDL
