MODEL 1
REMARK VINA RESULT:      -7.4      0.000      0.000
REMARK  Name = 
REMARK  7 active torsions:
REMARK  status: ('A' for Active; 'I' for Inactive)
REMARK    1  A    between atoms: C_1  and  C_2
REMARK    2  A    between atoms: C_7  and  N_8
REMARK    3  A    between atoms: C_12  and  S_13
REMARK    4  A    between atoms: S_13  and  C_14
REMARK    5  A    between atoms: C_14  and  C_15
REMARK    6  A    between atoms: N_17  and  C_18
REMARK    7  A    between atoms: C_18  and  C_19
REMARK                            x       y       z     vdW  Elec       q    Type
REMARK                         _______ _______ _______ _____ _____    ______ ____
ROOT
ATOM      1  N   UNL     1       0.917   9.929  20.030  0.00  0.00    +0.000 N 
ATOM      2  N   UNL     1       0.554   9.537  21.286  0.00  0.00    +0.000 NA
ATOM      3  C   UNL     1       0.955   8.270  21.375  0.00  0.00    +0.000 A 
ATOM      4  C   UNL     1       1.629   7.828  20.227  0.00  0.00    +0.000 A 
ATOM      5  C   UNL     1       2.276   6.679  19.782  0.00  0.00    +0.000 A 
ATOM      6  N   UNL     1       2.861   6.668  18.566  0.00  0.00    +0.000 NA
ATOM      7  C   UNL     1       2.785   7.793  17.829  0.00  0.00    +0.000 A 
ATOM      8  N   UNL     1       2.170   8.946  18.138  0.00  0.00    +0.000 NA
ATOM      9  C   UNL     1       1.596   8.910  19.361  0.00  0.00    +0.000 A 
ENDROOT
BRANCH   1  16
ATOM     10  C   UNL     1      -1.600  10.321  18.441  0.00  0.00    +0.000 C 
ATOM     11  C   UNL     1      -0.601  11.410  18.735  0.00  0.00    +0.000 A 
ATOM     12  C   UNL     1      -0.868  12.694  18.233  0.00  0.00    +0.000 A 
ATOM     13  C   UNL     1      -0.033  13.772  18.525  0.00  0.00    +0.000 A 
ATOM     14  C   UNL     1       1.085  13.586  19.330  0.00  0.00    +0.000 A 
ATOM     15  C   UNL     1       1.373  12.318  19.841  0.00  0.00    +0.000 A 
ATOM     16  C   UNL     1       0.549  11.219  19.539  0.00  0.00    +0.000 A 
ENDBRANCH   1  16
BRANCH   5  17
ATOM     17  S   UNL     1       2.284   5.238  20.801  0.00  0.00    +0.000 S 
BRANCH  17  18
ATOM     18  C   UNL     1       1.181   4.147  19.854  0.00  0.00    +0.000 C 
BRANCH  18  19
ATOM     19  C   UNL     1       1.862   3.620  18.603  0.00  0.00    +0.000 C 
ATOM     20  O   UNL     1       1.267   3.457  17.539  0.00  0.00    +0.000 OA
ATOM     21  N   UNL     1       3.204   3.343  18.749  0.00  0.00    +0.000 N 
ATOM     22  H   UNL     1       3.682   3.591  19.606  0.00  0.00    +0.000 HD
BRANCH  21  23
ATOM     23  C   UNL     1       3.999   2.893  17.631  0.00  0.00    +0.000 C 
BRANCH  23  24
ATOM     24  C   UNL     1       4.851   4.025  17.156  0.00  0.00    +0.000 A 
ATOM     25  C   UNL     1       4.815   4.658  15.928  0.00  0.00    +0.000 A 
ATOM     26  C   UNL     1       5.735   5.742  15.849  0.00  0.00    +0.000 A 
ATOM     27  C   UNL     1       6.455   5.892  17.013  0.00  0.00    +0.000 A 
ATOM     28  S   UNL     1       6.030   4.721  18.186  0.00  0.00    +0.000 S 
ENDBRANCH  23  24
ENDBRANCH  21  23
ENDBRANCH  18  19
ENDBRANCH  17  18
ENDBRANCH   5  17
TORSDOF 6
ENDMDL
MODEL 2
REMARK VINA RESULT:      -7.3      2.948      7.983
REMARK  Name = 
REMARK  7 active torsions:
REMARK  status: ('A' for Active; 'I' for Inactive)
REMARK    1  A    between atoms: C_1  and  C_2
REMARK    2  A    between atoms: C_7  and  N_8
REMARK    3  A    between atoms: C_12  and  S_13
REMARK    4  A    between atoms: S_13  and  C_14
REMARK    5  A    between atoms: C_14  and  C_15
REMARK    6  A    between atoms: N_17  and  C_18
REMARK    7  A    between atoms: C_18  and  C_19
REMARK                            x       y       z     vdW  Elec       q    Type
REMARK                         _______ _______ _______ _____ _____    ______ ____
ROOT
ATOM      1  N   UNL     1       3.929   5.516  18.531  0.00  0.00    +0.000 N 
ATOM      2  N   UNL     1       3.502   4.773  19.594  0.00  0.00    +0.000 NA
ATOM      3  C   UNL     1       2.636   5.559  20.231  0.00  0.00    +0.000 A 
ATOM      4  C   UNL     1       2.432   6.786  19.582  0.00  0.00    +0.000 A 
ATOM      5  C   UNL     1       1.654   7.929  19.745  0.00  0.00    +0.000 A 
ATOM      6  N   UNL     1       1.724   8.923  18.834  0.00  0.00    +0.000 NA
ATOM      7  C   UNL     1       2.563   8.754  17.794  0.00  0.00    +0.000 A 
ATOM      8  N   UNL     1       3.378   7.716  17.546  0.00  0.00    +0.000 NA
ATOM      9  C   UNL     1       3.278   6.749  18.484  0.00  0.00    +0.000 A 
ENDROOT
BRANCH   1  16
ATOM     10  C   UNL     1       6.812   5.592  19.365  0.00  0.00    +0.000 C 
ATOM     11  C   UNL     1       6.327   5.111  18.021  0.00  0.00    +0.000 A 
ATOM     12  C   UNL     1       7.289   4.666  17.100  0.00  0.00    +0.000 A 
ATOM     13  C   UNL     1       6.917   4.135  15.866  0.00  0.00    +0.000 A 
ATOM     14  C   UNL     1       5.572   4.034  15.532  0.00  0.00    +0.000 A 
ATOM     15  C   UNL     1       4.595   4.469  16.430  0.00  0.00    +0.000 A 
ATOM     16  C   UNL     1       4.958   5.024  17.671  0.00  0.00    +0.000 A 
ENDBRANCH   1  16
BRANCH   5  17
ATOM     17  S   UNL     1       0.618   8.078  21.166  0.00  0.00    +0.000 S 
BRANCH  17  18
ATOM     18  C   UNL     1       1.224   9.641  21.865  0.00  0.00    +0.000 C 
BRANCH  18  19
ATOM     19  C   UNL     1       0.381  10.819  21.408  0.00  0.00    +0.000 C 
ATOM     20  O   UNL     1       0.540  11.960  21.839  0.00  0.00    +0.000 OA
ATOM     21  N   UNL     1      -0.575  10.512  20.463  0.00  0.00    +0.000 N 
ATOM     22  H   UNL     1      -0.604   9.587  20.054  0.00  0.00    +0.000 HD
BRANCH  21  23
ATOM     23  C   UNL     1      -1.411  11.539  19.888  0.00  0.00    +0.000 C 
BRANCH  23  24
ATOM     24  C   UNL     1      -2.003  11.025  18.616  0.00  0.00    +0.000 A 
ATOM     25  C   UNL     1      -1.434  10.155  17.705  0.00  0.00    +0.000 A 
ATOM     26  C   UNL     1      -2.318   9.834  16.636  0.00  0.00    +0.000 A 
ATOM     27  C   UNL     1      -3.527  10.482  16.754  0.00  0.00    +0.000 A 
ATOM     28  S   UNL     1      -3.586  11.480  18.143  0.00  0.00    +0.000 S 
ENDBRANCH  23  24
ENDBRANCH  21  23
ENDBRANCH  18  19
ENDBRANCH  17  18
ENDBRANCH   5  17
TORSDOF 6
ENDMDL
MODEL 3
REMARK VINA RESULT:      -7.2      1.425      1.833
REMARK  Name = 
REMARK  7 active torsions:
REMARK  status: ('A' for Active; 'I' for Inactive)
REMARK    1  A    between atoms: C_1  and  C_2
REMARK    2  A    between atoms: C_7  and  N_8
REMARK    3  A    between atoms: C_12  and  S_13
REMARK    4  A    between atoms: S_13  and  C_14
REMARK    5  A    between atoms: C_14  and  C_15
REMARK    6  A    between atoms: N_17  and  C_18
REMARK    7  A    between atoms: C_18  and  C_19
REMARK                            x       y       z     vdW  Elec       q    Type
REMARK                         _______ _______ _______ _____ _____    ______ ____
ROOT
ATOM      1  N   UNL     1       0.861   9.785  20.051  0.00  0.00    +0.000 N 
ATOM      2  N   UNL     1       0.508   9.351  21.297  0.00  0.00    +0.000 NA
ATOM      3  C   UNL     1       0.939   8.092  21.352  0.00  0.00    +0.000 A 
ATOM      4  C   UNL     1       1.625   7.698  20.193  0.00  0.00    +0.000 A 
ATOM      5  C   UNL     1       2.299   6.577  19.717  0.00  0.00    +0.000 A 
ATOM      6  N   UNL     1       2.885   6.613  18.502  0.00  0.00    +0.000 NA
ATOM      7  C   UNL     1       2.782   7.756  17.796  0.00  0.00    +0.000 A 
ATOM      8  N   UNL     1       2.138   8.884  18.135  0.00  0.00    +0.000 NA
ATOM      9  C   UNL     1       1.565   8.802  19.356  0.00  0.00    +0.000 A 
ENDROOT
BRANCH   1  16
ATOM     10  C   UNL     1      -1.613  10.146  18.389  0.00  0.00    +0.000 C 
ATOM     11  C   UNL     1      -0.666  11.258  18.758  0.00  0.00    +0.000 A 
ATOM     12  C   UNL     1      -0.964  12.550  18.295  0.00  0.00    +0.000 A 
ATOM     13  C   UNL     1      -0.181  13.645  18.655  0.00  0.00    +0.000 A 
ATOM     14  C   UNL     1       0.915  13.470  19.492  0.00  0.00    +0.000 A 
ATOM     15  C   UNL     1       1.233  12.195  19.967  0.00  0.00    +0.000 A 
ATOM     16  C   UNL     1       0.462  11.079  19.596  0.00  0.00    +0.000 A 
ENDBRANCH   1  16
BRANCH   5  17
ATOM     17  S   UNL     1       2.342   5.110  20.697  0.00  0.00    +0.000 S 
BRANCH  17  18
ATOM     18  C   UNL     1       2.677   3.860  19.421  0.00  0.00    +0.000 C 
BRANCH  18  19
ATOM     19  C   UNL     1       4.168   3.639  19.239  0.00  0.00    +0.000 C 
ATOM     20  O   UNL     1       4.817   2.860  19.935  0.00  0.00    +0.000 OA
ATOM     21  N   UNL     1       4.742   4.374  18.224  0.00  0.00    +0.000 N 
ATOM     22  H   UNL     1       4.159   4.921  17.603  0.00  0.00    +0.000 HD
BRANCH  21  23
ATOM     23  C   UNL     1       6.138   4.224  17.890  0.00  0.00    +0.000 C 
BRANCH  23  24
ATOM     24  C   UNL     1       6.799   5.561  17.958  0.00  0.00    +0.000 A 
ATOM     25  C   UNL     1       7.835   5.956  18.783  0.00  0.00    +0.000 A 
ATOM     26  C   UNL     1       8.254   7.293  18.526  0.00  0.00    +0.000 A 
ATOM     27  C   UNL     1       7.515   7.882  17.526  0.00  0.00    +0.000 A 
ATOM     28  S   UNL     1       6.314   6.828  16.911  0.00  0.00    +0.000 S 
ENDBRANCH  23  24
ENDBRANCH  21  23
ENDBRANCH  18  19
ENDBRANCH  17  18
ENDBRANCH   5  17
TORSDOF 6
ENDMDL
MODEL 4
REMARK VINA RESULT:      -6.9      2.992      7.956
REMARK  Name = 
REMARK  7 active torsions:
REMARK  status: ('A' for Active; 'I' for Inactive)
REMARK    1  A    between atoms: C_1  and  C_2
REMARK    2  A    between atoms: C_7  and  N_8
REMARK    3  A    between atoms: C_12  and  S_13
REMARK    4  A    between atoms: S_13  and  C_14
REMARK    5  A    between atoms: C_14  and  C_15
REMARK    6  A    between atoms: N_17  and  C_18
REMARK    7  A    between atoms: C_18  and  C_19
REMARK                            x       y       z     vdW  Elec       q    Type
REMARK                         _______ _______ _______ _____ _____    ______ ____
ROOT
ATOM      1  N   UNL     1       3.610   5.963  18.609  0.00  0.00    +0.000 N 
ATOM      2  N   UNL     1       3.313   5.274  19.750  0.00  0.00    +0.000 NA
ATOM      3  C   UNL     1       2.487   6.072  20.423  0.00  0.00    +0.000 A 
ATOM      4  C   UNL     1       2.180   7.252  19.729  0.00  0.00    +0.000 A 
ATOM      5  C   UNL     1       1.384   8.381  19.902  0.00  0.00    +0.000 A 
ATOM      6  N   UNL     1       1.333   9.320  18.934  0.00  0.00    +0.000 NA
ATOM      7  C   UNL     1       2.072   9.113  17.827  0.00  0.00    +0.000 A 
ATOM      8  N   UNL     1       2.894   8.085  17.560  0.00  0.00    +0.000 NA
ATOM      9  C   UNL     1       2.917   7.173  18.557  0.00  0.00    +0.000 A 
ENDROOT
BRANCH   1  16
ATOM     10  C   UNL     1       3.036   3.495  16.999  0.00  0.00    +0.000 C 
ATOM     11  C   UNL     1       4.339   4.252  16.962  0.00  0.00    +0.000 A 
ATOM     12  C   UNL     1       5.350   3.770  16.114  0.00  0.00    +0.000 A 
ATOM     13  C   UNL     1       6.554   4.455  15.965  0.00  0.00    +0.000 A 
ATOM     14  C   UNL     1       6.769   5.640  16.658  0.00  0.00    +0.000 A 
ATOM     15  C   UNL     1       5.780   6.141  17.507  0.00  0.00    +0.000 A 
ATOM     16  C   UNL     1       4.567   5.450  17.682  0.00  0.00    +0.000 A 
ENDBRANCH   1  16
BRANCH   5  17
ATOM     17  S   UNL     1       0.485   8.586  21.407  0.00  0.00    +0.000 S 
BRANCH  17  18
ATOM     18  C   UNL     1       0.733  10.360  21.711  0.00  0.00    +0.000 C 
BRANCH  18  19
ATOM     19  C   UNL     1      -0.432  11.181  21.187  0.00  0.00    +0.000 C 
ATOM     20  O   UNL     1      -1.417  11.454  21.871  0.00  0.00    +0.000 OA
ATOM     21  N   UNL     1      -0.299  11.607  19.883  0.00  0.00    +0.000 N 
ATOM     22  H   UNL     1       0.571  11.455  19.387  0.00  0.00    +0.000 HD
BRANCH  21  23
ATOM     23  C   UNL     1      -1.297  12.448  19.266  0.00  0.00    +0.000 C 
BRANCH  23  24
ATOM     24  C   UNL     1      -2.251  11.589  18.504  0.00  0.00    +0.000 A 
ATOM     25  C   UNL     1      -1.957  10.536  17.659  0.00  0.00    +0.000 A 
ATOM     26  C   UNL     1      -3.128   9.902  17.152  0.00  0.00    +0.000 A 
ATOM     27  C   UNL     1      -4.278  10.503  17.613  0.00  0.00    +0.000 A 
ATOM     28  S   UNL     1      -3.942  11.830  18.639  0.00  0.00    +0.000 S 
ENDBRANCH  23  24
ENDBRANCH  21  23
ENDBRANCH  18  19
ENDBRANCH  17  18
ENDBRANCH   5  17
TORSDOF 6
ENDMDL
MODEL 5
REMARK VINA RESULT:      -6.8      4.135      9.181
REMARK  Name = 
REMARK  7 active torsions:
REMARK  status: ('A' for Active; 'I' for Inactive)
REMARK    1  A    between atoms: C_1  and  C_2
REMARK    2  A    between atoms: C_7  and  N_8
REMARK    3  A    between atoms: C_12  and  S_13
REMARK    4  A    between atoms: S_13  and  C_14
REMARK    5  A    between atoms: C_14  and  C_15
REMARK    6  A    between atoms: N_17  and  C_18
REMARK    7  A    between atoms: C_18  and  C_19
REMARK                            x       y       z     vdW  Elec       q    Type
REMARK                         _______ _______ _______ _____ _____    ______ ____
ROOT
ATOM      1  N   UNL     1       3.575   6.010  18.615  0.00  0.00    +0.000 N 
ATOM      2  N   UNL     1       3.289   5.331  19.765  0.00  0.00    +0.000 NA
ATOM      3  C   UNL     1       2.484   6.144  20.446  0.00  0.00    +0.000 A 
ATOM      4  C   UNL     1       2.180   7.323  19.749  0.00  0.00    +0.000 A 
ATOM      5  C   UNL     1       1.400   8.463  19.929  0.00  0.00    +0.000 A 
ATOM      6  N   UNL     1       1.344   9.396  18.954  0.00  0.00    +0.000 NA
ATOM      7  C   UNL     1       2.062   9.172  17.837  0.00  0.00    +0.000 A 
ATOM      8  N   UNL     1       2.866   8.132  17.563  0.00  0.00    +0.000 NA
ATOM      9  C   UNL     1       2.895   7.227  18.566  0.00  0.00    +0.000 A 
ENDROOT
BRANCH   1  16
ATOM     10  C   UNL     1       2.954   3.522  17.053  0.00  0.00    +0.000 C 
ATOM     11  C   UNL     1       4.260   4.271  16.977  0.00  0.00    +0.000 A 
ATOM     12  C   UNL     1       5.250   3.773  16.115  0.00  0.00    +0.000 A 
ATOM     13  C   UNL     1       6.455   4.449  15.931  0.00  0.00    +0.000 A 
ATOM     14  C   UNL     1       6.690   5.643  16.603  0.00  0.00    +0.000 A 
ATOM     15  C   UNL     1       5.721   6.160  17.465  0.00  0.00    +0.000 A 
ATOM     16  C   UNL     1       4.509   5.478  17.675  0.00  0.00    +0.000 A 
ENDBRANCH   1  16
BRANCH   5  17
ATOM     17  S   UNL     1       0.530   8.689  21.447  0.00  0.00    +0.000 S 
BRANCH  17  18
ATOM     18  C   UNL     1      -0.432  10.183  21.067  0.00  0.00    +0.000 C 
BRANCH  18  19
ATOM     19  C   UNL     1      -0.860  10.905  22.332  0.00  0.00    +0.000 C 
ATOM     20  O   UNL     1      -0.693  10.435  23.457  0.00  0.00    +0.000 OA
ATOM     21  N   UNL     1      -1.446  12.135  22.125  0.00  0.00    +0.000 N 
ATOM     22  H   UNL     1      -1.468  12.536  21.196  0.00  0.00    +0.000 HD
BRANCH  21  23
ATOM     23  C   UNL     1      -1.848  12.967  23.235  0.00  0.00    +0.000 C 
BRANCH  23  24
ATOM     24  C   UNL     1      -3.333  12.893  23.382  0.00  0.00    +0.000 A 
ATOM     25  C   UNL     1      -4.059  12.525  24.499  0.00  0.00    +0.000 A 
ATOM     26  C   UNL     1      -5.464  12.633  24.293  0.00  0.00    +0.000 A 
ATOM     27  C   UNL     1      -5.766  13.063  23.020  0.00  0.00    +0.000 A 
ATOM     28  S   UNL     1      -4.361  13.322  22.079  0.00  0.00    +0.000 S 
ENDBRANCH  23  24
ENDBRANCH  21  23
ENDBRANCH  18  19
ENDBRANCH  17  18
ENDBRANCH   5  17
TORSDOF 6
ENDMDL
MODEL 6
REMARK VINA RESULT:      -6.8      3.937      9.043
REMARK  Name = 
REMARK  7 active torsions:
REMARK  status: ('A' for Active; 'I' for Inactive)
REMARK    1  A    between atoms: C_1  and  C_2
REMARK    2  A    between atoms: C_7  and  N_8
REMARK    3  A    between atoms: C_12  and  S_13
REMARK    4  A    between atoms: S_13  and  C_14
REMARK    5  A    between atoms: C_14  and  C_15
REMARK    6  A    between atoms: N_17  and  C_18
REMARK    7  A    between atoms: C_18  and  C_19
REMARK                            x       y       z     vdW  Elec       q    Type
REMARK                         _______ _______ _______ _____ _____    ______ ____
ROOT
ATOM      1  N   UNL     1       2.840   6.998  18.596  0.00  0.00    +0.000 N 
ATOM      2  N   UNL     1       3.067   7.729  17.466  0.00  0.00    +0.000 NA
ATOM      3  C   UNL     1       2.353   8.841  17.632  0.00  0.00    +0.000 A 
ATOM      4  C   UNL     1       1.703   8.892  18.874  0.00  0.00    +0.000 A 
ATOM      5  C   UNL     1       0.895   9.774  19.587  0.00  0.00    +0.000 A 
ATOM      6  N   UNL     1       0.488   9.452  20.833  0.00  0.00    +0.000 NA
ATOM      7  C   UNL     1       0.891   8.268  21.332  0.00  0.00    +0.000 A 
ATOM      8  N   UNL     1       1.642   7.329  20.734  0.00  0.00    +0.000 NA
ATOM      9  C   UNL     1       2.023   7.691  19.489  0.00  0.00    +0.000 A 
ENDROOT
BRANCH   1  16
ATOM     10  C   UNL     1       1.292   4.607  17.646  0.00  0.00    +0.000 C 
ATOM     11  C   UNL     1       2.628   4.535  18.340  0.00  0.00    +0.000 A 
ATOM     12  C   UNL     1       3.187   3.264  18.552  0.00  0.00    +0.000 A 
ATOM     13  C   UNL     1       4.452   3.116  19.117  0.00  0.00    +0.000 A 
ATOM     14  C   UNL     1       5.187   4.240  19.476  0.00  0.00    +0.000 A 
ATOM     15  C   UNL     1       4.655   5.515  19.275  0.00  0.00    +0.000 A 
ATOM     16  C   UNL     1       3.371   5.678  18.723  0.00  0.00    +0.000 A 
ENDBRANCH   1  16
BRANCH   5  17
ATOM     17  S   UNL     1       0.382  11.284  18.831  0.00  0.00    +0.000 S 
BRANCH  17  18
ATOM     18  C   UNL     1      -1.160  11.608  19.735  0.00  0.00    +0.000 C 
BRANCH  18  19
ATOM     19  C   UNL     1      -2.379  11.293  18.886  0.00  0.00    +0.000 C 
ATOM     20  O   UNL     1      -2.457  10.290  18.178  0.00  0.00    +0.000 OA
ATOM     21  N   UNL     1      -3.399  12.215  18.973  0.00  0.00    +0.000 N 
ATOM     22  H   UNL     1      -3.343  12.969  19.646  0.00  0.00    +0.000 HD
BRANCH  21  23
ATOM     23  C   UNL     1      -4.646  12.019  18.272  0.00  0.00    +0.000 C 
BRANCH  23  24
ATOM     24  C   UNL     1      -5.710  11.677  19.262  0.00  0.00    +0.000 A 
ATOM     25  C   UNL     1      -6.059  12.368  20.407  0.00  0.00    +0.000 A 
ATOM     26  C   UNL     1      -7.168  11.780  21.079  0.00  0.00    +0.000 A 
ATOM     27  C   UNL     1      -7.619  10.649  20.437  0.00  0.00    +0.000 A 
ATOM     28  S   UNL     1      -6.700  10.296  19.038  0.00  0.00    +0.000 S 
ENDBRANCH  23  24
ENDBRANCH  21  23
ENDBRANCH  18  19
ENDBRANCH  17  18
ENDBRANCH   5  17
TORSDOF 6
ENDMDL
MODEL 7
REMARK VINA RESULT:      -6.8      1.987      3.711
REMARK  Name = 
REMARK  7 active torsions:
REMARK  status: ('A' for Active; 'I' for Inactive)
REMARK    1  A    between atoms: C_1  and  C_2
REMARK    2  A    between atoms: C_7  and  N_8
REMARK    3  A    between atoms: C_12  and  S_13
REMARK    4  A    between atoms: S_13  and  C_14
REMARK    5  A    between atoms: C_14  and  C_15
REMARK    6  A    between atoms: N_17  and  C_18
REMARK    7  A    between atoms: C_18  and  C_19
REMARK                            x       y       z     vdW  Elec       q    Type
REMARK                         _______ _______ _______ _____ _____    ______ ____
ROOT
ATOM      1  N   UNL     1       1.379   9.459  18.868  0.00  0.00    +0.000 N 
ATOM      2  N   UNL     1       1.868   9.997  17.712  0.00  0.00    +0.000 NA
ATOM      3  C   UNL     1       2.778   9.122  17.290  0.00  0.00    +0.000 A 
ATOM      4  C   UNL     1       2.864   7.985  18.107  0.00  0.00    +0.000 A 
ATOM      5  C   UNL     1       3.565   6.782  18.141  0.00  0.00    +0.000 A 
ATOM      6  N   UNL     1       3.318   5.891  19.125  0.00  0.00    +0.000 NA
ATOM      7  C   UNL     1       2.389   6.220  20.043  0.00  0.00    +0.000 A 
ATOM      8  N   UNL     1       1.674   7.353  20.130  0.00  0.00    +0.000 NA
ATOM      9  C   UNL     1       1.955   8.216  19.129  0.00  0.00    +0.000 A 
ENDROOT
BRANCH   1  16
ATOM     10  C   UNL     1      -1.352  10.134  17.819  0.00  0.00    +0.000 C 
ATOM     11  C   UNL     1      -0.825  10.568  19.163  0.00  0.00    +0.000 A 
ATOM     12  C   UNL     1      -1.671  11.336  19.979  0.00  0.00    +0.000 A 
ATOM     13  C   UNL     1      -1.288  11.713  21.265  0.00  0.00    +0.000 A 
ATOM     14  C   UNL     1      -0.051  11.321  21.762  0.00  0.00    +0.000 A 
ATOM     15  C   UNL     1       0.809  10.556  20.972  0.00  0.00    +0.000 A 
ATOM     16  C   UNL     1       0.442  10.186  19.665  0.00  0.00    +0.000 A 
ENDBRANCH   1  16
BRANCH   5  17
ATOM     17  S   UNL     1       4.796   6.460  16.919  0.00  0.00    +0.000 S 
BRANCH  17  18
ATOM     18  C   UNL     1       5.825   5.241  17.788  0.00  0.00    +0.000 C 
BRANCH  18  19
ATOM     19  C   UNL     1       5.086   3.929  17.984  0.00  0.00    +0.000 C 
ATOM     20  O   UNL     1       4.535   3.330  17.062  0.00  0.00    +0.000 OA
ATOM     21  N   UNL     1       5.086   3.453  19.278  0.00  0.00    +0.000 N 
ATOM     22  H   UNL     1       5.641   3.916  19.987  0.00  0.00    +0.000 HD
BRANCH  21  23
ATOM     23  C   UNL     1       4.477   2.187  19.608  0.00  0.00    +0.000 C 
BRANCH  23  24
ATOM     24  C   UNL     1       3.088   2.431  20.099  0.00  0.00    +0.000 A 
ATOM     25  C   UNL     1       2.679   2.698  21.392  0.00  0.00    +0.000 A 
ATOM     26  C   UNL     1       1.278   2.940  21.479  0.00  0.00    +0.000 A 
ATOM     27  C   UNL     1       0.660   2.834  20.253  0.00  0.00    +0.000 A 
ATOM     28  S   UNL     1       1.765   2.431  19.010  0.00  0.00    +0.000 S 
ENDBRANCH  23  24
ENDBRANCH  21  23
ENDBRANCH  18  19
ENDBRANCH  17  18
ENDBRANCH   5  17
TORSDOF 6
ENDMDL
MODEL 8
REMARK VINA RESULT:      -6.8      3.832      8.923
REMARK  Name = 
REMARK  7 active torsions:
REMARK  status: ('A' for Active; 'I' for Inactive)
REMARK    1  A    between atoms: C_1  and  C_2
REMARK    2  A    between atoms: C_7  and  N_8
REMARK    3  A    between atoms: C_12  and  S_13
REMARK    4  A    between atoms: S_13  and  C_14
REMARK    5  A    between atoms: C_14  and  C_15
REMARK    6  A    between atoms: N_17  and  C_18
REMARK    7  A    between atoms: C_18  and  C_19
REMARK                            x       y       z     vdW  Elec       q    Type
REMARK                         _______ _______ _______ _____ _____    ______ ____
ROOT
ATOM      1  N   UNL     1       2.202   6.884  19.359  0.00  0.00    +0.000 N 
ATOM      2  N   UNL     1       2.421   7.232  18.057  0.00  0.00    +0.000 NA
ATOM      3  C   UNL     1       1.973   8.482  17.960  0.00  0.00    +0.000 A 
ATOM      4  C   UNL     1       1.515   8.995  19.183  0.00  0.00    +0.000 A 
ATOM      5  C   UNL     1       1.002  10.190  19.680  0.00  0.00    +0.000 A 
ATOM      6  N   UNL     1       0.705  10.298  20.992  0.00  0.00    +0.000 NA
ATOM      7  C   UNL     1       0.923   9.219  21.769  0.00  0.00    +0.000 A 
ATOM      8  N   UNL     1       1.385   8.013  21.402  0.00  0.00    +0.000 NA
ATOM      9  C   UNL     1       1.665   7.950  20.081  0.00  0.00    +0.000 A 
ENDROOT
BRANCH   1  16
ATOM     10  C   UNL     1       4.911   5.642  18.997  0.00  0.00    +0.000 C 
ATOM     11  C   UNL     1       3.720   4.931  19.588  0.00  0.00    +0.000 A 
ATOM     12  C   UNL     1       3.893   3.599  19.999  0.00  0.00    +0.000 A 
ATOM     13  C   UNL     1       2.863   2.897  20.623  0.00  0.00    +0.000 A 
ATOM     14  C   UNL     1       1.641   3.517  20.855  0.00  0.00    +0.000 A 
ATOM     15  C   UNL     1       1.444   4.841  20.456  0.00  0.00    +0.000 A 
ATOM     16  C   UNL     1       2.468   5.555  19.808  0.00  0.00    +0.000 A 
ENDBRANCH   1  16
BRANCH   5  17
ATOM     17  S   UNL     1       0.708  11.534  18.574  0.00  0.00    +0.000 S 
BRANCH  17  18
ATOM     18  C   UNL     1      -0.990  11.988  19.036  0.00  0.00    +0.000 C 
BRANCH  18  19
ATOM     19  C   UNL     1      -2.012  11.186  18.249  0.00  0.00    +0.000 C 
ATOM     20  O   UNL     1      -2.061   9.958  18.278  0.00  0.00    +0.000 OA
ATOM     21  N   UNL     1      -2.889  11.943  17.503  0.00  0.00    +0.000 N 
ATOM     22  H   UNL     1      -2.887  12.952  17.589  0.00  0.00    +0.000 HD
BRANCH  21  23
ATOM     23  C   UNL     1      -3.956  11.325  16.751  0.00  0.00    +0.000 C 
BRANCH  23  24
ATOM     24  C   UNL     1      -5.265  11.745  17.334  0.00  0.00    +0.000 A 
ATOM     25  C   UNL     1      -6.075  12.793  16.937  0.00  0.00    +0.000 A 
ATOM     26  C   UNL     1      -7.285  12.857  17.685  0.00  0.00    +0.000 A 
ATOM     27  C   UNL     1      -7.354  11.869  18.640  0.00  0.00    +0.000 A 
ATOM     28  S   UNL     1      -5.959  10.878  18.639  0.00  0.00    +0.000 S 
ENDBRANCH  23  24
ENDBRANCH  21  23
ENDBRANCH  18  19
ENDBRANCH  17  18
ENDBRANCH   5  17
TORSDOF 6
ENDMDL
MODEL 9
REMARK VINA RESULT:      -6.7      5.423      8.904
REMARK  Name = 
REMARK  7 active torsions:
REMARK  status: ('A' for Active; 'I' for Inactive)
REMARK    1  A    between atoms: C_1  and  C_2
REMARK    2  A    between atoms: C_7  and  N_8
REMARK    3  A    between atoms: C_12  and  S_13
REMARK    4  A    between atoms: S_13  and  C_14
REMARK    5  A    between atoms: C_14  and  C_15
REMARK    6  A    between atoms: N_17  and  C_18
REMARK    7  A    between atoms: C_18  and  C_19
REMARK                            x       y       z     vdW  Elec       q    Type
REMARK                         _______ _______ _______ _____ _____    ______ ____
ROOT
ATOM      1  N   UNL     1       4.373   5.301  17.840  0.00  0.00    +0.000 N 
ATOM      2  N   UNL     1       4.061   6.241  16.899  0.00  0.00    +0.000 NA
ATOM      3  C   UNL     1       5.100   7.074  16.895  0.00  0.00    +0.000 A 
ATOM      4  C   UNL     1       6.122   6.677  17.770  0.00  0.00    +0.000 A 
ATOM      5  C   UNL     1       7.394   7.105  18.141  0.00  0.00    +0.000 A 
ATOM      6  N   UNL     1       8.108   6.388  19.035  0.00  0.00    +0.000 NA
ATOM      7  C   UNL     1       7.539   5.273  19.533  0.00  0.00    +0.000 A 
ATOM      8  N   UNL     1       6.318   4.778  19.274  0.00  0.00    +0.000 NA
ATOM      9  C   UNL     1       5.639   5.530  18.380  0.00  0.00    +0.000 A 
ENDROOT
BRANCH   1  16
ATOM     10  C   UNL     1       2.303   5.787  19.960  0.00  0.00    +0.000 C 
ATOM     11  C   UNL     1       2.488   4.479  19.234  0.00  0.00    +0.000 A 
ATOM     12  C   UNL     1       1.631   3.419  19.572  0.00  0.00    +0.000 A 
ATOM     13  C   UNL     1       1.686   2.202  18.894  0.00  0.00    +0.000 A 
ATOM     14  C   UNL     1       2.597   2.024  17.860  0.00  0.00    +0.000 A 
ATOM     15  C   UNL     1       3.460   3.063  17.505  0.00  0.00    +0.000 A 
ATOM     16  C   UNL     1       3.428   4.290  18.193  0.00  0.00    +0.000 A 
ENDBRANCH   1  16
BRANCH   5  17
ATOM     17  S   UNL     1       8.037   8.604  17.467  0.00  0.00    +0.000 S 
BRANCH  17  18
ATOM     18  C   UNL     1       8.853   9.310  18.929  0.00  0.00    +0.000 C 
BRANCH  18  19
ATOM     19  C   UNL     1       9.281  10.747  18.685  0.00  0.00    +0.000 C 
ATOM     20  O   UNL     1       8.826  11.433  17.772  0.00  0.00    +0.000 OA
ATOM     21  N   UNL     1      10.217  11.229  19.575  0.00  0.00    +0.000 N 
ATOM     22  H   UNL     1      10.487  10.673  20.377  0.00  0.00    +0.000 HD
BRANCH  21  23
ATOM     23  C   UNL     1      10.675  12.596  19.509  0.00  0.00    +0.000 C 
BRANCH  23  24
ATOM     24  C   UNL     1       9.805  13.441  20.380  0.00  0.00    +0.000 A 
ATOM     25  C   UNL     1       9.683  13.398  21.756  0.00  0.00    +0.000 A 
ATOM     26  C   UNL     1       8.801  14.400  22.255  0.00  0.00    +0.000 A 
ATOM     27  C   UNL     1       8.265  15.164  21.243  0.00  0.00    +0.000 A 
ATOM     28  S   UNL     1       8.815  14.664  19.701  0.00  0.00    +0.000 S 
ENDBRANCH  23  24
ENDBRANCH  21  23
ENDBRANCH  18  19
ENDBRANCH  17  18
ENDBRANCH   5  17
TORSDOF 6
ENDMDL
