MODEL 1
REMARK VINA RESULT:      -8.1      0.000      0.000
REMARK  Name = 
REMARK  6 active torsions:
REMARK  status: ('A' for Active; 'I' for Inactive)
REMARK    1  A    between atoms: C_1  and  C_2
REMARK    2  A    between atoms: C_2  and  N_3
REMARK    3  A    between atoms: C_4  and  C_6
REMARK    4  A    between atoms: C_8  and  N_9
REMARK    5  A    between atoms: C_22  and  O_23
REMARK    6  A    between atoms: C_24  and  O_25
REMARK                            x       y       z     vdW  Elec       q    Type
REMARK                         _______ _______ _______ _____ _____    ______ ____
ROOT
ATOM      1  N   UNL     1       2.987   6.777  18.832  0.00  0.00    +0.000 N 
ATOM      2  C   UNL     1       3.209   7.352  17.608  0.00  0.00    +0.000 A 
ATOM      3  N   UNL     1       2.576   8.500  17.478  0.00  0.00    +0.000 NA
ATOM      4  C   UNL     1       1.896   8.668  18.669  0.00  0.00    +0.000 A 
ATOM      5  C   UNL     1       1.041   9.679  19.152  0.00  0.00    +0.000 A 
ATOM      6  N   UNL     1       0.732  10.818  18.396  0.00  0.00    +0.000 N 
ATOM      7  C   UNL     1      -0.025  11.860  18.809  0.00  0.00    +0.000 C 
ATOM      8  N   UNL     1      -0.641  12.005  19.932  0.00  0.00    +0.000 NA
ATOM      9  N   UNL     1      -0.150  12.856  17.906  0.00  0.00    +0.000 N 
ATOM     10  N   UNL     1       0.509   9.511  20.399  0.00  0.00    +0.000 NA
ATOM     11  C   UNL     1       0.831   8.414  21.110  0.00  0.00    +0.000 A 
ATOM     12  N   UNL     1       1.646   7.409  20.754  0.00  0.00    +0.000 NA
ATOM     13  C   UNL     1       2.137   7.596  19.521  0.00  0.00    +0.000 A 
ATOM     14  H   UNL     1       1.280  10.917  17.552  0.00  0.00    +0.000 HD
ATOM     15  H   UNL     1      -0.435  11.156  20.485  0.00  0.00    +0.000 HD
ATOM     16  H   UNL     1      -0.415  12.543  16.983  0.00  0.00    +0.000 HD
ATOM     17  H   UNL     1      -0.844  13.511  18.263  0.00  0.00    +0.000 HD
ENDROOT
BRANCH   1  20
ATOM     18  C   UNL     1       5.623   4.466  19.111  0.00  0.00    +0.000 C 
ATOM     19  O   UNL     1       4.996   5.720  19.441  0.00  0.00    +0.000 OA
ATOM     20  C   UNL     1       3.563   5.551  19.344  0.00  0.00    +0.000 C 
ATOM     21  C   UNL     1       3.321   4.317  18.478  0.00  0.00    +0.000 C 
ATOM     22  C   UNL     1       4.515   3.446  18.842  0.00  0.00    +0.000 C 
BRANCH  18  24
ATOM     23  N   UNL     1       5.938   4.817  16.700  0.00  0.00    +0.000 N 
ATOM     24  C   UNL     1       6.565   4.567  17.904  0.00  0.00    +0.000 C 
ATOM     25  O   UNL     1       7.781   4.435  18.013  0.00  0.00    +0.000 OA
ATOM     26  H   UNL     1       5.003   5.213  16.747  0.00  0.00    +0.000 HD
BRANCH  23  28
ATOM     27  C   UNL     1       6.311   4.052  14.388  0.00  0.00    +0.000 C 
ATOM     28  C   UNL     1       6.726   4.996  15.498  0.00  0.00    +0.000 C 
ENDBRANCH  23  28
ENDBRANCH  18  24
BRANCH  21  29
ATOM     29  O   UNL     1       2.089   3.660  18.768  0.00  0.00    +0.000 OA
ATOM     30  H   UNL     1       2.032   3.594  19.745  0.00  0.00    +0.000 HD
ENDBRANCH  21  29
BRANCH  22  31
ATOM     31  O   UNL     1       4.167   2.673  20.007  0.00  0.00    +0.000 OA
ATOM     32  H   UNL     1       4.868   2.749  20.679  0.00  0.00    +0.000 HD
ENDBRANCH  22  31
ENDBRANCH   1  20
TORSDOF 5
ENDMDL
MODEL 2
REMARK VINA RESULT:      -7.9      1.314      1.439
REMARK  Name = 
REMARK  6 active torsions:
REMARK  status: ('A' for Active; 'I' for Inactive)
REMARK    1  A    between atoms: C_1  and  C_2
REMARK    2  A    between atoms: C_2  and  N_3
REMARK    3  A    between atoms: C_4  and  C_6
REMARK    4  A    between atoms: C_8  and  N_9
REMARK    5  A    between atoms: C_22  and  O_23
REMARK    6  A    between atoms: C_24  and  O_25
REMARK                            x       y       z     vdW  Elec       q    Type
REMARK                         _______ _______ _______ _____ _____    ______ ____
ROOT
ATOM      1  N   UNL     1       2.434   7.324  19.057  0.00  0.00    +0.000 N 
ATOM      2  C   UNL     1       2.711   7.855  17.824  0.00  0.00    +0.000 A 
ATOM      3  N   UNL     1       2.095   9.003  17.630  0.00  0.00    +0.000 NA
ATOM      4  C   UNL     1       1.369   9.216  18.786  0.00  0.00    +0.000 A 
ATOM      5  C   UNL     1       0.504  10.250  19.198  0.00  0.00    +0.000 A 
ATOM      6  N   UNL     1       0.238  11.365  18.392  0.00  0.00    +0.000 N 
ATOM      7  C   UNL     1      -0.526  12.427  18.738  0.00  0.00    +0.000 C 
ATOM      8  N   UNL     1      -1.186  12.615  19.829  0.00  0.00    +0.000 NA
ATOM      9  N   UNL     1      -0.603  13.393  17.797  0.00  0.00    +0.000 N 
ATOM     10  N   UNL     1      -0.080  10.130  20.427  0.00  0.00    +0.000 NA
ATOM     11  C   UNL     1       0.201   9.054  21.187  0.00  0.00    +0.000 A 
ATOM     12  N   UNL     1       1.020   8.031  20.899  0.00  0.00    +0.000 NA
ATOM     13  C   UNL     1       1.564   8.172  19.683  0.00  0.00    +0.000 A 
ATOM     14  H   UNL     1       0.821  11.431  17.569  0.00  0.00    +0.000 HD
ATOM     15  H   UNL     1      -1.011  11.784  20.418  0.00  0.00    +0.000 HD
ATOM     16  H   UNL     1      -0.833  13.050  16.875  0.00  0.00    +0.000 HD
ATOM     17  H   UNL     1      -1.306  14.065  18.103  0.00  0.00    +0.000 HD
ENDROOT
BRANCH   1  20
ATOM     18  C   UNL     1       4.376   4.397  18.871  0.00  0.00    +0.000 C 
ATOM     19  O   UNL     1       4.244   5.826  19.000  0.00  0.00    +0.000 OA
ATOM     20  C   UNL     1       2.976   6.110  19.634  0.00  0.00    +0.000 C 
ATOM     21  C   UNL     1       2.105   4.869  19.456  0.00  0.00    +0.000 C 
ATOM     22  C   UNL     1       3.141   3.756  19.506  0.00  0.00    +0.000 C 
BRANCH  18  24
ATOM     23  N   UNL     1       5.806   4.071  16.901  0.00  0.00    +0.000 N 
ATOM     24  C   UNL     1       4.532   3.939  17.415  0.00  0.00    +0.000 C 
ATOM     25  O   UNL     1       3.590   3.491  16.768  0.00  0.00    +0.000 OA
ATOM     26  H   UNL     1       6.563   4.149  17.575  0.00  0.00    +0.000 HD
BRANCH  23  28
ATOM     27  C   UNL     1       6.041   4.737  14.541  0.00  0.00    +0.000 C 
ATOM     28  C   UNL     1       6.094   3.615  15.556  0.00  0.00    +0.000 C 
ENDBRANCH  23  28
ENDBRANCH  18  24
BRANCH  21  29
ATOM     29  O   UNL     1       1.127   4.717  20.482  0.00  0.00    +0.000 OA
ATOM     30  H   UNL     1       1.269   5.454  21.113  0.00  0.00    +0.000 HD
ENDBRANCH  21  29
BRANCH  22  31
ATOM     31  O   UNL     1       3.342   3.393  20.885  0.00  0.00    +0.000 OA
ATOM     32  H   UNL     1       4.173   3.780  21.214  0.00  0.00    +0.000 HD
ENDBRANCH  22  31
ENDBRANCH   1  20
TORSDOF 5
ENDMDL
MODEL 3
REMARK VINA RESULT:      -7.8      1.259      1.464
REMARK  Name = 
REMARK  6 active torsions:
REMARK  status: ('A' for Active; 'I' for Inactive)
REMARK    1  A    between atoms: C_1  and  C_2
REMARK    2  A    between atoms: C_2  and  N_3
REMARK    3  A    between atoms: C_4  and  C_6
REMARK    4  A    between atoms: C_8  and  N_9
REMARK    5  A    between atoms: C_22  and  O_23
REMARK    6  A    between atoms: C_24  and  O_25
REMARK                            x       y       z     vdW  Elec       q    Type
REMARK                         _______ _______ _______ _____ _____    ______ ____
ROOT
ATOM      1  N   UNL     1       2.534   7.074  18.653  0.00  0.00    +0.000 N 
ATOM      2  C   UNL     1       2.707   7.709  17.451  0.00  0.00    +0.000 A 
ATOM      3  N   UNL     1       2.201   8.925  17.456  0.00  0.00    +0.000 NA
ATOM      4  C   UNL     1       1.657   9.078  18.717  0.00  0.00    +0.000 A 
ATOM      5  C   UNL     1       0.972  10.138  19.344  0.00  0.00    +0.000 A 
ATOM      6  N   UNL     1       0.728  11.356  18.694  0.00  0.00    +0.000 N 
ATOM      7  C   UNL     1       0.136  12.441  19.244  0.00  0.00    +0.000 C 
ATOM      8  N   UNL     1      -0.353  12.570  20.430  0.00  0.00    +0.000 NA
ATOM      9  N   UNL     1       0.044  13.508  18.422  0.00  0.00    +0.000 N 
ATOM     10  N   UNL     1       0.541   9.939  20.625  0.00  0.00    +0.000 NA
ATOM     11  C   UNL     1       0.798   8.764  21.231  0.00  0.00    +0.000 A 
ATOM     12  N   UNL     1       1.456   7.705  20.734  0.00  0.00    +0.000 NA
ATOM     13  C   UNL     1       1.851   7.927  19.473  0.00  0.00    +0.000 A 
ATOM     14  H   UNL     1       1.203  11.455  17.808  0.00  0.00    +0.000 HD
ATOM     15  H   UNL     1      -0.196  11.666  20.906  0.00  0.00    +0.000 HD
ATOM     16  H   UNL     1      -0.339  13.292  17.512  0.00  0.00    +0.000 HD
ATOM     17  H   UNL     1      -0.535  14.206  18.886  0.00  0.00    +0.000 HD
ENDROOT
BRANCH   1  20
ATOM     18  C   UNL     1       5.115   4.761  19.252  0.00  0.00    +0.000 C 
ATOM     19  O   UNL     1       4.315   5.896  19.636  0.00  0.00    +0.000 OA
ATOM     20  C   UNL     1       3.009   5.758  19.029  0.00  0.00    +0.000 C 
ATOM     21  C   UNL     1       3.162   4.775  17.871  0.00  0.00    +0.000 C 
ATOM     22  C   UNL     1       4.240   3.840  18.400  0.00  0.00    +0.000 C 
BRANCH  18  24
ATOM     23  N   UNL     1       6.347   6.405  17.907  0.00  0.00    +0.000 N 
ATOM     24  C   UNL     1       6.386   5.154  18.488  0.00  0.00    +0.000 C 
ATOM     25  O   UNL     1       7.356   4.406  18.408  0.00  0.00    +0.000 OA
ATOM     26  H   UNL     1       5.660   7.058  18.276  0.00  0.00    +0.000 HD
BRANCH  23  28
ATOM     27  C   UNL     1       7.932   8.281  17.712  0.00  0.00    +0.000 C 
ATOM     28  C   UNL     1       7.511   6.915  17.211  0.00  0.00    +0.000 C 
ENDBRANCH  23  28
ENDBRANCH  18  24
BRANCH  21  29
ATOM     29  O   UNL     1       1.960   4.069  17.571  0.00  0.00    +0.000 OA
ATOM     30  H   UNL     1       2.152   3.119  17.718  0.00  0.00    +0.000 HD
ENDBRANCH  21  29
BRANCH  22  31
ATOM     31  O   UNL     1       3.597   2.805  19.168  0.00  0.00    +0.000 OA
ATOM     32  H   UNL     1       3.807   2.912  20.113  0.00  0.00    +0.000 HD
ENDBRANCH  22  31
ENDBRANCH   1  20
TORSDOF 5
ENDMDL
MODEL 4
REMARK VINA RESULT:      -7.7      0.959      1.039
REMARK  Name = 
REMARK  6 active torsions:
REMARK  status: ('A' for Active; 'I' for Inactive)
REMARK    1  A    between atoms: C_1  and  C_2
REMARK    2  A    between atoms: C_2  and  N_3
REMARK    3  A    between atoms: C_4  and  C_6
REMARK    4  A    between atoms: C_8  and  N_9
REMARK    5  A    between atoms: C_22  and  O_23
REMARK    6  A    between atoms: C_24  and  O_25
REMARK                            x       y       z     vdW  Elec       q    Type
REMARK                         _______ _______ _______ _____ _____    ______ ____
ROOT
ATOM      1  N   UNL     1       3.104   6.975  18.385  0.00  0.00    +0.000 N 
ATOM      2  C   UNL     1       3.142   7.772  17.270  0.00  0.00    +0.000 A 
ATOM      3  N   UNL     1       2.407   8.855  17.411  0.00  0.00    +0.000 NA
ATOM      4  C   UNL     1       1.850   8.746  18.671  0.00  0.00    +0.000 A 
ATOM      5  C   UNL     1       0.973   9.568  19.406  0.00  0.00    +0.000 A 
ATOM      6  N   UNL     1       0.490  10.783  18.902  0.00  0.00    +0.000 N 
ATOM      7  C   UNL     1      -0.300  11.657  19.566  0.00  0.00    +0.000 C 
ATOM      8  N   UNL     1      -0.799  11.544  20.750  0.00  0.00    +0.000 NA
ATOM      9  N   UNL     1      -0.605  12.776  18.874  0.00  0.00    +0.000 N 
ATOM     10  N   UNL     1       0.597   9.136  20.646  0.00  0.00    +0.000 NA
ATOM     11  C   UNL     1       1.084   7.970  21.113  0.00  0.00    +0.000 A 
ATOM     12  N   UNL     1       1.935   7.129  20.506  0.00  0.00    +0.000 NA
ATOM     13  C   UNL     1       2.271   7.573  19.288  0.00  0.00    +0.000 A 
ATOM     14  H   UNL     1       0.932  11.080  18.043  0.00  0.00    +0.000 HD
ATOM     15  H   UNL     1      -0.464  10.638  21.117  0.00  0.00    +0.000 HD
ATOM     16  H   UNL     1      -0.943  12.601  17.939  0.00  0.00    +0.000 HD
ATOM     17  H   UNL     1      -1.308  13.287  19.407  0.00  0.00    +0.000 HD
ENDROOT
BRANCH   1  20
ATOM     18  C   UNL     1       5.857   4.854  17.846  0.00  0.00    +0.000 C 
ATOM     19  O   UNL     1       5.245   6.007  18.454  0.00  0.00    +0.000 OA
ATOM     20  C   UNL     1       3.832   5.743  18.610  0.00  0.00    +0.000 C 
ATOM     21  C   UNL     1       3.486   4.608  17.650  0.00  0.00    +0.000 C 
ATOM     22  C   UNL     1       4.771   3.793  17.660  0.00  0.00    +0.000 C 
BRANCH  18  24
ATOM     23  N   UNL     1       6.250   4.281  15.490  0.00  0.00    +0.000 N 
ATOM     24  C   UNL     1       6.534   5.171  16.507  0.00  0.00    +0.000 C 
ATOM     25  O   UNL     1       7.269   6.143  16.361  0.00  0.00    +0.000 OA
ATOM     26  H   UNL     1       5.416   3.711  15.604  0.00  0.00    +0.000 HD
BRANCH  23  28
ATOM     27  C   UNL     1       6.072   3.684  13.107  0.00  0.00    +0.000 C 
ATOM     28  C   UNL     1       6.781   4.508  14.161  0.00  0.00    +0.000 C 
ENDBRANCH  23  28
ENDBRANCH  18  24
BRANCH  21  29
ATOM     29  O   UNL     1       2.371   3.829  18.079  0.00  0.00    +0.000 OA
ATOM     30  H   UNL     1       2.698   3.249  18.799  0.00  0.00    +0.000 HD
ENDBRANCH  21  29
BRANCH  22  31
ATOM     31  O   UNL     1       4.701   2.861  18.756  0.00  0.00    +0.000 OA
ATOM     32  H   UNL     1       5.225   2.065  18.550  0.00  0.00    +0.000 HD
ENDBRANCH  22  31
ENDBRANCH   1  20
TORSDOF 5
ENDMDL
MODEL 5
REMARK VINA RESULT:      -7.6      1.461      2.426
REMARK  Name = 
REMARK  6 active torsions:
REMARK  status: ('A' for Active; 'I' for Inactive)
REMARK    1  A    between atoms: C_1  and  C_2
REMARK    2  A    between atoms: C_2  and  N_3
REMARK    3  A    between atoms: C_4  and  C_6
REMARK    4  A    between atoms: C_8  and  N_9
REMARK    5  A    between atoms: C_22  and  O_23
REMARK    6  A    between atoms: C_24  and  O_25
REMARK                            x       y       z     vdW  Elec       q    Type
REMARK                         _______ _______ _______ _____ _____    ______ ____
ROOT
ATOM      1  N   UNL     1       2.552   5.575  19.695  0.00  0.00    +0.000 N 
ATOM      2  C   UNL     1       1.802   5.756  20.828  0.00  0.00    +0.000 A 
ATOM      3  N   UNL     1       1.301   6.972  20.900  0.00  0.00    +0.000 NA
ATOM      4  C   UNL     1       1.765   7.615  19.769  0.00  0.00    +0.000 A 
ATOM      5  C   UNL     1       1.593   8.922  19.270  0.00  0.00    +0.000 A 
ATOM      6  N   UNL     1       0.809   9.876  19.933  0.00  0.00    +0.000 N 
ATOM      7  C   UNL     1       0.542  11.127  19.491  0.00  0.00    +0.000 C 
ATOM      8  N   UNL     1       0.973  11.705  18.422  0.00  0.00    +0.000 NA
ATOM      9  N   UNL     1      -0.268  11.846  20.296  0.00  0.00    +0.000 N 
ATOM     10  N   UNL     1       2.228   9.239  18.103  0.00  0.00    +0.000 NA
ATOM     11  C   UNL     1       2.965   8.301  17.479  0.00  0.00    +0.000 A 
ATOM     12  N   UNL     1       3.175   7.030  17.855  0.00  0.00    +0.000 NA
ATOM     13  C   UNL     1       2.553   6.757  19.011  0.00  0.00    +0.000 A 
ATOM     14  H   UNL     1       0.273   9.507  20.706  0.00  0.00    +0.000 HD
ATOM     15  H   UNL     1       1.571  11.013  17.941  0.00  0.00    +0.000 HD
ATOM     16  H   UNL     1       0.011  11.844  21.267  0.00  0.00    +0.000 HD
ATOM     17  H   UNL     1      -0.285  12.802  19.942  0.00  0.00    +0.000 HD
ENDROOT
BRANCH   1  20
ATOM     18  C   UNL     1       5.296   3.831  18.354  0.00  0.00    +0.000 C 
ATOM     19  O   UNL     1       4.629   4.505  19.438  0.00  0.00    +0.000 OA
ATOM     20  C   UNL     1       3.202   4.356  19.257  0.00  0.00    +0.000 C 
ATOM     21  C   UNL     1       2.978   4.000  17.790  0.00  0.00    +0.000 C 
ATOM     22  C   UNL     1       4.223   3.184  17.477  0.00  0.00    +0.000 C 
BRANCH  18  24
ATOM     23  N   UNL     1       6.072   6.104  17.842  0.00  0.00    +0.000 N 
ATOM     24  C   UNL     1       6.180   4.766  17.520  0.00  0.00    +0.000 C 
ATOM     25  O   UNL     1       6.925   4.347  16.639  0.00  0.00    +0.000 OA
ATOM     26  H   UNL     1       5.689   6.323  18.759  0.00  0.00    +0.000 HD
BRANCH  23  28
ATOM     27  C   UNL     1       7.975   7.651  18.072  0.00  0.00    +0.000 C 
ATOM     28  C   UNL     1       6.903   7.080  17.167  0.00  0.00    +0.000 C 
ENDBRANCH  23  28
ENDBRANCH  18  24
BRANCH  21  29
ATOM     29  O   UNL     1       1.789   3.243  17.570  0.00  0.00    +0.000 OA
ATOM     30  H   UNL     1       1.054   3.889  17.514  0.00  0.00    +0.000 HD
ENDBRANCH  21  29
BRANCH  22  31
ATOM     31  O   UNL     1       3.960   1.812  17.830  0.00  0.00    +0.000 OA
ATOM     32  H   UNL     1       4.261   1.638  18.740  0.00  0.00    +0.000 HD
ENDBRANCH  22  31
ENDBRANCH   1  20
TORSDOF 5
ENDMDL
MODEL 6
REMARK VINA RESULT:      -7.5      1.728      1.912
REMARK  Name = 
REMARK  6 active torsions:
REMARK  status: ('A' for Active; 'I' for Inactive)
REMARK    1  A    between atoms: C_1  and  C_2
REMARK    2  A    between atoms: C_2  and  N_3
REMARK    3  A    between atoms: C_4  and  C_6
REMARK    4  A    between atoms: C_8  and  N_9
REMARK    5  A    between atoms: C_22  and  O_23
REMARK    6  A    between atoms: C_24  and  O_25
REMARK                            x       y       z     vdW  Elec       q    Type
REMARK                         _______ _______ _______ _____ _____    ______ ____
ROOT
ATOM      1  N   UNL     1       2.130   7.080  18.952  0.00  0.00    +0.000 N 
ATOM      2  C   UNL     1       2.331   7.815  17.812  0.00  0.00    +0.000 A 
ATOM      3  N   UNL     1       2.052   9.090  17.989  0.00  0.00    +0.000 NA
ATOM      4  C   UNL     1       1.632   9.183  19.302  0.00  0.00    +0.000 A 
ATOM      5  C   UNL     1       1.192  10.262  20.094  0.00  0.00    +0.000 A 
ATOM      6  N   UNL     1       1.126  11.572  19.600  0.00  0.00    +0.000 N 
ATOM      7  C   UNL     1       0.777  12.669  20.310  0.00  0.00    +0.000 C 
ATOM      8  N   UNL     1       0.401  12.738  21.542  0.00  0.00    +0.000 NA
ATOM      9  N   UNL     1       0.821  13.826  19.615  0.00  0.00    +0.000 N 
ATOM     10  N   UNL     1       0.822   9.989  21.380  0.00  0.00    +0.000 NA
ATOM     11  C   UNL     1       0.906   8.724  21.836  0.00  0.00    +0.000 A 
ATOM     12  N   UNL     1       1.328   7.635  21.175  0.00  0.00    +0.000 NA
ATOM     13  C   UNL     1       1.669   7.934  19.913  0.00  0.00    +0.000 A 
ATOM     14  H   UNL     1       1.549  11.693  18.690  0.00  0.00    +0.000 HD
ATOM     15  H   UNL     1       0.427  11.770  21.905  0.00  0.00    +0.000 HD
ATOM     16  H   UNL     1       0.344  13.788  18.725  0.00  0.00    +0.000 HD
ATOM     17  H   UNL     1       0.409  14.552  20.199  0.00  0.00    +0.000 HD
ENDROOT
BRANCH   1  20
ATOM     18  C   UNL     1       4.310   4.343  19.306  0.00  0.00    +0.000 C 
ATOM     19  O   UNL     1       3.656   5.519  19.822  0.00  0.00    +0.000 OA
ATOM     20  C   UNL     1       2.387   5.668  19.144  0.00  0.00    +0.000 C 
ATOM     21  C   UNL     1       2.474   4.850  17.859  0.00  0.00    +0.000 C 
ATOM     22  C   UNL     1       3.370   3.697  18.287  0.00  0.00    +0.000 C 
BRANCH  18  24
ATOM     23  N   UNL     1       6.525   5.392  19.454  0.00  0.00    +0.000 N 
ATOM     24  C   UNL     1       5.671   4.645  18.668  0.00  0.00    +0.000 C 
ATOM     25  O   UNL     1       5.968   4.248  17.545  0.00  0.00    +0.000 OA
ATOM     26  H   UNL     1       6.331   5.407  20.452  0.00  0.00    +0.000 HD
BRANCH  23  28
ATOM     27  C   UNL     1       7.946   7.027  18.279  0.00  0.00    +0.000 C 
ATOM     28  C   UNL     1       7.864   5.690  18.986  0.00  0.00    +0.000 C 
ENDBRANCH  23  28
ENDBRANCH  18  24
BRANCH  21  29
ATOM     29  O   UNL     1       1.206   4.383  17.403  0.00  0.00    +0.000 OA
ATOM     30  H   UNL     1       0.900   5.023  16.727  0.00  0.00    +0.000 HD
ENDBRANCH  21  29
BRANCH  22  31
ATOM     31  O   UNL     1       2.538   2.671  18.860  0.00  0.00    +0.000 OA
ATOM     32  H   UNL     1       1.734   3.068  19.241  0.00  0.00    +0.000 HD
ENDBRANCH  22  31
ENDBRANCH   1  20
TORSDOF 5
ENDMDL
MODEL 7
REMARK VINA RESULT:      -7.5      1.204      2.162
REMARK  Name = 
REMARK  6 active torsions:
REMARK  status: ('A' for Active; 'I' for Inactive)
REMARK    1  A    between atoms: C_1  and  C_2
REMARK    2  A    between atoms: C_2  and  N_3
REMARK    3  A    between atoms: C_4  and  C_6
REMARK    4  A    between atoms: C_8  and  N_9
REMARK    5  A    between atoms: C_22  and  O_23
REMARK    6  A    between atoms: C_24  and  O_25
REMARK                            x       y       z     vdW  Elec       q    Type
REMARK                         _______ _______ _______ _____ _____    ______ ____
ROOT
ATOM      1  N   UNL     1       2.507   5.460  19.776  0.00  0.00    +0.000 N 
ATOM      2  C   UNL     1       1.757   5.720  20.894  0.00  0.00    +0.000 A 
ATOM      3  N   UNL     1       1.307   6.958  20.911  0.00  0.00    +0.000 NA
ATOM      4  C   UNL     1       1.806   7.533  19.758  0.00  0.00    +0.000 A 
ATOM      5  C   UNL     1       1.694   8.824  19.205  0.00  0.00    +0.000 A 
ATOM      6  N   UNL     1       0.945   9.837  19.821  0.00  0.00    +0.000 N 
ATOM      7  C   UNL     1       0.735  11.078  19.325  0.00  0.00    +0.000 C 
ATOM      8  N   UNL     1       1.198  11.593  18.237  0.00  0.00    +0.000 NA
ATOM      9  N   UNL     1      -0.050  11.864  20.092  0.00  0.00    +0.000 N 
ATOM     10  N   UNL     1       2.350   9.066  18.032  0.00  0.00    +0.000 NA
ATOM     11  C   UNL     1       3.052   8.072  17.454  0.00  0.00    +0.000 A 
ATOM     12  N   UNL     1       3.205   6.810  17.884  0.00  0.00    +0.000 NA
ATOM     13  C   UNL     1       2.563   6.611  19.044  0.00  0.00    +0.000 A 
ATOM     14  H   UNL     1       0.388   9.523  20.603  0.00  0.00    +0.000 HD
ATOM     15  H   UNL     1       1.770  10.857  17.790  0.00  0.00    +0.000 HD
ATOM     16  H   UNL     1       0.221  11.890  21.065  0.00  0.00    +0.000 HD
ATOM     17  H   UNL     1      -0.023  12.804  19.699  0.00  0.00    +0.000 HD
ENDROOT
BRANCH   1  20
ATOM     18  C   UNL     1       5.090   3.567  18.323  0.00  0.00    +0.000 C 
ATOM     19  O   UNL     1       4.546   4.353  19.400  0.00  0.00    +0.000 OA
ATOM     20  C   UNL     1       3.108   4.198  19.395  0.00  0.00    +0.000 C 
ATOM     21  C   UNL     1       2.723   3.697  18.005  0.00  0.00    +0.000 C 
ATOM     22  C   UNL     1       3.928   2.843  17.641  0.00  0.00    +0.000 C 
BRANCH  18  24
ATOM     23  N   UNL     1       6.071   3.795  16.083  0.00  0.00    +0.000 N 
ATOM     24  C   UNL     1       5.873   4.406  17.305  0.00  0.00    +0.000 C 
ATOM     25  O   UNL     1       6.286   5.532  17.567  0.00  0.00    +0.000 OA
ATOM     26  H   UNL     1       5.448   3.026  15.852  0.00  0.00    +0.000 HD
BRANCH  23  28
ATOM     27  C   UNL     1       6.353   4.004  13.644  0.00  0.00    +0.000 C 
ATOM     28  C   UNL     1       6.743   4.511  15.017  0.00  0.00    +0.000 C 
ENDBRANCH  23  28
ENDBRANCH  18  24
BRANCH  21  29
ATOM     29  O   UNL     1       1.520   2.931  17.998  0.00  0.00    +0.000 OA
ATOM     30  H   UNL     1       1.317   2.723  18.934  0.00  0.00    +0.000 HD
ENDBRANCH  21  29
BRANCH  22  31
ATOM     31  O   UNL     1       3.711   1.516  18.159  0.00  0.00    +0.000 OA
ATOM     32  H   UNL     1       4.363   1.319  18.855  0.00  0.00    +0.000 HD
ENDBRANCH  22  31
ENDBRANCH   1  20
TORSDOF 5
ENDMDL
MODEL 8
REMARK VINA RESULT:      -7.4      3.779      8.554
REMARK  Name = 
REMARK  6 active torsions:
REMARK  status: ('A' for Active; 'I' for Inactive)
REMARK    1  A    between atoms: C_1  and  C_2
REMARK    2  A    between atoms: C_2  and  N_3
REMARK    3  A    between atoms: C_4  and  C_6
REMARK    4  A    between atoms: C_8  and  N_9
REMARK    5  A    between atoms: C_22  and  O_23
REMARK    6  A    between atoms: C_24  and  O_25
REMARK                            x       y       z     vdW  Elec       q    Type
REMARK                         _______ _______ _______ _____ _____    ______ ____
ROOT
ATOM      1  N   UNL     1       1.492   8.593  19.793  0.00  0.00    +0.000 N 
ATOM      2  C   UNL     1       1.174   7.782  20.850  0.00  0.00    +0.000 A 
ATOM      3  N   UNL     1       1.799   6.624  20.791  0.00  0.00    +0.000 NA
ATOM      4  C   UNL     1       2.543   6.681  19.629  0.00  0.00    +0.000 A 
ATOM      5  C   UNL     1       3.414   5.767  19.002  0.00  0.00    +0.000 A 
ATOM      6  N   UNL     1       3.698   4.510  19.552  0.00  0.00    +0.000 N 
ATOM      7  C   UNL     1       4.568   3.604  19.049  0.00  0.00    +0.000 C 
ATOM      8  N   UNL     1       5.267   3.682  17.968  0.00  0.00    +0.000 NA
ATOM      9  N   UNL     1       4.692   2.477  19.782  0.00  0.00    +0.000 N 
ATOM     10  N   UNL     1       3.980   6.148  17.818  0.00  0.00    +0.000 NA
ATOM     11  C   UNL     1       3.701   7.366  17.317  0.00  0.00    +0.000 A 
ATOM     12  N   UNL     1       2.907   8.313  17.841  0.00  0.00    +0.000 NA
ATOM     13  C   UNL     1       2.356   7.902  18.991  0.00  0.00    +0.000 A 
ATOM     14  H   UNL     1       3.345   4.378  20.490  0.00  0.00    +0.000 HD
ATOM     15  H   UNL     1       5.043   4.599  17.546  0.00  0.00    +0.000 HD
ATOM     16  H   UNL     1       3.811   2.052  20.031  0.00  0.00    +0.000 HD
ATOM     17  H   UNL     1       5.255   1.820  19.243  0.00  0.00    +0.000 HD
ENDROOT
BRANCH   1  20
ATOM     18  C   UNL     1       0.141  11.647  20.897  0.00  0.00    +0.000 C 
ATOM     19  O   UNL     1       1.231  10.712  20.776  0.00  0.00    +0.000 OA
ATOM     20  C   UNL     1       1.044   9.951  19.561  0.00  0.00    +0.000 C 
ATOM     21  C   UNL     1      -0.428  10.085  19.177  0.00  0.00    +0.000 C 
ATOM     22  C   UNL     1      -0.745  11.493  19.660  0.00  0.00    +0.000 C 
BRANCH  18  24
ATOM     23  N   UNL     1      -1.874  12.140  22.211  0.00  0.00    +0.000 N 
ATOM     24  C   UNL     1      -0.681  11.448  22.177  0.00  0.00    +0.000 C 
ATOM     25  O   UNL     1      -0.297  10.725  23.093  0.00  0.00    +0.000 OA
ATOM     26  H   UNL     1      -2.249  12.447  21.317  0.00  0.00    +0.000 HD
BRANCH  23  28
ATOM     27  C   UNL     1      -3.589  13.229  23.605  0.00  0.00    +0.000 C 
ATOM     28  C   UNL     1      -2.769  11.984  23.340  0.00  0.00    +0.000 C 
ENDBRANCH  23  28
ENDBRANCH  18  24
BRANCH  21  29
ATOM     29  O   UNL     1      -0.658   9.951  17.776  0.00  0.00    +0.000 OA
ATOM     30  H   UNL     1      -0.894   9.012  17.622  0.00  0.00    +0.000 HD
ENDBRANCH  21  29
BRANCH  22  31
ATOM     31  O   UNL     1      -0.407  12.415  18.607  0.00  0.00    +0.000 OA
ATOM     32  H   UNL     1      -0.015  11.934  17.856  0.00  0.00    +0.000 HD
ENDBRANCH  22  31
ENDBRANCH   1  20
TORSDOF 5
ENDMDL
MODEL 9
REMARK VINA RESULT:      -7.3      1.451      1.573
REMARK  Name = 
REMARK  6 active torsions:
REMARK  status: ('A' for Active; 'I' for Inactive)
REMARK    1  A    between atoms: C_1  and  C_2
REMARK    2  A    between atoms: C_2  and  N_3
REMARK    3  A    between atoms: C_4  and  C_6
REMARK    4  A    between atoms: C_8  and  N_9
REMARK    5  A    between atoms: C_22  and  O_23
REMARK    6  A    between atoms: C_24  and  O_25
REMARK                            x       y       z     vdW  Elec       q    Type
REMARK                         _______ _______ _______ _____ _____    ______ ____
ROOT
ATOM      1  N   UNL     1       2.501   7.644  18.611  0.00  0.00    +0.000 N 
ATOM      2  C   UNL     1       2.462   8.444  17.499  0.00  0.00    +0.000 A 
ATOM      3  N   UNL     1       1.715   9.513  17.684  0.00  0.00    +0.000 NA
ATOM      4  C   UNL     1       1.232   9.391  18.973  0.00  0.00    +0.000 A 
ATOM      5  C   UNL     1       0.382  10.194  19.758  0.00  0.00    +0.000 A 
ATOM      6  N   UNL     1      -0.150  11.401  19.286  0.00  0.00    +0.000 N 
ATOM      7  C   UNL     1      -0.919  12.259  19.996  0.00  0.00    +0.000 C 
ATOM      8  N   UNL     1      -1.349  12.133  21.205  0.00  0.00    +0.000 NA
ATOM      9  N   UNL     1      -1.282  13.374  19.326  0.00  0.00    +0.000 N 
ATOM     10  N   UNL     1       0.083   9.752  21.016  0.00  0.00    +0.000 NA
ATOM     11  C   UNL     1       0.617   8.595  21.451  0.00  0.00    +0.000 A 
ATOM     12  N   UNL     1       1.448   7.770  20.795  0.00  0.00    +0.000 NA
ATOM     13  C   UNL     1       1.708   8.224  19.561  0.00  0.00    +0.000 A 
ATOM     14  H   UNL     1       0.237  11.709  18.405  0.00  0.00    +0.000 HD
ATOM     15  H   UNL     1      -0.978  11.233  21.551  0.00  0.00    +0.000 HD
ATOM     16  H   UNL     1      -1.669  13.194  18.411  0.00  0.00    +0.000 HD
ATOM     17  H   UNL     1      -1.964  13.869  19.900  0.00  0.00    +0.000 HD
ENDROOT
BRANCH   1  20
ATOM     18  C   UNL     1       4.968   5.349  17.604  0.00  0.00    +0.000 C 
ATOM     19  O   UNL     1       4.565   6.603  18.189  0.00  0.00    +0.000 OA
ATOM     20  C   UNL     1       3.262   6.425  18.791  0.00  0.00    +0.000 C 
ATOM     21  C   UNL     1       2.646   5.183  18.154  0.00  0.00    +0.000 C 
ATOM     22  C   UNL     1       3.876   4.322  17.905  0.00  0.00    +0.000 C 
BRANCH  18  24
ATOM     23  N   UNL     1       5.416   4.233  15.463  0.00  0.00    +0.000 N 
ATOM     24  C   UNL     1       5.215   5.444  16.094  0.00  0.00    +0.000 C 
ATOM     25  O   UNL     1       5.230   6.519  15.501  0.00  0.00    +0.000 OA
ATOM     26  H   UNL     1       5.084   3.405  15.951  0.00  0.00    +0.000 HD
BRANCH  23  28
ATOM     27  C   UNL     1       7.037   4.427  13.618  0.00  0.00    +0.000 C 
ATOM     28  C   UNL     1       5.599   4.187  14.027  0.00  0.00    +0.000 C 
ENDBRANCH  23  28
ENDBRANCH  18  24
BRANCH  21  29
ATOM     29  O   UNL     1       1.710   4.522  19.003  0.00  0.00    +0.000 OA
ATOM     30  H   UNL     1       0.861   5.002  18.908  0.00  0.00    +0.000 HD
ENDBRANCH  21  29
BRANCH  22  31
ATOM     31  O   UNL     1       4.136   3.557  19.098  0.00  0.00    +0.000 OA
ATOM     32  H   UNL     1       5.005   3.797  19.465  0.00  0.00    +0.000 HD
ENDBRANCH  22  31
ENDBRANCH   1  20
TORSDOF 5
ENDMDL
