MODEL 1
REMARK VINA RESULT:      -7.2      0.000      0.000
REMARK  Name = 
REMARK  5 active torsions:
REMARK  status: ('A' for Active; 'I' for Inactive)
REMARK    1  A    between atoms: C_1  and  O_2
REMARK    2  A    between atoms: O_2  and  C_3
REMARK    3  A    between atoms: C_7  and  N_8
REMARK    4  A    between atoms: C_9  and  S_10
REMARK    5  A    between atoms: N_11  and  C_12
REMARK                            x       y       z     vdW  Elec       q    Type
REMARK                         _______ _______ _______ _____ _____    ______ ____
ROOT
ATOM      1  N   UNL     1       6.277   5.170  15.892  0.00  0.00    +0.000 N 
ATOM      2  C   UNL     1       5.372   4.655  16.794  0.00  0.00    +0.000 C 
ATOM      3  N   UNL     1       4.175   4.246  16.518  0.00  0.00    +0.000 NA
ATOM      4  H   UNL     1       7.127   5.500  16.331  0.00  0.00    +0.000 HD
ENDROOT
BRANCH   3   5
ATOM      5  C   UNL     1       3.225   3.757  17.432  0.00  0.00    +0.000 A 
ATOM      6  C   UNL     1       3.146   2.419  17.849  0.00  0.00    +0.000 A 
ATOM      7  C   UNL     1       2.217   2.008  18.808  0.00  0.00    +0.000 A 
ATOM      8  C   UNL     1       1.404   2.950  19.421  0.00  0.00    +0.000 A 
ATOM      9  F   UNL     1       0.545   2.563  20.371  0.00  0.00    +0.000 F 
ATOM     10  C   UNL     1       1.500   4.292  19.079  0.00  0.00    +0.000 A 
ATOM     11  C   UNL     1       2.401   4.689  18.083  0.00  0.00    +0.000 A 
ENDBRANCH   3   5
BRANCH   1  16
ATOM     12  C   UNL     1       5.997   3.528  12.531  0.00  0.00    +0.000 A 
ATOM     13  C   UNL     1       7.098   4.103  11.891  0.00  0.00    +0.000 A 
ATOM     14  C   UNL     1       7.882   5.041  12.555  0.00  0.00    +0.000 A 
ATOM     15  C   UNL     1       7.581   5.385  13.873  0.00  0.00    +0.000 A 
ATOM     16  C   UNL     1       6.501   4.795  14.551  0.00  0.00    +0.000 A 
ATOM     17  C   UNL     1       5.688   3.903  13.844  0.00  0.00    +0.000 A 
BRANCH  12  19
ATOM     18  C   UNL     1       4.088   3.037  11.207  0.00  0.00    +0.000 C 
ATOM     19  O   UNL     1       5.315   2.607  11.782  0.00  0.00    +0.000 OA
ENDBRANCH  12  19
ENDBRANCH   1  16
BRANCH   2  20
ATOM     20  S   UNL     1       6.104   4.679  18.399  0.00  0.00    +0.000 S 
ATOM     21  H   UNL     1       5.383   3.654  18.873  0.00  0.00    +0.000 HD
ENDBRANCH   2  20
TORSDOF 4
ENDMDL
MODEL 2
REMARK VINA RESULT:      -7.1      0.331      1.129
REMARK  Name = 
REMARK  5 active torsions:
REMARK  status: ('A' for Active; 'I' for Inactive)
REMARK    1  A    between atoms: C_1  and  O_2
REMARK    2  A    between atoms: O_2  and  C_3
REMARK    3  A    between atoms: C_7  and  N_8
REMARK    4  A    between atoms: C_9  and  S_10
REMARK    5  A    between atoms: N_11  and  C_12
REMARK                            x       y       z     vdW  Elec       q    Type
REMARK                         _______ _______ _______ _____ _____    ______ ____
ROOT
ATOM      1  N   UNL     1       6.503   5.194  15.887  0.00  0.00    +0.000 N 
ATOM      2  C   UNL     1       5.564   4.776  16.804  0.00  0.00    +0.000 C 
ATOM      3  N   UNL     1       4.318   4.524  16.555  0.00  0.00    +0.000 NA
ATOM      4  H   UNL     1       7.398   5.408  16.308  0.00  0.00    +0.000 HD
ENDROOT
BRANCH   3   5
ATOM      5  C   UNL     1       3.338   4.138  17.486  0.00  0.00    +0.000 A 
ATOM      6  C   UNL     1       2.625   5.033  18.297  0.00  0.00    +0.000 A 
ATOM      7  C   UNL     1       1.619   4.593  19.160  0.00  0.00    +0.000 A 
ATOM      8  C   UNL     1       1.260   3.253  19.164  0.00  0.00    +0.000 A 
ATOM      9  F   UNL     1       0.266   2.837  19.958  0.00  0.00    +0.000 F 
ATOM     10  C   UNL     1       1.901   2.350  18.327  0.00  0.00    +0.000 A 
ATOM     11  C   UNL     1       2.940   2.792  17.500  0.00  0.00    +0.000 A 
ENDBRANCH   3   5
BRANCH   1  16
ATOM     12  C   UNL     1       6.043   3.532  12.556  0.00  0.00    +0.000 A 
ATOM     13  C   UNL     1       7.077   4.138  11.840  0.00  0.00    +0.000 A 
ATOM     14  C   UNL     1       7.876   5.104  12.446  0.00  0.00    +0.000 A 
ATOM     15  C   UNL     1       7.656   5.443  13.782  0.00  0.00    +0.000 A 
ATOM     16  C   UNL     1       6.645   4.822  14.534  0.00  0.00    +0.000 A 
ATOM     17  C   UNL     1       5.813   3.901  13.886  0.00  0.00    +0.000 A 
BRANCH  12  19
ATOM     18  C   UNL     1       4.157   3.027  11.204  0.00  0.00    +0.000 C 
ATOM     19  O   UNL     1       5.340   2.587  11.858  0.00  0.00    +0.000 OA
ENDBRANCH  12  19
ENDBRANCH   1  16
BRANCH   2  20
ATOM     20  S   UNL     1       6.333   4.678  18.389  0.00  0.00    +0.000 S 
ATOM     21  H   UNL     1       7.492   4.190  17.927  0.00  0.00    +0.000 HD
ENDBRANCH   2  20
TORSDOF 4
ENDMDL
MODEL 3
REMARK VINA RESULT:      -6.8      3.897      5.220
REMARK  Name = 
REMARK  5 active torsions:
REMARK  status: ('A' for Active; 'I' for Inactive)
REMARK    1  A    between atoms: C_1  and  O_2
REMARK    2  A    between atoms: O_2  and  C_3
REMARK    3  A    between atoms: C_7  and  N_8
REMARK    4  A    between atoms: C_9  and  S_10
REMARK    5  A    between atoms: N_11  and  C_12
REMARK                            x       y       z     vdW  Elec       q    Type
REMARK                         _______ _______ _______ _____ _____    ______ ____
ROOT
ATOM      1  N   UNL     1       4.030   4.631  19.502  0.00  0.00    +0.000 N 
ATOM      2  C   UNL     1       3.005   5.544  19.624  0.00  0.00    +0.000 C 
ATOM      3  N   UNL     1       3.098   6.821  19.426  0.00  0.00    +0.000 NA
ATOM      4  H   UNL     1       3.760   3.695  19.776  0.00  0.00    +0.000 HD
ENDROOT
BRANCH   3   5
ATOM      5  C   UNL     1       2.074   7.770  19.587  0.00  0.00    +0.000 A 
ATOM      6  C   UNL     1       1.439   8.048  20.807  0.00  0.00    +0.000 A 
ATOM      7  C   UNL     1       0.470   9.048  20.914  0.00  0.00    +0.000 A 
ATOM      8  C   UNL     1       0.178   9.838  19.811  0.00  0.00    +0.000 A 
ATOM      9  F   UNL     1      -0.718  10.825  19.925  0.00  0.00    +0.000 F 
ATOM     10  C   UNL     1       0.833   9.633  18.605  0.00  0.00    +0.000 A 
ATOM     11  C   UNL     1       1.769   8.598  18.494  0.00  0.00    +0.000 A 
ENDBRANCH   3   5
BRANCH   1  16
ATOM     12  C   UNL     1       6.077   4.083  16.407  0.00  0.00    +0.000 A 
ATOM     13  C   UNL     1       7.307   4.584  16.841  0.00  0.00    +0.000 A 
ATOM     14  C   UNL     1       7.431   5.125  18.117  0.00  0.00    +0.000 A 
ATOM     15  C   UNL     1       6.329   5.139  18.972  0.00  0.00    +0.000 A 
ATOM     16  C   UNL     1       5.091   4.610  18.572  0.00  0.00    +0.000 A 
ATOM     17  C   UNL     1       4.971   4.130  17.263  0.00  0.00    +0.000 A 
BRANCH  12  19
ATOM     18  C   UNL     1       6.530   4.423  14.101  0.00  0.00    +0.000 C 
ATOM     19  O   UNL     1       6.085   3.562  15.141  0.00  0.00    +0.000 OA
ENDBRANCH  12  19
ENDBRANCH   1  16
BRANCH   2  20
ATOM     20  S   UNL     1       1.549   4.687  20.130  0.00  0.00    +0.000 S 
ATOM     21  H   UNL     1       1.480   5.273  21.333  0.00  0.00    +0.000 HD
ENDBRANCH   2  20
TORSDOF 4
ENDMDL
MODEL 4
REMARK VINA RESULT:      -6.8      1.443      1.729
REMARK  Name = 
REMARK  5 active torsions:
REMARK  status: ('A' for Active; 'I' for Inactive)
REMARK    1  A    between atoms: C_1  and  O_2
REMARK    2  A    between atoms: O_2  and  C_3
REMARK    3  A    between atoms: C_7  and  N_8
REMARK    4  A    between atoms: C_9  and  S_10
REMARK    5  A    between atoms: N_11  and  C_12
REMARK                            x       y       z     vdW  Elec       q    Type
REMARK                         _______ _______ _______ _____ _____    ______ ____
ROOT
ATOM      1  N   UNL     1       7.199   5.379  15.596  0.00  0.00    +0.000 N 
ATOM      2  C   UNL     1       6.266   5.347  16.609  0.00  0.00    +0.000 C 
ATOM      3  N   UNL     1       4.993   5.542  16.475  0.00  0.00    +0.000 NA
ATOM      4  H   UNL     1       8.149   5.277  15.931  0.00  0.00    +0.000 HD
ENDROOT
BRANCH   3   5
ATOM      5  C   UNL     1       4.034   5.554  17.504  0.00  0.00    +0.000 A 
ATOM      6  C   UNL     1       3.662   4.425  18.250  0.00  0.00    +0.000 A 
ATOM      7  C   UNL     1       2.747   4.514  19.301  0.00  0.00    +0.000 A 
ATOM      8  C   UNL     1       2.249   5.755  19.670  0.00  0.00    +0.000 A 
ATOM      9  F   UNL     1       1.407   5.847  20.705  0.00  0.00    +0.000 F 
ATOM     10  C   UNL     1       2.644   6.902  18.995  0.00  0.00    +0.000 A 
ATOM     11  C   UNL     1       3.526   6.797  17.913  0.00  0.00    +0.000 A 
ENDBRANCH   3   5
BRANCH   1  16
ATOM     12  C   UNL     1       6.107   3.546  12.511  0.00  0.00    +0.000 A 
ATOM     13  C   UNL     1       6.965   4.124  11.573  0.00  0.00    +0.000 A 
ATOM     14  C   UNL     1       7.852   5.125  11.957  0.00  0.00    +0.000 A 
ATOM     15  C   UNL     1       7.899   5.530  13.292  0.00  0.00    +0.000 A 
ATOM     16  C   UNL     1       7.072   4.940  14.262  0.00  0.00    +0.000 A 
ATOM     17  C   UNL     1       6.144   3.981  13.841  0.00  0.00    +0.000 A 
BRANCH  12  19
ATOM     18  C   UNL     1       4.182   2.984  11.238  0.00  0.00    +0.000 C 
ATOM     19  O   UNL     1       5.295   2.561  12.016  0.00  0.00    +0.000 OA
ENDBRANCH  12  19
ENDBRANCH   1  16
BRANCH   2  20
ATOM     20  S   UNL     1       7.101   5.032  18.131  0.00  0.00    +0.000 S 
ATOM     21  H   UNL     1       8.135   5.843  17.868  0.00  0.00    +0.000 HD
ENDBRANCH   2  20
TORSDOF 4
ENDMDL
MODEL 5
REMARK VINA RESULT:      -6.7      4.214      5.634
REMARK  Name = 
REMARK  5 active torsions:
REMARK  status: ('A' for Active; 'I' for Inactive)
REMARK    1  A    between atoms: C_1  and  O_2
REMARK    2  A    between atoms: O_2  and  C_3
REMARK    3  A    between atoms: C_7  and  N_8
REMARK    4  A    between atoms: C_9  and  S_10
REMARK    5  A    between atoms: N_11  and  C_12
REMARK                            x       y       z     vdW  Elec       q    Type
REMARK                         _______ _______ _______ _____ _____    ______ ____
ROOT
ATOM      1  N   UNL     1       3.962   4.838  19.130  0.00  0.00    +0.000 N 
ATOM      2  C   UNL     1       2.931   5.685  19.476  0.00  0.00    +0.000 C 
ATOM      3  N   UNL     1       2.934   6.974  19.354  0.00  0.00    +0.000 NA
ATOM      4  H   UNL     1       3.782   3.874  19.380  0.00  0.00    +0.000 HD
ENDROOT
BRANCH   3   5
ATOM      5  C   UNL     1       1.908   7.854  19.740  0.00  0.00    +0.000 A 
ATOM      6  C   UNL     1       1.370   7.920  21.034  0.00  0.00    +0.000 A 
ATOM      7  C   UNL     1       0.394   8.860  21.372  0.00  0.00    +0.000 A 
ATOM      8  C   UNL     1      -0.002   9.802  20.432  0.00  0.00    +0.000 A 
ATOM      9  F   UNL     1      -0.905  10.730  20.768  0.00  0.00    +0.000 F 
ATOM     10  C   UNL     1       0.556   9.806  19.161  0.00  0.00    +0.000 A 
ATOM     11  C   UNL     1       1.499   8.831  18.818  0.00  0.00    +0.000 A 
ENDBRANCH   3   5
BRANCH   1  16
ATOM     12  C   UNL     1       6.710   5.946  16.832  0.00  0.00    +0.000 A 
ATOM     13  C   UNL     1       6.537   5.030  15.791  0.00  0.00    +0.000 A 
ATOM     14  C   UNL     1       5.556   4.048  15.880  0.00  0.00    +0.000 A 
ATOM     15  C   UNL     1       4.726   3.999  17.001  0.00  0.00    +0.000 A 
ATOM     16  C   UNL     1       4.857   4.931  18.044  0.00  0.00    +0.000 A 
ATOM     17  C   UNL     1       5.892   5.869  17.964  0.00  0.00    +0.000 A 
BRANCH  12  19
ATOM     18  C   UNL     1       7.782   7.937  17.561  0.00  0.00    +0.000 C 
ATOM     19  O   UNL     1       7.695   6.874  16.620  0.00  0.00    +0.000 OA
ENDBRANCH  12  19
ENDBRANCH   1  16
BRANCH   2  20
ATOM     20  S   UNL     1       1.616   4.720  20.150  0.00  0.00    +0.000 S 
ATOM     21  H   UNL     1       0.640   5.426  19.564  0.00  0.00    +0.000 HD
ENDBRANCH   2  20
TORSDOF 4
ENDMDL
MODEL 6
REMARK VINA RESULT:      -6.6      1.711      2.230
REMARK  Name = 
REMARK  5 active torsions:
REMARK  status: ('A' for Active; 'I' for Inactive)
REMARK    1  A    between atoms: C_1  and  O_2
REMARK    2  A    between atoms: O_2  and  C_3
REMARK    3  A    between atoms: C_7  and  N_8
REMARK    4  A    between atoms: C_9  and  S_10
REMARK    5  A    between atoms: N_11  and  C_12
REMARK                            x       y       z     vdW  Elec       q    Type
REMARK                         _______ _______ _______ _____ _____    ______ ____
ROOT
ATOM      1  N   UNL     1       7.417   5.410  15.595  0.00  0.00    +0.000 N 
ATOM      2  C   UNL     1       6.518   5.495  16.636  0.00  0.00    +0.000 C 
ATOM      3  N   UNL     1       5.266   5.810  16.533  0.00  0.00    +0.000 NA
ATOM      4  H   UNL     1       8.363   5.224  15.905  0.00  0.00    +0.000 HD
ENDROOT
BRANCH   3   5
ATOM      5  C   UNL     1       4.346   5.942  17.588  0.00  0.00    +0.000 A 
ATOM      6  C   UNL     1       3.520   7.060  17.780  0.00  0.00    +0.000 A 
ATOM      7  C   UNL     1       2.582   7.105  18.814  0.00  0.00    +0.000 A 
ATOM      8  C   UNL     1       2.404   5.994  19.625  0.00  0.00    +0.000 A 
ATOM      9  F   UNL     1       1.475   6.020  20.587  0.00  0.00    +0.000 F 
ATOM     10  C   UNL     1       3.160   4.847  19.423  0.00  0.00    +0.000 A 
ATOM     11  C   UNL     1       4.131   4.828  18.415  0.00  0.00    +0.000 A 
ENDBRANCH   3   5
BRANCH   1  16
ATOM     12  C   UNL     1       6.121   3.545  12.611  0.00  0.00    +0.000 A 
ATOM     13  C   UNL     1       6.929   4.096  11.614  0.00  0.00    +0.000 A 
ATOM     14  C   UNL     1       7.850   5.090  11.929  0.00  0.00    +0.000 A 
ATOM     15  C   UNL     1       7.982   5.515  13.252  0.00  0.00    +0.000 A 
ATOM     16  C   UNL     1       7.206   4.952  14.278  0.00  0.00    +0.000 A 
ATOM     17  C   UNL     1       6.242   4.000  13.929  0.00  0.00    +0.000 A 
BRANCH  12  19
ATOM     18  C   UNL     1       4.235   2.963  11.290  0.00  0.00    +0.000 C 
ATOM     19  O   UNL     1       5.269   2.563  12.180  0.00  0.00    +0.000 OA
ENDBRANCH  12  19
ENDBRANCH   1  16
BRANCH   2  20
ATOM     20  S   UNL     1       7.367   5.138  18.141  0.00  0.00    +0.000 S 
ATOM     21  H   UNL     1       7.344   6.400  18.591  0.00  0.00    +0.000 HD
ENDBRANCH   2  20
TORSDOF 4
ENDMDL
MODEL 7
REMARK VINA RESULT:      -6.6      3.182      4.014
REMARK  Name = 
REMARK  5 active torsions:
REMARK  status: ('A' for Active; 'I' for Inactive)
REMARK    1  A    between atoms: C_1  and  O_2
REMARK    2  A    between atoms: O_2  and  C_3
REMARK    3  A    between atoms: C_7  and  N_8
REMARK    4  A    between atoms: C_9  and  S_10
REMARK    5  A    between atoms: N_11  and  C_12
REMARK                            x       y       z     vdW  Elec       q    Type
REMARK                         _______ _______ _______ _____ _____    ______ ____
ROOT
ATOM      1  N   UNL     1       4.070   4.118  17.196  0.00  0.00    +0.000 N 
ATOM      2  C   UNL     1       3.187   5.034  17.726  0.00  0.00    +0.000 C 
ATOM      3  N   UNL     1       3.469   6.251  18.065  0.00  0.00    +0.000 NA
ATOM      4  H   UNL     1       3.662   3.200  17.075  0.00  0.00    +0.000 HD
ENDROOT
BRANCH   3   5
ATOM      5  C   UNL     1       2.591   7.184  18.645  0.00  0.00    +0.000 A 
ATOM      6  C   UNL     1       2.244   7.202  20.005  0.00  0.00    +0.000 A 
ATOM      7  C   UNL     1       1.413   8.193  20.533  0.00  0.00    +0.000 A 
ATOM      8  C   UNL     1       0.980   9.228  19.717  0.00  0.00    +0.000 A 
ATOM      9  F   UNL     1       0.221  10.201  20.232  0.00  0.00    +0.000 F 
ATOM     10  C   UNL     1       1.357   9.277  18.382  0.00  0.00    +0.000 A 
ATOM     11  C   UNL     1       2.151   8.254  17.850  0.00  0.00    +0.000 A 
ENDBRANCH   3   5
BRANCH   1  16
ATOM     12  C   UNL     1       6.223   4.121  14.125  0.00  0.00    +0.000 A 
ATOM     13  C   UNL     1       7.347   4.786  14.621  0.00  0.00    +0.000 A 
ATOM     14  C   UNL     1       7.363   5.254  15.931  0.00  0.00    +0.000 A 
ATOM     15  C   UNL     1       6.261   5.030  16.757  0.00  0.00    +0.000 A 
ATOM     16  C   UNL     1       5.133   4.333  16.294  0.00  0.00    +0.000 A 
ATOM     17  C   UNL     1       5.113   3.929  14.955  0.00  0.00    +0.000 A 
BRANCH  12  19
ATOM     18  C   UNL     1       5.132   3.299  12.182  0.00  0.00    +0.000 C 
ATOM     19  O   UNL     1       6.335   3.694  12.829  0.00  0.00    +0.000 OA
ENDBRANCH  12  19
ENDBRANCH   1  16
BRANCH   2  20
ATOM     20  S   UNL     1       1.613   4.257  17.901  0.00  0.00    +0.000 S 
ATOM     21  H   UNL     1       2.087   3.007  17.813  0.00  0.00    +0.000 HD
ENDBRANCH   2  20
TORSDOF 4
ENDMDL
MODEL 8
REMARK VINA RESULT:      -6.5      5.734      7.971
REMARK  Name = 
REMARK  5 active torsions:
REMARK  status: ('A' for Active; 'I' for Inactive)
REMARK    1  A    between atoms: C_1  and  O_2
REMARK    2  A    between atoms: O_2  and  C_3
REMARK    3  A    between atoms: C_7  and  N_8
REMARK    4  A    between atoms: C_9  and  S_10
REMARK    5  A    between atoms: N_11  and  C_12
REMARK                            x       y       z     vdW  Elec       q    Type
REMARK                         _______ _______ _______ _____ _____    ______ ____
ROOT
ATOM      1  N   UNL     1       2.151   7.091  20.742  0.00  0.00    +0.000 N 
ATOM      2  C   UNL     1       1.552   8.298  20.453  0.00  0.00    +0.000 C 
ATOM      3  N   UNL     1       1.356   8.784  19.269  0.00  0.00    +0.000 NA
ATOM      4  H   UNL     1       2.274   6.939  21.735  0.00  0.00    +0.000 HD
ENDROOT
BRANCH   3   5
ATOM      5  C   UNL     1       0.785  10.030  18.958  0.00  0.00    +0.000 A 
ATOM      6  C   UNL     1      -0.596  10.270  18.891  0.00  0.00    +0.000 A 
ATOM      7  C   UNL     1      -1.103  11.547  18.638  0.00  0.00    +0.000 A 
ATOM      8  C   UNL     1      -0.230  12.619  18.525  0.00  0.00    +0.000 A 
ATOM      9  F   UNL     1      -0.717  13.849  18.327  0.00  0.00    +0.000 F 
ATOM     10  C   UNL     1       1.140  12.428  18.651  0.00  0.00    +0.000 A 
ATOM     11  C   UNL     1       1.641  11.138  18.858  0.00  0.00    +0.000 A 
ENDBRANCH   3   5
BRANCH   1  16
ATOM     12  C   UNL     1       2.644   4.371  18.207  0.00  0.00    +0.000 A 
ATOM     13  C   UNL     1       1.766   3.410  18.713  0.00  0.00    +0.000 A 
ATOM     14  C   UNL     1       1.064   3.653  19.889  0.00  0.00    +0.000 A 
ATOM     15  C   UNL     1       1.219   4.874  20.547  0.00  0.00    +0.000 A 
ATOM     16  C   UNL     1       2.069   5.871  20.040  0.00  0.00    +0.000 A 
ATOM     17  C   UNL     1       2.814   5.580  18.892  0.00  0.00    +0.000 A 
BRANCH  12  19
ATOM     18  C   UNL     1       4.605   4.461  16.870  0.00  0.00    +0.000 C 
ATOM     19  O   UNL     1       3.263   4.023  17.036  0.00  0.00    +0.000 OA
ENDBRANCH  12  19
ENDBRANCH   1  16
BRANCH   2  20
ATOM     20  S   UNL     1       1.126   9.090  21.971  0.00  0.00    +0.000 S 
ATOM     21  H   UNL     1       2.380   9.454  22.269  0.00  0.00    +0.000 HD
ENDBRANCH   2  20
TORSDOF 4
ENDMDL
MODEL 9
REMARK VINA RESULT:      -6.5      3.862      7.361
REMARK  Name = 
REMARK  5 active torsions:
REMARK  status: ('A' for Active; 'I' for Inactive)
REMARK    1  A    between atoms: C_1  and  O_2
REMARK    2  A    between atoms: O_2  and  C_3
REMARK    3  A    between atoms: C_7  and  N_8
REMARK    4  A    between atoms: C_9  and  S_10
REMARK    5  A    between atoms: N_11  and  C_12
REMARK                            x       y       z     vdW  Elec       q    Type
REMARK                         _______ _______ _______ _____ _____    ______ ____
ROOT
ATOM      1  N   UNL     1       5.379   3.849  18.910  0.00  0.00    +0.000 N 
ATOM      2  C   UNL     1       5.914   4.139  17.674  0.00  0.00    +0.000 C 
ATOM      3  N   UNL     1       5.329   3.957  16.533  0.00  0.00    +0.000 NA
ATOM      4  H   UNL     1       6.034   3.997  19.668  0.00  0.00    +0.000 HD
ENDROOT
BRANCH   3   5
ATOM      5  C   UNL     1       5.876   4.208  15.262  0.00  0.00    +0.000 A 
ATOM      6  C   UNL     1       7.030   4.975  15.036  0.00  0.00    +0.000 A 
ATOM      7  C   UNL     1       7.559   5.137  13.754  0.00  0.00    +0.000 A 
ATOM      8  C   UNL     1       6.980   4.466  12.686  0.00  0.00    +0.000 A 
ATOM      9  F   UNL     1       7.512   4.586  11.464  0.00  0.00    +0.000 F 
ATOM     10  C   UNL     1       5.875   3.649  12.883  0.00  0.00    +0.000 A 
ATOM     11  C   UNL     1       5.324   3.529  14.164  0.00  0.00    +0.000 A 
ENDBRANCH   3   5
BRANCH   1  16
ATOM     12  C   UNL     1       2.156   5.233  20.239  0.00  0.00    +0.000 A 
ATOM     13  C   UNL     1       1.382   4.070  20.249  0.00  0.00    +0.000 A 
ATOM     14  C   UNL     1       1.914   2.871  19.786  0.00  0.00    +0.000 A 
ATOM     15  C   UNL     1       3.235   2.829  19.337  0.00  0.00    +0.000 A 
ATOM     16  C   UNL     1       4.045   3.976  19.350  0.00  0.00    +0.000 A 
ATOM     17  C   UNL     1       3.470   5.184  19.759  0.00  0.00    +0.000 A 
BRANCH  12  19
ATOM     18  C   UNL     1       1.929   7.597  20.195  0.00  0.00    +0.000 C 
ATOM     19  O   UNL     1       1.528   6.344  20.735  0.00  0.00    +0.000 OA
ENDBRANCH  12  19
ENDBRANCH   1  16
BRANCH   2  20
ATOM     20  S   UNL     1       7.546   4.768  17.902  0.00  0.00    +0.000 S 
ATOM     21  H   UNL     1       7.816   4.010  18.973  0.00  0.00    +0.000 HD
ENDBRANCH   2  20
TORSDOF 4
ENDMDL
