MODEL 1
REMARK VINA RESULT:      -7.2      0.000      0.000
REMARK  Name = 
REMARK  3 active torsions:
REMARK  status: ('A' for Active; 'I' for Inactive)
REMARK    1  A    between atoms: O_1  and  C_2
REMARK    2  A    between atoms: C_8  and  N_9
REMARK    3  A    between atoms: C_10  and  C_11
REMARK                            x       y       z     vdW  Elec       q    Type
REMARK                         _______ _______ _______ _____ _____    ______ ____
ROOT
ATOM      1  N   UNL     1       5.505   4.275  15.871  0.00  0.00    +0.000 NA
ATOM      2  C   UNL     1       4.297   3.839  16.025  0.00  0.00    +0.000 C 
ENDROOT
BRANCH   2   3
ATOM      3  C   UNL     1       3.671   3.759  17.326  0.00  0.00    +0.000 A 
ATOM      4  S   UNL     1       3.100   2.226  17.822  0.00  0.00    +0.000 S 
ATOM      5  C   UNL     1       2.570   2.813  19.346  0.00  0.00    +0.000 A 
ATOM      6  C   UNL     1       1.963   2.059  20.371  0.00  0.00    +0.000 A 
ATOM      7  C   UNL     1       1.601   2.695  21.558  0.00  0.00    +0.000 A 
ATOM      8  C   UNL     1       1.838   4.052  21.728  0.00  0.00    +0.000 A 
ATOM      9  C   UNL     1       2.439   4.796  20.706  0.00  0.00    +0.000 A 
ATOM     10  C   UNL     1       2.820   4.180  19.482  0.00  0.00    +0.000 A 
ATOM     11  C   UNL     1       3.450   4.715  18.297  0.00  0.00    +0.000 A 
ATOM     12 CL   UNL     1       3.884   6.377  18.194  0.00  0.00    +0.000 Cl
ENDBRANCH   2   3
BRANCH   1  19
ATOM     13  C   UNL     1       7.213   5.058  14.209  0.00  0.00    +0.000 A 
ATOM     14  C   UNL     1       7.742   4.973  12.915  0.00  0.00    +0.000 A 
ATOM     15  C   UNL     1       7.157   4.118  11.983  0.00  0.00    +0.000 A 
ATOM     16  C   UNL     1       6.049   3.356  12.347  0.00  0.00    +0.000 A 
ATOM     17 CL   UNL     1       5.339   2.288  11.200  0.00  0.00    +0.000 Cl
ATOM     18  C   UNL     1       5.521   3.444  13.634  0.00  0.00    +0.000 A 
ATOM     19  C   UNL     1       6.086   4.301  14.586  0.00  0.00    +0.000 A 
BRANCH  13  20
ATOM     20  O   UNL     1       7.820   5.888  15.114  0.00  0.00    +0.000 OA
ATOM     21  H   UNL     1       7.376   5.799  15.974  0.00  0.00    +0.000 HD
ENDBRANCH  13  20
ENDBRANCH   1  19
TORSDOF 3
ENDMDL
MODEL 2
REMARK VINA RESULT:      -6.8      1.192      1.210
REMARK  Name = 
REMARK  3 active torsions:
REMARK  status: ('A' for Active; 'I' for Inactive)
REMARK    1  A    between atoms: O_1  and  C_2
REMARK    2  A    between atoms: C_8  and  N_9
REMARK    3  A    between atoms: C_10  and  C_11
REMARK                            x       y       z     vdW  Elec       q    Type
REMARK                         _______ _______ _______ _____ _____    ______ ____
ROOT
ATOM      1  N   UNL     1       5.559   3.775  16.043  0.00  0.00    +0.000 NA
ATOM      2  C   UNL     1       4.328   4.094  16.277  0.00  0.00    +0.000 C 
ENDROOT
BRANCH   2   3
ATOM      3  C   UNL     1       3.681   3.778  17.531  0.00  0.00    +0.000 A 
ATOM      4  S   UNL     1       4.635   3.020  18.730  0.00  0.00    +0.000 S 
ATOM      5  C   UNL     1       3.348   2.988  19.866  0.00  0.00    +0.000 A 
ATOM      6  C   UNL     1       3.401   2.483  21.181  0.00  0.00    +0.000 A 
ATOM      7  C   UNL     1       2.259   2.544  21.978  0.00  0.00    +0.000 A 
ATOM      8  C   UNL     1       1.086   3.098  21.484  0.00  0.00    +0.000 A 
ATOM      9  C   UNL     1       1.038   3.595  20.177  0.00  0.00    +0.000 A 
ATOM     10  C   UNL     1       2.184   3.548  19.336  0.00  0.00    +0.000 A 
ATOM     11  C   UNL     1       2.392   3.992  17.976  0.00  0.00    +0.000 A 
ATOM     12 CL   UNL     1       1.125   4.736  17.080  0.00  0.00    +0.000 Cl
ENDBRANCH   2   3
BRANCH   1  19
ATOM     13  C   UNL     1       7.131   5.045  14.555  0.00  0.00    +0.000 A 
ATOM     14  C   UNL     1       7.676   5.227  13.279  0.00  0.00    +0.000 A 
ATOM     15  C   UNL     1       7.244   4.429  12.220  0.00  0.00    +0.000 A 
ATOM     16  C   UNL     1       6.271   3.458  12.443  0.00  0.00    +0.000 A 
ATOM     17 CL   UNL     1       5.751   2.462  11.140  0.00  0.00    +0.000 Cl
ATOM     18  C   UNL     1       5.726   3.279  13.714  0.00  0.00    +0.000 A 
ATOM     19  C   UNL     1       6.138   4.073  14.791  0.00  0.00    +0.000 A 
BRANCH  13  20
ATOM     20  O   UNL     1       7.589   5.825  15.584  0.00  0.00    +0.000 OA
ATOM     21  H   UNL     1       8.550   5.710  15.668  0.00  0.00    +0.000 HD
ENDBRANCH  13  20
ENDBRANCH   1  19
TORSDOF 3
ENDMDL
MODEL 3
REMARK VINA RESULT:      -6.8      1.487      1.851
REMARK  Name = 
REMARK  3 active torsions:
REMARK  status: ('A' for Active; 'I' for Inactive)
REMARK    1  A    between atoms: O_1  and  C_2
REMARK    2  A    between atoms: C_8  and  N_9
REMARK    3  A    between atoms: C_10  and  C_11
REMARK                            x       y       z     vdW  Elec       q    Type
REMARK                         _______ _______ _______ _____ _____    ______ ____
ROOT
ATOM      1  N   UNL     1       5.331   4.569  15.596  0.00  0.00    +0.000 NA
ATOM      2  C   UNL     1       4.692   3.574  16.120  0.00  0.00    +0.000 C 
ENDROOT
BRANCH   2   3
ATOM      3  C   UNL     1       4.054   3.670  17.414  0.00  0.00    +0.000 A 
ATOM      4  S   UNL     1       3.604   5.231  17.946  0.00  0.00    +0.000 S 
ATOM      5  C   UNL     1       2.919   4.638  19.405  0.00  0.00    +0.000 A 
ATOM      6  C   UNL     1       2.297   5.404  20.412  0.00  0.00    +0.000 A 
ATOM      7  C   UNL     1       1.782   4.757  21.535  0.00  0.00    +0.000 A 
ATOM      8  C   UNL     1       1.877   3.378  21.657  0.00  0.00    +0.000 A 
ATOM      9  C   UNL     1       2.497   2.623  20.654  0.00  0.00    +0.000 A 
ATOM     10  C   UNL     1       3.035   3.250  19.496  0.00  0.00    +0.000 A 
ATOM     11  C   UNL     1       3.705   2.705  18.337  0.00  0.00    +0.000 A 
ATOM     12 CL   UNL     1       3.973   1.012  18.179  0.00  0.00    +0.000 Cl
ENDBRANCH   2   3
BRANCH   1  19
ATOM     13  C   UNL     1       7.191   5.008  13.970  0.00  0.00    +0.000 A 
ATOM     14  C   UNL     1       7.763   4.751  12.719  0.00  0.00    +0.000 A 
ATOM     15  C   UNL     1       7.125   3.889  11.828  0.00  0.00    +0.000 A 
ATOM     16  C   UNL     1       5.922   3.290  12.193  0.00  0.00    +0.000 A 
ATOM     17 CL   UNL     1       5.144   2.213  11.100  0.00  0.00    +0.000 Cl
ATOM     18  C   UNL     1       5.350   3.549  13.439  0.00  0.00    +0.000 A 
ATOM     19  C   UNL     1       5.968   4.418  14.347  0.00  0.00    +0.000 A 
BRANCH  13  20
ATOM     20  O   UNL     1       7.849   5.841  14.837  0.00  0.00    +0.000 OA
ATOM     21  H   UNL     1       8.572   5.351  15.261  0.00  0.00    +0.000 HD
ENDBRANCH  13  20
ENDBRANCH   1  19
TORSDOF 3
ENDMDL
MODEL 4
REMARK VINA RESULT:      -6.7      5.024      6.621
REMARK  Name = 
REMARK  3 active torsions:
REMARK  status: ('A' for Active; 'I' for Inactive)
REMARK    1  A    between atoms: O_1  and  C_2
REMARK    2  A    between atoms: C_8  and  N_9
REMARK    3  A    between atoms: C_10  and  C_11
REMARK                            x       y       z     vdW  Elec       q    Type
REMARK                         _______ _______ _______ _____ _____    ______ ____
ROOT
ATOM      1  N   UNL     1       2.495   6.333  19.524  0.00  0.00    +0.000 NA
ATOM      2  C   UNL     1       2.326   7.563  19.163  0.00  0.00    +0.000 C 
ENDROOT
BRANCH   2   3
ATOM      3  C   UNL     1       1.502   8.477  19.922  0.00  0.00    +0.000 A 
ATOM      4  S   UNL     1       0.984   7.959  21.467  0.00  0.00    +0.000 S 
ATOM      5  C   UNL     1       0.163   9.432  21.788  0.00  0.00    +0.000 A 
ATOM      6  C   UNL     1      -0.542   9.762  22.964  0.00  0.00    +0.000 A 
ATOM      7  C   UNL     1      -1.146  11.014  23.064  0.00  0.00    +0.000 A 
ATOM      8  C   UNL     1      -1.052  11.925  22.022  0.00  0.00    +0.000 A 
ATOM      9  C   UNL     1      -0.353  11.592  20.857  0.00  0.00    +0.000 A 
ATOM     10  C   UNL     1       0.274  10.323  20.719  0.00  0.00    +0.000 A 
ATOM     11  C   UNL     1       1.046   9.749  19.640  0.00  0.00    +0.000 A 
ATOM     12 CL   UNL     1       1.354  10.635  18.197  0.00  0.00    +0.000 Cl
ENDBRANCH   2   3
BRANCH   1  19
ATOM     13  C   UNL     1       2.787   4.536  17.796  0.00  0.00    +0.000 A 
ATOM     14  C   UNL     1       3.657   3.759  17.023  0.00  0.00    +0.000 A 
ATOM     15  C   UNL     1       5.035   3.911  17.167  0.00  0.00    +0.000 A 
ATOM     16  C   UNL     1       5.535   4.836  18.080  0.00  0.00    +0.000 A 
ATOM     17 CL   UNL     1       7.236   5.035  18.243  0.00  0.00    +0.000 Cl
ATOM     18  C   UNL     1       4.667   5.608  18.853  0.00  0.00    +0.000 A 
ATOM     19  C   UNL     1       3.279   5.468  18.733  0.00  0.00    +0.000 A 
BRANCH  13  20
ATOM     20  O   UNL     1       1.437   4.385  17.621  0.00  0.00    +0.000 OA
ATOM     21  H   UNL     1       1.090   5.157  17.144  0.00  0.00    +0.000 HD
ENDBRANCH  13  20
ENDBRANCH   1  19
TORSDOF 3
ENDMDL
MODEL 5
REMARK VINA RESULT:      -6.7      4.989      8.181
REMARK  Name = 
REMARK  3 active torsions:
REMARK  status: ('A' for Active; 'I' for Inactive)
REMARK    1  A    between atoms: O_1  and  C_2
REMARK    2  A    between atoms: C_8  and  N_9
REMARK    3  A    between atoms: C_10  and  C_11
REMARK                            x       y       z     vdW  Elec       q    Type
REMARK                         _______ _______ _______ _____ _____    ______ ____
ROOT
ATOM      1  N   UNL     1       1.459   8.640  19.312  0.00  0.00    +0.000 NA
ATOM      2  C   UNL     1       1.874   7.724  20.124  0.00  0.00    +0.000 C 
ENDROOT
BRANCH   2   3
ATOM      3  C   UNL     1       2.297   6.421  19.659  0.00  0.00    +0.000 A 
ATOM      4  S   UNL     1       1.732   5.062  20.530  0.00  0.00    +0.000 S 
ATOM      5  C   UNL     1       2.518   3.949  19.485  0.00  0.00    +0.000 A 
ATOM      6  C   UNL     1       2.488   2.543  19.581  0.00  0.00    +0.000 A 
ATOM      7  C   UNL     1       3.178   1.784  18.636  0.00  0.00    +0.000 A 
ATOM      8  C   UNL     1       3.881   2.405  17.614  0.00  0.00    +0.000 A 
ATOM      9  C   UNL     1       3.909   3.801  17.525  0.00  0.00    +0.000 A 
ATOM     10  C   UNL     1       3.218   4.607  18.472  0.00  0.00    +0.000 A 
ATOM     11  C   UNL     1       3.088   6.041  18.594  0.00  0.00    +0.000 A 
ATOM     12 CL   UNL     1       3.842   7.102  17.467  0.00  0.00    +0.000 Cl
ENDBRANCH   2   3
BRANCH   1  19
ATOM     13  C   UNL     1       1.161  11.127  19.168  0.00  0.00    +0.000 A 
ATOM     14  C   UNL     1       0.646  12.299  19.734  0.00  0.00    +0.000 A 
ATOM     15  C   UNL     1      -0.029  12.241  20.953  0.00  0.00    +0.000 A 
ATOM     16  C   UNL     1      -0.183  11.016  21.597  0.00  0.00    +0.000 A 
ATOM     17 CL   UNL     1      -1.031  10.943  23.092  0.00  0.00    +0.000 Cl
ATOM     18  C   UNL     1       0.334   9.849  21.034  0.00  0.00    +0.000 A 
ATOM     19  C   UNL     1       1.022   9.883  19.815  0.00  0.00    +0.000 A 
BRANCH  13  20
ATOM     20  O   UNL     1       1.800  11.206  17.958  0.00  0.00    +0.000 OA
ATOM     21  H   UNL     1       1.137  11.245  17.250  0.00  0.00    +0.000 HD
ENDBRANCH  13  20
ENDBRANCH   1  19
TORSDOF 3
ENDMDL
MODEL 6
REMARK VINA RESULT:      -6.7      5.091      6.589
REMARK  Name = 
REMARK  3 active torsions:
REMARK  status: ('A' for Active; 'I' for Inactive)
REMARK    1  A    between atoms: O_1  and  C_2
REMARK    2  A    between atoms: C_8  and  N_9
REMARK    3  A    between atoms: C_10  and  C_11
REMARK                            x       y       z     vdW  Elec       q    Type
REMARK                         _______ _______ _______ _____ _____    ______ ____
ROOT
ATOM      1  N   UNL     1       2.393   6.364  19.567  0.00  0.00    +0.000 NA
ATOM      2  C   UNL     1       2.284   7.609  19.236  0.00  0.00    +0.000 C 
ENDROOT
BRANCH   2   3
ATOM      3  C   UNL     1       1.455   8.530  19.982  0.00  0.00    +0.000 A 
ATOM      4  S   UNL     1       0.930   8.026  21.530  0.00  0.00    +0.000 S 
ATOM      5  C   UNL     1       0.105   9.501  21.833  0.00  0.00    +0.000 A 
ATOM      6  C   UNL     1      -0.606   9.840  23.002  0.00  0.00    +0.000 A 
ATOM      7  C   UNL     1      -1.213  11.093  23.087  0.00  0.00    +0.000 A 
ATOM      8  C   UNL     1      -1.115  11.994  22.037  0.00  0.00    +0.000 A 
ATOM      9  C   UNL     1      -0.410  11.651  20.878  0.00  0.00    +0.000 A 
ATOM     10  C   UNL     1       0.220  10.381  20.756  0.00  0.00    +0.000 A 
ATOM     11  C   UNL     1       0.998   9.798  19.686  0.00  0.00    +0.000 A 
ATOM     12 CL   UNL     1       1.311  10.670  18.236  0.00  0.00    +0.000 Cl
ENDBRANCH   2   3
BRANCH   1  19
ATOM     13  C   UNL     1       3.339   4.111  18.999  0.00  0.00    +0.000 A 
ATOM     14  C   UNL     1       4.113   3.328  18.134  0.00  0.00    +0.000 A 
ATOM     15  C   UNL     1       4.736   3.919  17.036  0.00  0.00    +0.000 A 
ATOM     16  C   UNL     1       4.582   5.284  16.809  0.00  0.00    +0.000 A 
ATOM     17 CL   UNL     1       5.337   6.009  15.443  0.00  0.00    +0.000 Cl
ATOM     18  C   UNL     1       3.814   6.064  17.674  0.00  0.00    +0.000 A 
ATOM     19  C   UNL     1       3.186   5.496  18.788  0.00  0.00    +0.000 A 
BRANCH  13  20
ATOM     20  O   UNL     1       2.719   3.503  20.059  0.00  0.00    +0.000 OA
ATOM     21  H   UNL     1       2.103   2.831  19.724  0.00  0.00    +0.000 HD
ENDBRANCH  13  20
ENDBRANCH   1  19
TORSDOF 3
ENDMDL
MODEL 7
REMARK VINA RESULT:      -6.6      4.884      8.588
REMARK  Name = 
REMARK  3 active torsions:
REMARK  status: ('A' for Active; 'I' for Inactive)
REMARK    1  A    between atoms: O_1  and  C_2
REMARK    2  A    between atoms: C_8  and  N_9
REMARK    3  A    between atoms: C_10  and  C_11
REMARK                            x       y       z     vdW  Elec       q    Type
REMARK                         _______ _______ _______ _____ _____    ______ ____
ROOT
ATOM      1  N   UNL     1       1.783   8.768  18.784  0.00  0.00    +0.000 NA
ATOM      2  C   UNL     1       2.085   7.557  19.123  0.00  0.00    +0.000 C 
ENDROOT
BRANCH   2   3
ATOM      3  C   UNL     1       2.930   6.719  18.301  0.00  0.00    +0.000 A 
ATOM      4  S   UNL     1       4.080   7.507  17.311  0.00  0.00    +0.000 S 
ATOM      5  C   UNL     1       4.709   6.029  16.704  0.00  0.00    +0.000 A 
ATOM      6  C   UNL     1       5.765   5.881  15.783  0.00  0.00    +0.000 A 
ATOM      7  C   UNL     1       6.159   4.599  15.403  0.00  0.00    +0.000 A 
ATOM      8  C   UNL     1       5.521   3.483  15.926  0.00  0.00    +0.000 A 
ATOM      9  C   UNL     1       4.471   3.636  16.839  0.00  0.00    +0.000 A 
ATOM     10  C   UNL     1       4.043   4.929  17.249  0.00  0.00    +0.000 A 
ATOM     11  C   UNL     1       3.007   5.348  18.165  0.00  0.00    +0.000 A 
ATOM     12 CL   UNL     1       2.032   4.196  18.993  0.00  0.00    +0.000 Cl
ENDBRANCH   2   3
BRANCH   1  19
ATOM     13  C   UNL     1       0.044  10.539  19.152  0.00  0.00    +0.000 A 
ATOM     14  C   UNL     1      -0.802  11.209  20.044  0.00  0.00    +0.000 A 
ATOM     15  C   UNL     1      -0.786  10.875  21.397  0.00  0.00    +0.000 A 
ATOM     16  C   UNL     1       0.073   9.878  21.851  0.00  0.00    +0.000 A 
ATOM     17 CL   UNL     1       0.079   9.455  23.519  0.00  0.00    +0.000 Cl
ATOM     18  C   UNL     1       0.919   9.213  20.963  0.00  0.00    +0.000 A 
ATOM     19  C   UNL     1       0.927   9.536  19.600  0.00  0.00    +0.000 A 
BRANCH  13  20
ATOM     20  O   UNL     1      -0.006  10.868  17.823  0.00  0.00    +0.000 OA
ATOM     21  H   UNL     1      -0.923  11.074  17.581  0.00  0.00    +0.000 HD
ENDBRANCH  13  20
ENDBRANCH   1  19
TORSDOF 3
ENDMDL
MODEL 8
REMARK VINA RESULT:      -6.6      5.536      7.662
REMARK  Name = 
REMARK  3 active torsions:
REMARK  status: ('A' for Active; 'I' for Inactive)
REMARK    1  A    between atoms: O_1  and  C_2
REMARK    2  A    between atoms: C_8  and  N_9
REMARK    3  A    between atoms: C_10  and  C_11
REMARK                            x       y       z     vdW  Elec       q    Type
REMARK                         _______ _______ _______ _____ _____    ______ ____
ROOT
ATOM      1  N   UNL     1       1.745   6.210  20.580  0.00  0.00    +0.000 NA
ATOM      2  C   UNL     1       2.036   7.371  20.091  0.00  0.00    +0.000 C 
ENDROOT
BRANCH   2   3
ATOM      3  C   UNL     1       1.260   8.551  20.402  0.00  0.00    +0.000 A 
ATOM      4  S   UNL     1       0.775   8.756  22.029  0.00  0.00    +0.000 S 
ATOM      5  C   UNL     1       0.002  10.256  21.707  0.00  0.00    +0.000 A 
ATOM      6  C   UNL     1      -0.657  11.078  22.642  0.00  0.00    +0.000 A 
ATOM      7  C   UNL     1      -1.225  12.276  22.211  0.00  0.00    +0.000 A 
ATOM      8  C   UNL     1      -1.140  12.655  20.878  0.00  0.00    +0.000 A 
ATOM      9  C   UNL     1      -0.485  11.833  19.954  0.00  0.00    +0.000 A 
ATOM     10  C   UNL     1       0.105  10.604  20.359  0.00  0.00    +0.000 A 
ATOM     11  C   UNL     1       0.828   9.598  19.614  0.00  0.00    +0.000 A 
ATOM     12 CL   UNL     1       1.115   9.776  17.926  0.00  0.00    +0.000 Cl
ENDBRANCH   2   3
BRANCH   1  19
ATOM     13  C   UNL     1       2.101   3.738  20.338  0.00  0.00    +0.000 A 
ATOM     14  C   UNL     1       2.921   2.691  19.903  0.00  0.00    +0.000 A 
ATOM     15  C   UNL     1       4.160   2.974  19.331  0.00  0.00    +0.000 A 
ATOM     16  C   UNL     1       4.572   4.297  19.198  0.00  0.00    +0.000 A 
ATOM     17 CL   UNL     1       6.094   4.645  18.475  0.00  0.00    +0.000 Cl
ATOM     18  C   UNL     1       3.756   5.340  19.635  0.00  0.00    +0.000 A 
ATOM     19  C   UNL     1       2.510   5.082  20.220  0.00  0.00    +0.000 A 
BRANCH  13  20
ATOM     20  O   UNL     1       0.877   3.437  20.877  0.00  0.00    +0.000 OA
ATOM     21  H   UNL     1       1.007   3.018  21.744  0.00  0.00    +0.000 HD
ENDBRANCH  13  20
ENDBRANCH   1  19
TORSDOF 3
ENDMDL
MODEL 9
REMARK VINA RESULT:      -6.5      5.435      8.741
REMARK  Name = 
REMARK  3 active torsions:
REMARK  status: ('A' for Active; 'I' for Inactive)
REMARK    1  A    between atoms: O_1  and  C_2
REMARK    2  A    between atoms: C_8  and  N_9
REMARK    3  A    between atoms: C_10  and  C_11
REMARK                            x       y       z     vdW  Elec       q    Type
REMARK                         _______ _______ _______ _____ _____    ______ ____
ROOT
ATOM      1  N   UNL     1       0.765   8.250  20.917  0.00  0.00    +0.000 NA
ATOM      2  C   UNL     1       1.740   8.090  20.083  0.00  0.00    +0.000 C 
ENDROOT
BRANCH   2   3
ATOM      3  C   UNL     1       2.221   6.779  19.709  0.00  0.00    +0.000 A 
ATOM      4  S   UNL     1       1.732   5.463  20.686  0.00  0.00    +0.000 S 
ATOM      5  C   UNL     1       2.559   4.314  19.714  0.00  0.00    +0.000 A 
ATOM      6  C   UNL     1       2.598   2.919  19.913  0.00  0.00    +0.000 A 
ATOM      7  C   UNL     1       3.313   2.126  19.018  0.00  0.00    +0.000 A 
ATOM      8  C   UNL     1       3.975   2.701  17.942  0.00  0.00    +0.000 A 
ATOM      9  C   UNL     1       3.934   4.087  17.750  0.00  0.00    +0.000 A 
ATOM     10  C   UNL     1       3.215   4.927  18.645  0.00  0.00    +0.000 A 
ATOM     11  C   UNL     1       3.017   6.359  18.663  0.00  0.00    +0.000 A 
ATOM     12 CL   UNL     1       3.706   7.367  17.451  0.00  0.00    +0.000 Cl
ENDBRANCH   2   3
BRANCH   1  19
ATOM     13  C   UNL     1      -0.396   9.886  22.424  0.00  0.00    +0.000 A 
ATOM     14  C   UNL     1      -0.710  11.219  22.717  0.00  0.00    +0.000 A 
ATOM     15  C   UNL     1      -0.268  12.237  21.874  0.00  0.00    +0.000 A 
ATOM     16  C   UNL     1       0.484  11.918  20.746  0.00  0.00    +0.000 A 
ATOM     17 CL   UNL     1       1.045  13.178  19.716  0.00  0.00    +0.000 Cl
ATOM     18  C   UNL     1       0.793  10.590  20.452  0.00  0.00    +0.000 A 
ATOM     19  C   UNL     1       0.353   9.550  21.278  0.00  0.00    +0.000 A 
BRANCH  13  20
ATOM     20  O   UNL     1      -0.824   8.905  23.279  0.00  0.00    +0.000 OA
ATOM     21  H   UNL     1      -1.418   8.304  22.802  0.00  0.00    +0.000 HD
ENDBRANCH  13  20
ENDBRANCH   1  19
TORSDOF 3
ENDMDL
