MODEL 1
REMARK VINA RESULT:      -6.7      0.000      0.000
REMARK  Name = 
REMARK  7 active torsions:
REMARK  status: ('A' for Active; 'I' for Inactive)
REMARK    1  A    between atoms: C_1  and  C_2
REMARK    2  A    between atoms: C_2  and  N_3
REMARK    3  A    between atoms: N_6  and  C_7
REMARK    4  A    between atoms: C_7  and  C_8
REMARK    5  A    between atoms: N_10  and  C_11
REMARK    6  A    between atoms: C_19  and  C_20
REMARK    7  A    between atoms: C_20  and  O_21
REMARK                            x       y       z     vdW  Elec       q    Type
REMARK                         _______ _______ _______ _____ _____    ______ ____
ROOT
ATOM      1  C   UNL     1       2.551   6.140  20.441  0.00  0.00    +0.000 C 
ATOM      2  C   UNL     1       3.318   6.216  19.112  0.00  0.00    +0.000 C 
ATOM      3  N   UNL     1       4.134   5.016  19.174  0.00  0.00    +0.000 N 
ATOM      4  C   UNL     1       3.374   3.931  19.782  0.00  0.00    +0.000 C 
ATOM      5  C   UNL     1       2.312   4.622  20.663  0.00  0.00    +0.000 C 
ENDROOT
BRANCH   3   6
ATOM      6  C   UNL     1       5.056   4.763  18.172  0.00  0.00    +0.000 A 
ATOM      7  N   UNL     1       4.587   4.367  16.961  0.00  0.00    +0.000 NA
ATOM      8  C   UNL     1       5.477   4.160  15.957  0.00  0.00    +0.000 A 
ATOM      9  C   UNL     1       6.841   4.330  16.081  0.00  0.00    +0.000 A 
ATOM     10  C   UNL     1       7.330   4.741  17.308  0.00  0.00    +0.000 A 
ATOM     11  C   UNL     1       6.434   4.958  18.353  0.00  0.00    +0.000 A 
ATOM     12  F   UNL     1       6.940   5.375  19.524  0.00  0.00    +0.000 F 
ENDBRANCH   3   6
BRANCH   1  13
ATOM     13  C   UNL     1       1.366   7.110  20.473  0.00  0.00    +0.000 C 
BRANCH  13  17
ATOM     14  N   UNL     1      -0.778  10.149  21.308  0.00  0.00    +0.000 NA
ATOM     15  C   UNL     1      -0.324   9.818  19.940  0.00  0.00    +0.000 C 
ATOM     16  C   UNL     1       1.185   9.497  19.795  0.00  0.00    +0.000 C 
ATOM     17  N   UNL     1       1.730   8.511  20.760  0.00  0.00    +0.000 NA
ATOM     18  C   UNL     1       1.282   8.899  22.121  0.00  0.00    +0.000 C 
ATOM     19  C   UNL     1      -0.244   9.135  22.244  0.00  0.00    +0.000 C 
BRANCH  14  21
ATOM     20  C   UNL     1      -1.251  12.049  22.896  0.00  0.00    +0.000 C 
ATOM     21  C   UNL     1      -0.398  11.498  21.760  0.00  0.00    +0.000 C 
ENDBRANCH  14  21
ENDBRANCH  13  17
ENDBRANCH   1  13
BRANCH   5  22
ATOM     22  C   UNL     1       0.933   4.029  20.373  0.00  0.00    +0.000 C 
BRANCH  22  23
ATOM     23  O   UNL     1       0.687   2.836  21.102  0.00  0.00    +0.000 OA
ATOM     24  H   UNL     1      -0.003   3.032  21.773  0.00  0.00    +0.000 HD
ENDBRANCH  22  23
ENDBRANCH   5  22
TORSDOF 6
ENDMDL
MODEL 2
REMARK VINA RESULT:      -6.7      1.152      1.413
REMARK  Name = 
REMARK  7 active torsions:
REMARK  status: ('A' for Active; 'I' for Inactive)
REMARK    1  A    between atoms: C_1  and  C_2
REMARK    2  A    between atoms: C_2  and  N_3
REMARK    3  A    between atoms: N_6  and  C_7
REMARK    4  A    between atoms: C_7  and  C_8
REMARK    5  A    between atoms: N_10  and  C_11
REMARK    6  A    between atoms: C_19  and  C_20
REMARK    7  A    between atoms: C_20  and  O_21
REMARK                            x       y       z     vdW  Elec       q    Type
REMARK                         _______ _______ _______ _____ _____    ______ ____
ROOT
ATOM      1  C   UNL     1       2.557   6.124  20.456  0.00  0.00    +0.000 C 
ATOM      2  C   UNL     1       3.295   6.226  19.112  0.00  0.00    +0.000 C 
ATOM      3  N   UNL     1       4.127   5.036  19.142  0.00  0.00    +0.000 N 
ATOM      4  C   UNL     1       3.394   3.934  19.752  0.00  0.00    +0.000 C 
ATOM      5  C   UNL     1       2.342   4.601  20.663  0.00  0.00    +0.000 C 
ENDROOT
BRANCH   3   6
ATOM      6  C   UNL     1       5.031   4.808  18.118  0.00  0.00    +0.000 A 
ATOM      7  N   UNL     1       6.346   5.041  18.365  0.00  0.00    +0.000 NA
ATOM      8  C   UNL     1       7.247   4.777  17.384  0.00  0.00    +0.000 A 
ATOM      9  C   UNL     1       6.916   4.279  16.140  0.00  0.00    +0.000 A 
ATOM     10  C   UNL     1       5.581   4.030  15.879  0.00  0.00    +0.000 A 
ATOM     11  C   UNL     1       4.639   4.294  16.871  0.00  0.00    +0.000 A 
ATOM     12  F   UNL     1       3.354   4.023  16.592  0.00  0.00    +0.000 F 
ENDBRANCH   3   6
BRANCH   1  13
ATOM     13  C   UNL     1       1.361   7.079  20.524  0.00  0.00    +0.000 C 
BRANCH  13  17
ATOM     14  N   UNL     1      -0.790  10.143  21.241  0.00  0.00    +0.000 NA
ATOM     15  C   UNL     1      -0.356   9.747  19.884  0.00  0.00    +0.000 C 
ATOM     16  C   UNL     1       1.153   9.428  19.730  0.00  0.00    +0.000 C 
ATOM     17  N   UNL     1       1.720   8.495  20.735  0.00  0.00    +0.000 NA
ATOM     18  C   UNL     1       1.291   8.948  22.081  0.00  0.00    +0.000 C 
ATOM     19  C   UNL     1      -0.234   9.181  22.218  0.00  0.00    +0.000 C 
BRANCH  14  21
ATOM     20  C   UNL     1      -1.117  12.048  22.860  0.00  0.00    +0.000 C 
ATOM     21  C   UNL     1      -0.412  11.515  21.618  0.00  0.00    +0.000 C 
ENDBRANCH  14  21
ENDBRANCH  13  17
ENDBRANCH   1  13
BRANCH   5  22
ATOM     22  C   UNL     1       0.964   3.994  20.395  0.00  0.00    +0.000 C 
BRANCH  22  23
ATOM     23  O   UNL     1       0.755   2.782  21.102  0.00  0.00    +0.000 OA
ATOM     24  H   UNL     1       0.668   3.001  22.055  0.00  0.00    +0.000 HD
ENDBRANCH  22  23
ENDBRANCH   5  22
TORSDOF 6
ENDMDL
MODEL 3
REMARK VINA RESULT:      -6.6      3.642      5.568
REMARK  Name = 
REMARK  7 active torsions:
REMARK  status: ('A' for Active; 'I' for Inactive)
REMARK    1  A    between atoms: C_1  and  C_2
REMARK    2  A    between atoms: C_2  and  N_3
REMARK    3  A    between atoms: N_6  and  C_7
REMARK    4  A    between atoms: C_7  and  C_8
REMARK    5  A    between atoms: N_10  and  C_11
REMARK    6  A    between atoms: C_19  and  C_20
REMARK    7  A    between atoms: C_20  and  O_21
REMARK                            x       y       z     vdW  Elec       q    Type
REMARK                         _______ _______ _______ _____ _____    ______ ____
ROOT
ATOM      1  C   UNL     1       5.749   6.545  17.027  0.00  0.00    +0.000 C 
ATOM      2  C   UNL     1       5.270   5.760  15.797  0.00  0.00    +0.000 C 
ATOM      3  N   UNL     1       6.529   5.343  15.205  0.00  0.00    +0.000 N 
ATOM      4  C   UNL     1       7.478   4.994  16.255  0.00  0.00    +0.000 C 
ATOM      5  C   UNL     1       7.021   5.789  17.497  0.00  0.00    +0.000 C 
ENDROOT
BRANCH   3   6
ATOM      6  C   UNL     1       6.526   4.666  13.997  0.00  0.00    +0.000 A 
ATOM      7  N   UNL     1       5.496   3.818  13.745  0.00  0.00    +0.000 NA
ATOM      8  C   UNL     1       5.457   3.183  12.545  0.00  0.00    +0.000 A 
ATOM      9  C   UNL     1       6.401   3.344  11.551  0.00  0.00    +0.000 A 
ATOM     10  C   UNL     1       7.452   4.211  11.793  0.00  0.00    +0.000 A 
ATOM     11  C   UNL     1       7.511   4.873  13.018  0.00  0.00    +0.000 A 
ATOM     12  F   UNL     1       8.533   5.721  13.213  0.00  0.00    +0.000 F 
ENDBRANCH   3   6
BRANCH   1  13
ATOM     13  C   UNL     1       4.609   6.806  18.017  0.00  0.00    +0.000 C 
BRANCH  13  17
ATOM     14  N   UNL     1       2.314   5.139  20.564  0.00  0.00    +0.000 NA
ATOM     15  C   UNL     1       3.491   4.474  19.964  0.00  0.00    +0.000 C 
ATOM     16  C   UNL     1       3.598   4.569  18.421  0.00  0.00    +0.000 C 
ATOM     17  N   UNL     1       3.436   5.926  17.845  0.00  0.00    +0.000 NA
ATOM     18  C   UNL     1       2.228   6.543  18.446  0.00  0.00    +0.000 C 
ATOM     19  C   UNL     1       2.194   6.499  19.994  0.00  0.00    +0.000 C 
BRANCH  14  21
ATOM     20  C   UNL     1       1.106   2.938  20.788  0.00  0.00    +0.000 C 
ATOM     21  C   UNL     1       1.050   4.406  20.384  0.00  0.00    +0.000 C 
ENDBRANCH  14  21
ENDBRANCH  13  17
ENDBRANCH   1  13
BRANCH   5  22
ATOM     22  C   UNL     1       6.937   4.858  18.706  0.00  0.00    +0.000 C 
BRANCH  22  23
ATOM     23  O   UNL     1       7.322   5.496  19.914  0.00  0.00    +0.000 OA
ATOM     24  H   UNL     1       6.817   6.335  19.984  0.00  0.00    +0.000 HD
ENDBRANCH  22  23
ENDBRANCH   5  22
TORSDOF 6
ENDMDL
MODEL 4
REMARK VINA RESULT:      -6.4      4.090      5.808
REMARK  Name = 
REMARK  7 active torsions:
REMARK  status: ('A' for Active; 'I' for Inactive)
REMARK    1  A    between atoms: C_1  and  C_2
REMARK    2  A    between atoms: C_2  and  N_3
REMARK    3  A    between atoms: N_6  and  C_7
REMARK    4  A    between atoms: C_7  and  C_8
REMARK    5  A    between atoms: N_10  and  C_11
REMARK    6  A    between atoms: C_19  and  C_20
REMARK    7  A    between atoms: C_20  and  O_21
REMARK                            x       y       z     vdW  Elec       q    Type
REMARK                         _______ _______ _______ _____ _____    ______ ____
ROOT
ATOM      1  C   UNL     1       5.111   6.318  16.948  0.00  0.00    +0.000 C 
ATOM      2  C   UNL     1       4.934   5.288  15.823  0.00  0.00    +0.000 C 
ATOM      3  N   UNL     1       6.194   5.409  15.111  0.00  0.00    +0.000 N 
ATOM      4  C   UNL     1       7.281   5.615  16.060  0.00  0.00    +0.000 C 
ATOM      5  C   UNL     1       6.620   6.245  17.305  0.00  0.00    +0.000 C 
ENDROOT
BRANCH   3   6
ATOM      6  C   UNL     1       6.395   4.686  13.947  0.00  0.00    +0.000 A 
ATOM      7  N   UNL     1       5.474   3.746  13.615  0.00  0.00    +0.000 NA
ATOM      8  C   UNL     1       5.634   3.062  12.453  0.00  0.00    +0.000 A 
ATOM      9  C   UNL     1       6.679   3.261  11.574  0.00  0.00    +0.000 A 
ATOM     10  C   UNL     1       7.621   4.222  11.898  0.00  0.00    +0.000 A 
ATOM     11  C   UNL     1       7.475   4.934  13.086  0.00  0.00    +0.000 A 
ATOM     12  F   UNL     1       8.396   5.872  13.360  0.00  0.00    +0.000 F 
ENDBRANCH   3   6
BRANCH   1  13
ATOM     13  C   UNL     1       4.059   6.147  18.049  0.00  0.00    +0.000 C 
BRANCH  13  17
ATOM     14  N   UNL     1       1.217   4.254  19.742  0.00  0.00    +0.000 NA
ATOM     15  C   UNL     1       2.229   5.041  20.478  0.00  0.00    +0.000 C 
ATOM     16  C   UNL     1       3.703   4.768  20.089  0.00  0.00    +0.000 C 
ATOM     17  N   UNL     1       4.002   4.794  18.636  0.00  0.00    +0.000 NA
ATOM     18  C   UNL     1       2.987   3.966  17.939  0.00  0.00    +0.000 C 
ATOM     19  C   UNL     1       1.522   4.322  18.296  0.00  0.00    +0.000 C 
BRANCH  14  21
ATOM     20  C   UNL     1       1.418   2.612  21.644  0.00  0.00    +0.000 C 
ATOM     21  C   UNL     1       1.119   2.848  20.169  0.00  0.00    +0.000 C 
ENDBRANCH  14  21
ENDBRANCH  13  17
ENDBRANCH   1  13
BRANCH   5  22
ATOM     22  C   UNL     1       7.059   5.493  18.562  0.00  0.00    +0.000 C 
BRANCH  22  23
ATOM     23  O   UNL     1       6.914   4.086  18.435  0.00  0.00    +0.000 OA
ATOM     24  H   UNL     1       7.455   3.665  19.137  0.00  0.00    +0.000 HD
ENDBRANCH  22  23
ENDBRANCH   5  22
TORSDOF 6
ENDMDL
MODEL 5
REMARK VINA RESULT:      -6.4      4.808      6.286
REMARK  Name = 
REMARK  7 active torsions:
REMARK  status: ('A' for Active; 'I' for Inactive)
REMARK    1  A    between atoms: C_1  and  C_2
REMARK    2  A    between atoms: C_2  and  N_3
REMARK    3  A    between atoms: N_6  and  C_7
REMARK    4  A    between atoms: C_7  and  C_8
REMARK    5  A    between atoms: N_10  and  C_11
REMARK    6  A    between atoms: C_19  and  C_20
REMARK    7  A    between atoms: C_20  and  O_21
REMARK                            x       y       z     vdW  Elec       q    Type
REMARK                         _______ _______ _______ _____ _____    ______ ____
ROOT
ATOM      1  C   UNL     1       5.399   3.889  16.812  0.00  0.00    +0.000 C 
ATOM      2  C   UNL     1       5.549   5.280  17.448  0.00  0.00    +0.000 C 
ATOM      3  N   UNL     1       6.917   5.618  17.097  0.00  0.00    +0.000 N 
ATOM      4  C   UNL     1       7.216   5.142  15.753  0.00  0.00    +0.000 C 
ATOM      5  C   UNL     1       6.245   3.965  15.513  0.00  0.00    +0.000 C 
ENDROOT
BRANCH   3   6
ATOM      6  C   UNL     1       7.476   6.792  17.575  0.00  0.00    +0.000 A 
ATOM      7  N   UNL     1       7.215   7.941  16.901  0.00  0.00    +0.000 NA
ATOM      8  C   UNL     1       7.719   9.106  17.386  0.00  0.00    +0.000 A 
ATOM      9  C   UNL     1       8.483   9.204  18.530  0.00  0.00    +0.000 A 
ATOM     10  C   UNL     1       8.749   8.040  19.230  0.00  0.00    +0.000 A 
ATOM     11  C   UNL     1       8.242   6.834  18.750  0.00  0.00    +0.000 A 
ATOM     12  F   UNL     1       8.503   5.727  19.463  0.00  0.00    +0.000 F 
ENDBRANCH   3   6
BRANCH   1  13
ATOM     13  C   UNL     1       3.933   3.448  16.742  0.00  0.00    +0.000 C 
BRANCH  13  17
ATOM     14  N   UNL     1       1.667   3.867  19.778  0.00  0.00    +0.000 NA
ATOM     15  C   UNL     1       3.136   4.023  19.825  0.00  0.00    +0.000 C 
ATOM     16  C   UNL     1       3.952   2.884  19.165  0.00  0.00    +0.000 C 
ATOM     17  N   UNL     1       3.529   2.498  17.796  0.00  0.00    +0.000 NA
ATOM     18  C   UNL     1       2.056   2.317  17.800  0.00  0.00    +0.000 C 
ATOM     19  C   UNL     1       1.271   3.512  18.397  0.00  0.00    +0.000 C 
BRANCH  14  21
ATOM     20  C   UNL     1       1.945   2.721  22.006  0.00  0.00    +0.000 C 
ATOM     21  C   UNL     1       1.134   2.873  20.724  0.00  0.00    +0.000 C 
ENDBRANCH  14  21
ENDBRANCH  13  17
ENDBRANCH   1  13
BRANCH   5  22
ATOM     22  C   UNL     1       5.540   4.141  14.167  0.00  0.00    +0.000 C 
BRANCH  22  23
ATOM     23  O   UNL     1       6.075   3.299  13.157  0.00  0.00    +0.000 OA
ATOM     24  H   UNL     1       6.192   2.404  13.544  0.00  0.00    +0.000 HD
ENDBRANCH  22  23
ENDBRANCH   5  22
TORSDOF 6
ENDMDL
MODEL 6
REMARK VINA RESULT:      -6.3      4.001      5.643
REMARK  Name = 
REMARK  7 active torsions:
REMARK  status: ('A' for Active; 'I' for Inactive)
REMARK    1  A    between atoms: C_1  and  C_2
REMARK    2  A    between atoms: C_2  and  N_3
REMARK    3  A    between atoms: N_6  and  C_7
REMARK    4  A    between atoms: C_7  and  C_8
REMARK    5  A    between atoms: N_10  and  C_11
REMARK    6  A    between atoms: C_19  and  C_20
REMARK    7  A    between atoms: C_20  and  O_21
REMARK                            x       y       z     vdW  Elec       q    Type
REMARK                         _______ _______ _______ _____ _____    ______ ____
ROOT
ATOM      1  C   UNL     1       4.940   6.497  17.323  0.00  0.00    +0.000 C 
ATOM      2  C   UNL     1       4.867   5.585  16.089  0.00  0.00    +0.000 C 
ATOM      3  N   UNL     1       6.198   5.741  15.529  0.00  0.00    +0.000 N 
ATOM      4  C   UNL     1       7.181   5.825  16.602  0.00  0.00    +0.000 C 
ATOM      5  C   UNL     1       6.401   6.350  17.827  0.00  0.00    +0.000 C 
ENDROOT
BRANCH   3   6
ATOM      6  C   UNL     1       6.510   5.128  14.327  0.00  0.00    +0.000 A 
ATOM      7  N   UNL     1       7.633   5.531  13.679  0.00  0.00    +0.000 NA
ATOM      8  C   UNL     1       7.975   4.907  12.523  0.00  0.00    +0.000 A 
ATOM      9  C   UNL     1       7.255   3.876  11.956  0.00  0.00    +0.000 A 
ATOM     10  C   UNL     1       6.112   3.451  12.610  0.00  0.00    +0.000 A 
ATOM     11  C   UNL     1       5.743   4.078  13.798  0.00  0.00    +0.000 A 
ATOM     12  F   UNL     1       4.640   3.628  14.417  0.00  0.00    +0.000 F 
ENDBRANCH   3   6
BRANCH   1  13
ATOM     13  C   UNL     1       3.775   6.250  18.286  0.00  0.00    +0.000 C 
BRANCH  13  17
ATOM     14  N   UNL     1       0.995   4.044  19.679  0.00  0.00    +0.000 NA
ATOM     15  C   UNL     1       1.744   5.028  20.490  0.00  0.00    +0.000 C 
ATOM     16  C   UNL     1       3.287   4.967  20.361  0.00  0.00    +0.000 C 
ATOM     17  N   UNL     1       3.817   4.946  18.976  0.00  0.00    +0.000 NA
ATOM     18  C   UNL     1       3.065   3.924  18.207  0.00  0.00    +0.000 C 
ATOM     19  C   UNL     1       1.525   4.065  18.298  0.00  0.00    +0.000 C 
BRANCH  14  21
ATOM     20  C   UNL     1       1.388   2.574  21.689  0.00  0.00    +0.000 C 
ATOM     21  C   UNL     1       1.033   2.672  20.210  0.00  0.00    +0.000 C 
ENDBRANCH  14  21
ENDBRANCH  13  17
ENDBRANCH   1  13
BRANCH   5  22
ATOM     22  C   UNL     1       6.692   5.470  19.042  0.00  0.00    +0.000 C 
BRANCH  22  23
ATOM     23  O   UNL     1       6.610   4.084  18.745  0.00  0.00    +0.000 OA
ATOM     24  H   UNL     1       6.599   3.595  19.596  0.00  0.00    +0.000 HD
ENDBRANCH  22  23
ENDBRANCH   5  22
TORSDOF 6
ENDMDL
MODEL 7
REMARK VINA RESULT:      -6.3      4.872      6.350
REMARK  Name = 
REMARK  7 active torsions:
REMARK  status: ('A' for Active; 'I' for Inactive)
REMARK    1  A    between atoms: C_1  and  C_2
REMARK    2  A    between atoms: C_2  and  N_3
REMARK    3  A    between atoms: N_6  and  C_7
REMARK    4  A    between atoms: C_7  and  C_8
REMARK    5  A    between atoms: N_10  and  C_11
REMARK    6  A    between atoms: C_19  and  C_20
REMARK    7  A    between atoms: C_20  and  O_21
REMARK                            x       y       z     vdW  Elec       q    Type
REMARK                         _______ _______ _______ _____ _____    ______ ____
ROOT
ATOM      1  C   UNL     1       5.556   4.876  17.996  0.00  0.00    +0.000 C 
ATOM      2  C   UNL     1       5.917   4.126  16.704  0.00  0.00    +0.000 C 
ATOM      3  N   UNL     1       6.302   5.218  15.828  0.00  0.00    +0.000 N 
ATOM      4  C   UNL     1       7.031   6.227  16.585  0.00  0.00    +0.000 C 
ATOM      5  C   UNL     1       6.555   6.064  18.044  0.00  0.00    +0.000 C 
ENDROOT
BRANCH   3   6
ATOM      6  C   UNL     1       6.622   4.954  14.506  0.00  0.00    +0.000 A 
ATOM      7  N   UNL     1       7.758   5.501  14.004  0.00  0.00    +0.000 NA
ATOM      8  C   UNL     1       8.106   5.213  12.723  0.00  0.00    +0.000 A 
ATOM      9  C   UNL     1       7.379   4.390  11.888  0.00  0.00    +0.000 A 
ATOM     10  C   UNL     1       6.222   3.820  12.391  0.00  0.00    +0.000 A 
ATOM     11  C   UNL     1       5.847   4.103  13.702  0.00  0.00    +0.000 A 
ATOM     12  F   UNL     1       4.730   3.519  14.164  0.00  0.00    +0.000 F 
ENDBRANCH   3   6
BRANCH   1  13
ATOM     13  C   UNL     1       5.442   3.928  19.194  0.00  0.00    +0.000 C 
BRANCH  13  17
ATOM     14  N   UNL     1       2.141   2.414  18.035  0.00  0.00    +0.000 NA
ATOM     15  C   UNL     1       2.520   3.825  17.806  0.00  0.00    +0.000 C 
ATOM     16  C   UNL     1       3.047   4.586  19.049  0.00  0.00    +0.000 C 
ATOM     17  N   UNL     1       4.108   3.898  19.824  0.00  0.00    +0.000 NA
ATOM     18  C   UNL     1       3.674   2.499  20.062  0.00  0.00    +0.000 C 
ATOM     19  C   UNL     1       3.228   1.746  18.783  0.00  0.00    +0.000 C 
BRANCH  14  21
ATOM     20  C   UNL     1       0.507   3.373  19.698  0.00  0.00    +0.000 C 
ATOM     21  C   UNL     1       0.863   2.240  18.743  0.00  0.00    +0.000 C 
ENDBRANCH  14  21
ENDBRANCH  13  17
ENDBRANCH   1  13
BRANCH   5  22
ATOM     22  C   UNL     1       7.763   5.991  18.979  0.00  0.00    +0.000 C 
BRANCH  22  23
ATOM     23  O   UNL     1       8.515   7.195  18.993  0.00  0.00    +0.000 OA
ATOM     24  H   UNL     1       8.266   7.695  19.801  0.00  0.00    +0.000 HD
ENDBRANCH  22  23
ENDBRANCH   5  22
TORSDOF 6
ENDMDL
MODEL 8
REMARK VINA RESULT:      -6.2      1.412      1.713
REMARK  Name = 
REMARK  7 active torsions:
REMARK  status: ('A' for Active; 'I' for Inactive)
REMARK    1  A    between atoms: C_1  and  C_2
REMARK    2  A    between atoms: C_2  and  N_3
REMARK    3  A    between atoms: N_6  and  C_7
REMARK    4  A    between atoms: C_7  and  C_8
REMARK    5  A    between atoms: N_10  and  C_11
REMARK    6  A    between atoms: C_19  and  C_20
REMARK    7  A    between atoms: C_20  and  O_21
REMARK                            x       y       z     vdW  Elec       q    Type
REMARK                         _______ _______ _______ _____ _____    ______ ____
ROOT
ATOM      1  C   UNL     1       2.530   5.711  20.404  0.00  0.00    +0.000 C 
ATOM      2  C   UNL     1       3.487   6.006  19.238  0.00  0.00    +0.000 C 
ATOM      3  N   UNL     1       4.239   4.766  19.155  0.00  0.00    +0.000 N 
ATOM      4  C   UNL     1       3.358   3.633  19.408  0.00  0.00    +0.000 C 
ATOM      5  C   UNL     1       2.204   4.199  20.263  0.00  0.00    +0.000 C 
ENDROOT
BRANCH   3   6
ATOM      6  C   UNL     1       5.289   4.663  18.257  0.00  0.00    +0.000 A 
ATOM      7  N   UNL     1       6.550   4.830  18.730  0.00  0.00    +0.000 NA
ATOM      8  C   UNL     1       7.591   4.686  17.870  0.00  0.00    +0.000 A 
ATOM      9  C   UNL     1       7.454   4.373  16.533  0.00  0.00    +0.000 A 
ATOM     10  C   UNL     1       6.174   4.193  16.040  0.00  0.00    +0.000 A 
ATOM     11  C   UNL     1       5.092   4.337  16.906  0.00  0.00    +0.000 A 
ATOM     12  F   UNL     1       3.865   4.136  16.400  0.00  0.00    +0.000 F 
ENDBRANCH   3   6
BRANCH   1  13
ATOM     13  C   UNL     1       1.390   6.732  20.479  0.00  0.00    +0.000 C 
BRANCH  13  17
ATOM     14  N   UNL     1      -0.584   9.982  20.739  0.00  0.00    +0.000 NA
ATOM     15  C   UNL     1      -0.037   9.456  19.470  0.00  0.00    +0.000 C 
ATOM     16  C   UNL     1       1.450   9.023  19.511  0.00  0.00    +0.000 C 
ATOM     17  N   UNL     1       1.832   8.131  20.634  0.00  0.00    +0.000 NA
ATOM     18  C   UNL     1       1.295   8.712  21.889  0.00  0.00    +0.000 C 
ATOM     19  C   UNL     1      -0.214   9.060  21.835  0.00  0.00    +0.000 C 
BRANCH  14  21
ATOM     20  C   UNL     1       0.006  12.270  19.859  0.00  0.00    +0.000 C 
ATOM     21  C   UNL     1      -0.145  11.349  21.064  0.00  0.00    +0.000 C 
ENDBRANCH  14  21
ENDBRANCH  13  17
ENDBRANCH   1  13
BRANCH   5  22
ATOM     22  C   UNL     1       0.862   3.773  19.668  0.00  0.00    +0.000 C 
BRANCH  22  23
ATOM     23  O   UNL     1       0.963   3.399  18.303  0.00  0.00    +0.000 OA
ATOM     24  H   UNL     1       0.810   4.204  17.760  0.00  0.00    +0.000 HD
ENDBRANCH  22  23
ENDBRANCH   5  22
TORSDOF 6
ENDMDL
MODEL 9
REMARK VINA RESULT:      -6.2      0.998      1.175
REMARK  Name = 
REMARK  7 active torsions:
REMARK  status: ('A' for Active; 'I' for Inactive)
REMARK    1  A    between atoms: C_1  and  C_2
REMARK    2  A    between atoms: C_2  and  N_3
REMARK    3  A    between atoms: N_6  and  C_7
REMARK    4  A    between atoms: C_7  and  C_8
REMARK    5  A    between atoms: N_10  and  C_11
REMARK    6  A    between atoms: C_19  and  C_20
REMARK    7  A    between atoms: C_20  and  O_21
REMARK                            x       y       z     vdW  Elec       q    Type
REMARK                         _______ _______ _______ _____ _____    ______ ____
ROOT
ATOM      1  C   UNL     1       2.638   6.236  20.065  0.00  0.00    +0.000 C 
ATOM      2  C   UNL     1       3.385   6.240  18.722  0.00  0.00    +0.000 C 
ATOM      3  N   UNL     1       4.216   5.055  18.845  0.00  0.00    +0.000 N 
ATOM      4  C   UNL     1       3.478   4.000  19.529  0.00  0.00    +0.000 C 
ATOM      5  C   UNL     1       2.420   4.733  20.382  0.00  0.00    +0.000 C 
ENDROOT
BRANCH   3   6
ATOM      6  C   UNL     1       5.127   4.751  17.847  0.00  0.00    +0.000 A 
ATOM      7  N   UNL     1       4.642   4.414  16.624  0.00  0.00    +0.000 NA
ATOM      8  C   UNL     1       5.524   4.159  15.624  0.00  0.00    +0.000 A 
ATOM      9  C   UNL     1       6.895   4.223  15.764  0.00  0.00    +0.000 A 
ATOM     10  C   UNL     1       7.402   4.573  17.004  0.00  0.00    +0.000 A 
ATOM     11  C   UNL     1       6.514   4.838  18.044  0.00  0.00    +0.000 A 
ATOM     12  F   UNL     1       7.038   5.193  19.228  0.00  0.00    +0.000 F 
ENDBRANCH   3   6
BRANCH   1  13
ATOM     13  C   UNL     1       1.442   7.194  20.055  0.00  0.00    +0.000 C 
BRANCH  13  17
ATOM     14  N   UNL     1      -0.665  10.350  19.692  0.00  0.00    +0.000 NA
ATOM     15  C   UNL     1       0.099   9.743  18.581  0.00  0.00    +0.000 C 
ATOM     16  C   UNL     1       1.574   9.392  18.896  0.00  0.00    +0.000 C 
ATOM     17  N   UNL     1       1.802   8.623  20.144  0.00  0.00    +0.000 NA
ATOM     18  C   UNL     1       1.049   9.283  21.239  0.00  0.00    +0.000 C 
ATOM     19  C   UNL     1      -0.443   9.547  20.915  0.00  0.00    +0.000 C 
BRANCH  14  21
ATOM     20  C   UNL     1      -0.640  12.706  18.795  0.00  0.00    +0.000 C 
ATOM     21  C   UNL     1      -0.335  11.761  19.951  0.00  0.00    +0.000 C 
ENDBRANCH  14  21
ENDBRANCH  13  17
ENDBRANCH   1  13
BRANCH   5  22
ATOM     22  C   UNL     1       1.043   4.108  20.149  0.00  0.00    +0.000 C 
BRANCH  22  23
ATOM     23  O   UNL     1       0.782   3.022  21.024  0.00  0.00    +0.000 OA
ATOM     24  H   UNL     1       0.116   2.443  20.593  0.00  0.00    +0.000 HD
ENDBRANCH  22  23
ENDBRANCH   5  22
TORSDOF 6
ENDMDL
