MODEL 1
REMARK VINA RESULT:      -8.3      0.000      0.000
REMARK  Name = 
REMARK  4 active torsions:
REMARK  status: ('A' for Active; 'I' for Inactive)
REMARK    1  A    between atoms: C_1  and  C_2
REMARK    2  A    between atoms: C_15  and  O_17
REMARK    3  A    between atoms: O_17  and  C_18
REMARK    4  A    between atoms: C_18  and  C_19
REMARK                            x       y       z     vdW  Elec       q    Type
REMARK                         _______ _______ _______ _____ _____    ______ ____
ROOT
ATOM      1  C   UNL     1       1.822  12.135  18.844  0.00  0.00    +0.000 C 
ATOM      2  C   UNL     1       0.433  11.520  18.796  0.00  0.00    +0.000 C 
ATOM      3  C   UNL     1      -0.618  12.369  19.552  0.00  0.00    +0.000 C 
ATOM      4  O   UNL     1      -1.069  13.418  19.121  0.00  0.00    +0.000 OA
ATOM      5  N   UNL     1      -0.886  11.729  20.788  0.00  0.00    +0.000 N 
ATOM      6  C   UNL     1      -1.848  12.100  21.695  0.00  0.00    +0.000 A 
ATOM      7  N   UNL     1      -1.859  11.697  22.947  0.00  0.00    +0.000 NA
ATOM      8  C   UNL     1      -3.024  12.118  23.560  0.00  0.00    +0.000 A 
ATOM      9  C   UNL     1      -3.920  12.771  22.741  0.00  0.00    +0.000 A 
ATOM     10  S   UNL     1      -3.235  12.962  21.184  0.00  0.00    +0.000 S 
ATOM     11  C   UNL     1       0.087  10.714  20.981  0.00  0.00    +0.000 C 
ATOM     12  C   UNL     1      -0.116   9.403  21.718  0.00  0.00    +0.000 C 
ATOM     13  C   UNL     1       0.923   8.497  21.009  0.00  0.00    +0.000 C 
ATOM     14  N   UNL     1       1.183   9.148  19.717  0.00  0.00    +0.000 N 
ATOM     15  C   UNL     1       1.893   8.604  18.684  0.00  0.00    +0.000 C 
ATOM     16  O   UNL     1       1.863   9.045  17.542  0.00  0.00    +0.000 OA
ATOM     17  C   UNL     1       0.250  10.218  19.557  0.00  0.00    +0.000 C 
ENDROOT
BRANCH  15  18
ATOM     18  O   UNL     1       2.639   7.548  19.090  0.00  0.00    +0.000 OA
BRANCH  18  19
ATOM     19  C   UNL     1       2.757   6.465  18.159  0.00  0.00    +0.000 C 
BRANCH  19  20
ATOM     20  C   UNL     1       2.119   5.233  18.748  0.00  0.00    +0.000 A 
ATOM     21  C   UNL     1       1.899   5.130  20.128  0.00  0.00    +0.000 A 
ATOM     22  C   UNL     1       1.300   3.990  20.668  0.00  0.00    +0.000 A 
ATOM     23  C   UNL     1       0.925   2.937  19.836  0.00  0.00    +0.000 A 
ATOM     24  C   UNL     1       1.153   3.020  18.465  0.00  0.00    +0.000 A 
ATOM     25  C   UNL     1       1.751   4.159  17.922  0.00  0.00    +0.000 A 
ENDBRANCH  19  20
ENDBRANCH  18  19
ENDBRANCH  15  18
TORSDOF 3
ENDMDL
MODEL 2
REMARK VINA RESULT:      -7.8      0.912      1.334
REMARK  Name = 
REMARK  4 active torsions:
REMARK  status: ('A' for Active; 'I' for Inactive)
REMARK    1  A    between atoms: C_1  and  C_2
REMARK    2  A    between atoms: C_15  and  O_17
REMARK    3  A    between atoms: O_17  and  C_18
REMARK    4  A    between atoms: C_18  and  C_19
REMARK                            x       y       z     vdW  Elec       q    Type
REMARK                         _______ _______ _______ _____ _____    ______ ____
ROOT
ATOM      1  C   UNL     1       2.045  12.029  18.589  0.00  0.00    +0.000 C 
ATOM      2  C   UNL     1       0.651  11.423  18.566  0.00  0.00    +0.000 C 
ATOM      3  C   UNL     1      -0.380  12.276  19.344  0.00  0.00    +0.000 C 
ATOM      4  O   UNL     1      -0.833  13.329  18.923  0.00  0.00    +0.000 OA
ATOM      5  N   UNL     1      -0.629  11.637  20.583  0.00  0.00    +0.000 N 
ATOM      6  C   UNL     1      -1.571  12.012  21.509  0.00  0.00    +0.000 A 
ATOM      7  N   UNL     1      -1.561  11.607  22.760  0.00  0.00    +0.000 NA
ATOM      8  C   UNL     1      -2.711  12.034  23.396  0.00  0.00    +0.000 A 
ATOM      9  C   UNL     1      -3.619  12.693  22.596  0.00  0.00    +0.000 A 
ATOM     10  S   UNL     1      -2.962  12.883  21.026  0.00  0.00    +0.000 S 
ATOM     11  C   UNL     1       0.341  10.616  20.756  0.00  0.00    +0.000 C 
ATOM     12  C   UNL     1       0.144   9.304  21.495  0.00  0.00    +0.000 C 
ATOM     13  C   UNL     1       1.164   8.393  20.765  0.00  0.00    +0.000 C 
ATOM     14  N   UNL     1       1.403   9.044  19.469  0.00  0.00    +0.000 N 
ATOM     15  C   UNL     1       2.091   8.498  18.421  0.00  0.00    +0.000 C 
ATOM     16  O   UNL     1       2.041   8.942  17.281  0.00  0.00    +0.000 OA
ATOM     17  C   UNL     1       0.475  10.121  19.329  0.00  0.00    +0.000 C 
ENDROOT
BRANCH  15  18
ATOM     18  O   UNL     1       2.838   7.437  18.812  0.00  0.00    +0.000 OA
BRANCH  18  19
ATOM     19  C   UNL     1       3.585   6.780  17.781  0.00  0.00    +0.000 C 
BRANCH  19  20
ATOM     20  C   UNL     1       3.221   5.318  17.758  0.00  0.00    +0.000 A 
ATOM     21  C   UNL     1       4.182   4.344  17.459  0.00  0.00    +0.000 A 
ATOM     22  C   UNL     1       3.842   2.989  17.449  0.00  0.00    +0.000 A 
ATOM     23  C   UNL     1       2.534   2.596  17.724  0.00  0.00    +0.000 A 
ATOM     24  C   UNL     1       1.565   3.556  18.008  0.00  0.00    +0.000 A 
ATOM     25  C   UNL     1       1.902   4.910  18.020  0.00  0.00    +0.000 A 
ENDBRANCH  19  20
ENDBRANCH  18  19
ENDBRANCH  15  18
TORSDOF 3
ENDMDL
MODEL 3
REMARK VINA RESULT:      -7.7      4.346      6.843
REMARK  Name = 
REMARK  4 active torsions:
REMARK  status: ('A' for Active; 'I' for Inactive)
REMARK    1  A    between atoms: C_1  and  C_2
REMARK    2  A    between atoms: C_15  and  O_17
REMARK    3  A    between atoms: O_17  and  C_18
REMARK    4  A    between atoms: C_18  and  C_19
REMARK                            x       y       z     vdW  Elec       q    Type
REMARK                         _______ _______ _______ _____ _____    ______ ____
ROOT
ATOM      1  C   UNL     1       2.327   3.927  19.084  0.00  0.00    +0.000 C 
ATOM      2  C   UNL     1       3.028   5.093  19.762  0.00  0.00    +0.000 C 
ATOM      3  C   UNL     1       2.043   6.201  20.205  0.00  0.00    +0.000 C 
ATOM      4  O   UNL     1       1.298   6.092  21.166  0.00  0.00    +0.000 OA
ATOM      5  N   UNL     1       2.153   7.274  19.287  0.00  0.00    +0.000 N 
ATOM      6  C   UNL     1       1.534   8.496  19.396  0.00  0.00    +0.000 A 
ATOM      7  N   UNL     1       1.400   9.334  18.391  0.00  0.00    +0.000 NA
ATOM      8  C   UNL     1       0.872  10.526  18.849  0.00  0.00    +0.000 A 
ATOM      9  C   UNL     1       0.683  10.604  20.212  0.00  0.00    +0.000 A 
ATOM     10  S   UNL     1       1.075   9.100  20.928  0.00  0.00    +0.000 S 
ATOM     11  C   UNL     1       2.916   6.829  18.176  0.00  0.00    +0.000 C 
ATOM     12  C   UNL     1       3.834   7.680  17.317  0.00  0.00    +0.000 C 
ATOM     13  C   UNL     1       4.854   6.621  16.827  0.00  0.00    +0.000 C 
ATOM     14  N   UNL     1       4.756   5.517  17.794  0.00  0.00    +0.000 N 
ATOM     15  C   UNL     1       5.605   4.448  17.866  0.00  0.00    +0.000 C 
ATOM     16  O   UNL     1       5.664   3.701  18.834  0.00  0.00    +0.000 OA
ATOM     17  C   UNL     1       3.926   5.941  18.876  0.00  0.00    +0.000 C 
ENDROOT
BRANCH  15  18
ATOM     18  O   UNL     1       6.340   4.315  16.735  0.00  0.00    +0.000 OA
BRANCH  18  19
ATOM     19  C   UNL     1       5.722   3.591  15.665  0.00  0.00    +0.000 C 
BRANCH  19  20
ATOM     20  C   UNL     1       6.349   4.005  14.358  0.00  0.00    +0.000 A 
ATOM     21  C   UNL     1       5.992   3.373  13.159  0.00  0.00    +0.000 A 
ATOM     22  C   UNL     1       6.569   3.767  11.950  0.00  0.00    +0.000 A 
ATOM     23  C   UNL     1       7.519   4.787  11.929  0.00  0.00    +0.000 A 
ATOM     24  C   UNL     1       7.894   5.412  13.116  0.00  0.00    +0.000 A 
ATOM     25  C   UNL     1       7.318   5.021  14.326  0.00  0.00    +0.000 A 
ENDBRANCH  19  20
ENDBRANCH  18  19
ENDBRANCH  15  18
TORSDOF 3
ENDMDL
MODEL 4
REMARK VINA RESULT:      -7.5      1.844      2.807
REMARK  Name = 
REMARK  4 active torsions:
REMARK  status: ('A' for Active; 'I' for Inactive)
REMARK    1  A    between atoms: C_1  and  C_2
REMARK    2  A    between atoms: C_15  and  O_17
REMARK    3  A    between atoms: O_17  and  C_18
REMARK    4  A    between atoms: C_18  and  C_19
REMARK                            x       y       z     vdW  Elec       q    Type
REMARK                         _______ _______ _______ _____ _____    ______ ____
ROOT
ATOM      1  C   UNL     1       2.020  11.940  18.614  0.00  0.00    +0.000 C 
ATOM      2  C   UNL     1       0.628  11.329  18.611  0.00  0.00    +0.000 C 
ATOM      3  C   UNL     1      -0.401  12.194  19.379  0.00  0.00    +0.000 C 
ATOM      4  O   UNL     1      -0.860  13.238  18.942  0.00  0.00    +0.000 OA
ATOM      5  N   UNL     1      -0.641  11.576  20.631  0.00  0.00    +0.000 N 
ATOM      6  C   UNL     1      -1.578  11.965  21.556  0.00  0.00    +0.000 A 
ATOM      7  N   UNL     1      -1.559  11.582  22.815  0.00  0.00    +0.000 NA
ATOM      8  C   UNL     1      -2.707  12.017  23.449  0.00  0.00    +0.000 A 
ATOM      9  C   UNL     1      -3.621  12.660  22.643  0.00  0.00    +0.000 A 
ATOM     10  S   UNL     1      -2.974  12.823  21.066  0.00  0.00    +0.000 S 
ATOM     11  C   UNL     1       0.334  10.561  20.817  0.00  0.00    +0.000 C 
ATOM     12  C   UNL     1       0.145   9.262  21.580  0.00  0.00    +0.000 C 
ATOM     13  C   UNL     1       1.163   8.341  20.861  0.00  0.00    +0.000 C 
ATOM     14  N   UNL     1       1.393   8.970  19.552  0.00  0.00    +0.000 N 
ATOM     15  C   UNL     1       2.075   8.407  18.510  0.00  0.00    +0.000 C 
ATOM     16  O   UNL     1       2.018   8.829  17.362  0.00  0.00    +0.000 OA
ATOM     17  C   UNL     1       0.460  10.040  19.398  0.00  0.00    +0.000 C 
ENDROOT
BRANCH  15  18
ATOM     18  O   UNL     1       2.829   7.355  18.915  0.00  0.00    +0.000 OA
BRANCH  18  19
ATOM     19  C   UNL     1       3.300   6.483  17.880  0.00  0.00    +0.000 C 
BRANCH  19  20
ATOM     20  C   UNL     1       4.787   6.290  18.032  0.00  0.00    +0.000 A 
ATOM     21  C   UNL     1       5.681   6.859  17.115  0.00  0.00    +0.000 A 
ATOM     22  C   UNL     1       7.058   6.685  17.265  0.00  0.00    +0.000 A 
ATOM     23  C   UNL     1       7.556   5.930  18.326  0.00  0.00    +0.000 A 
ATOM     24  C   UNL     1       6.677   5.347  19.236  0.00  0.00    +0.000 A 
ATOM     25  C   UNL     1       5.299   5.520  19.089  0.00  0.00    +0.000 A 
ENDBRANCH  19  20
ENDBRANCH  18  19
ENDBRANCH  15  18
TORSDOF 3
ENDMDL
MODEL 5
REMARK VINA RESULT:      -7.5      1.500      2.337
REMARK  Name = 
REMARK  4 active torsions:
REMARK  status: ('A' for Active; 'I' for Inactive)
REMARK    1  A    between atoms: C_1  and  C_2
REMARK    2  A    between atoms: C_15  and  O_17
REMARK    3  A    between atoms: O_17  and  C_18
REMARK    4  A    between atoms: C_18  and  C_19
REMARK                            x       y       z     vdW  Elec       q    Type
REMARK                         _______ _______ _______ _____ _____    ______ ____
ROOT
ATOM      1  C   UNL     1       2.010  12.016  18.638  0.00  0.00    +0.000 C 
ATOM      2  C   UNL     1       0.618  11.407  18.612  0.00  0.00    +0.000 C 
ATOM      3  C   UNL     1      -0.419  12.262  19.380  0.00  0.00    +0.000 C 
ATOM      4  O   UNL     1      -0.873  13.311  18.951  0.00  0.00    +0.000 OA
ATOM      5  N   UNL     1      -0.672  11.628  20.621  0.00  0.00    +0.000 N 
ATOM      6  C   UNL     1      -1.619  12.006  21.541  0.00  0.00    +0.000 A 
ATOM      7  N   UNL     1      -1.614  11.608  22.795  0.00  0.00    +0.000 NA
ATOM      8  C   UNL     1      -2.768  12.036  23.422  0.00  0.00    +0.000 A 
ATOM      9  C   UNL     1      -3.673  12.689  22.615  0.00  0.00    +0.000 A 
ATOM     10  S   UNL     1      -3.010  12.871  21.047  0.00  0.00    +0.000 S 
ATOM     11  C   UNL     1       0.300  10.610  20.805  0.00  0.00    +0.000 C 
ATOM     12  C   UNL     1       0.102   9.303  21.550  0.00  0.00    +0.000 C 
ATOM     13  C   UNL     1       1.128   8.390  20.829  0.00  0.00    +0.000 C 
ATOM     14  N   UNL     1       1.372   9.035  19.531  0.00  0.00    +0.000 N 
ATOM     15  C   UNL     1       2.065   8.485  18.490  0.00  0.00    +0.000 C 
ATOM     16  O   UNL     1       2.020   8.922  17.347  0.00  0.00    +0.000 OA
ATOM     17  C   UNL     1       0.441  10.108  19.381  0.00  0.00    +0.000 C 
ENDROOT
BRANCH  15  18
ATOM     18  O   UNL     1       2.813   7.428  18.889  0.00  0.00    +0.000 OA
BRANCH  18  19
ATOM     19  C   UNL     1       2.508   6.171  18.272  0.00  0.00    +0.000 C 
BRANCH  19  20
ATOM     20  C   UNL     1       3.709   5.694  17.497  0.00  0.00    +0.000 A 
ATOM     21  C   UNL     1       4.660   6.604  17.015  0.00  0.00    +0.000 A 
ATOM     22  C   UNL     1       5.775   6.155  16.305  0.00  0.00    +0.000 A 
ATOM     23  C   UNL     1       5.946   4.795  16.058  0.00  0.00    +0.000 A 
ATOM     24  C   UNL     1       5.000   3.881  16.518  0.00  0.00    +0.000 A 
ATOM     25  C   UNL     1       3.884   4.326  17.229  0.00  0.00    +0.000 A 
ENDBRANCH  19  20
ENDBRANCH  18  19
ENDBRANCH  15  18
TORSDOF 3
ENDMDL
MODEL 6
REMARK VINA RESULT:      -7.4      1.922      2.803
REMARK  Name = 
REMARK  4 active torsions:
REMARK  status: ('A' for Active; 'I' for Inactive)
REMARK    1  A    between atoms: C_1  and  C_2
REMARK    2  A    between atoms: C_15  and  O_17
REMARK    3  A    between atoms: O_17  and  C_18
REMARK    4  A    between atoms: C_18  and  C_19
REMARK                            x       y       z     vdW  Elec       q    Type
REMARK                         _______ _______ _______ _____ _____    ______ ____
ROOT
ATOM      1  C   UNL     1       2.181  11.554  18.509  0.00  0.00    +0.000 C 
ATOM      2  C   UNL     1       0.770  10.988  18.536  0.00  0.00    +0.000 C 
ATOM      3  C   UNL     1      -0.239  11.943  19.218  0.00  0.00    +0.000 C 
ATOM      4  O   UNL     1      -0.660  12.962  18.693  0.00  0.00    +0.000 OA
ATOM      5  N   UNL     1      -0.512  11.436  20.512  0.00  0.00    +0.000 N 
ATOM      6  C   UNL     1      -1.446  11.927  21.391  0.00  0.00    +0.000 A 
ATOM      7  N   UNL     1      -1.453  11.647  22.676  0.00  0.00    +0.000 NA
ATOM      8  C   UNL     1      -2.593  12.167  23.258  0.00  0.00    +0.000 A 
ATOM      9  C   UNL     1      -3.478  12.770  22.390  0.00  0.00    +0.000 A 
ATOM     10  S   UNL     1      -2.809  12.785  20.815  0.00  0.00    +0.000 S 
ATOM     11  C   UNL     1       0.428  10.409  20.792  0.00  0.00    +0.000 C 
ATOM     12  C   UNL     1       0.190   9.183  21.655  0.00  0.00    +0.000 C 
ATOM     13  C   UNL     1       1.186   8.176  21.025  0.00  0.00    +0.000 C 
ATOM     14  N   UNL     1       1.450   8.690  19.673  0.00  0.00    +0.000 N 
ATOM     15  C   UNL     1       2.125   8.024  18.689  0.00  0.00    +0.000 C 
ATOM     16  O   UNL     1       2.094   8.354  17.511  0.00  0.00    +0.000 OA
ATOM     17  C   UNL     1       0.553   9.773  19.421  0.00  0.00    +0.000 C 
ENDROOT
BRANCH  15  18
ATOM     18  O   UNL     1       2.840   6.985  19.187  0.00  0.00    +0.000 OA
BRANCH  18  19
ATOM     19  C   UNL     1       3.336   6.045  18.227  0.00  0.00    +0.000 C 
BRANCH  19  20
ATOM     20  C   UNL     1       4.843   6.091  18.219  0.00  0.00    +0.000 A 
ATOM     21  C   UNL     1       5.586   5.405  19.189  0.00  0.00    +0.000 A 
ATOM     22  C   UNL     1       6.982   5.444  19.173  0.00  0.00    +0.000 A 
ATOM     23  C   UNL     1       7.649   6.179  18.195  0.00  0.00    +0.000 A 
ATOM     24  C   UNL     1       6.921   6.878  17.234  0.00  0.00    +0.000 A 
ATOM     25  C   UNL     1       5.526   6.840  17.248  0.00  0.00    +0.000 A 
ENDBRANCH  19  20
ENDBRANCH  18  19
ENDBRANCH  15  18
TORSDOF 3
ENDMDL
MODEL 7
REMARK VINA RESULT:      -7.3      1.074      1.081
REMARK  Name = 
REMARK  4 active torsions:
REMARK  status: ('A' for Active; 'I' for Inactive)
REMARK    1  A    between atoms: C_1  and  C_2
REMARK    2  A    between atoms: C_15  and  O_17
REMARK    3  A    between atoms: O_17  and  C_18
REMARK    4  A    between atoms: C_18  and  C_19
REMARK                            x       y       z     vdW  Elec       q    Type
REMARK                         _______ _______ _______ _____ _____    ______ ____
ROOT
ATOM      1  C   UNL     1       2.144  12.274  18.592  0.00  0.00    +0.000 C 
ATOM      2  C   UNL     1       0.669  11.944  18.753  0.00  0.00    +0.000 C 
ATOM      3  C   UNL     1      -0.135  13.110  19.376  0.00  0.00    +0.000 C 
ATOM      4  O   UNL     1      -0.430  14.124  18.764  0.00  0.00    +0.000 OA
ATOM      5  N   UNL     1      -0.393  12.786  20.731  0.00  0.00    +0.000 N 
ATOM      6  C   UNL     1      -1.181  13.505  21.596  0.00  0.00    +0.000 A 
ATOM      7  N   UNL     1      -1.143  13.361  22.903  0.00  0.00    +0.000 NA
ATOM      8  C   UNL     1      -2.149  14.111  23.481  0.00  0.00    +0.000 A 
ATOM      9  C   UNL     1      -2.989  14.756  22.599  0.00  0.00    +0.000 A 
ATOM     10  S   UNL     1      -2.434  14.505  20.999  0.00  0.00    +0.000 S 
ATOM     11  C   UNL     1       0.397  11.658  21.074  0.00  0.00    +0.000 C 
ATOM     12  C   UNL     1       0.034  10.579  22.078  0.00  0.00    +0.000 C 
ATOM     13  C   UNL     1       0.821   9.368  21.513  0.00  0.00    +0.000 C 
ATOM     14  N   UNL     1       1.067   9.694  20.101  0.00  0.00    +0.000 N 
ATOM     15  C   UNL     1       1.566   8.833  19.164  0.00  0.00    +0.000 C 
ATOM     16  O   UNL     1       1.505   9.043  17.959  0.00  0.00    +0.000 OA
ATOM     17  C   UNL     1       0.331  10.874  19.777  0.00  0.00    +0.000 C 
ENDROOT
BRANCH  15  18
ATOM     18  O   UNL     1       2.147   7.751  19.736  0.00  0.00    +0.000 OA
BRANCH  18  19
ATOM     19  C   UNL     1       2.722   6.795  18.837  0.00  0.00    +0.000 C 
BRANCH  19  20
ATOM     20  C   UNL     1       2.092   5.447  19.075  0.00  0.00    +0.000 A 
ATOM     21  C   UNL     1       1.700   5.056  20.362  0.00  0.00    +0.000 A 
ATOM     22  C   UNL     1       1.109   3.809  20.576  0.00  0.00    +0.000 A 
ATOM     23  C   UNL     1       0.914   2.936  19.508  0.00  0.00    +0.000 A 
ATOM     24  C   UNL     1       1.313   3.306  18.226  0.00  0.00    +0.000 A 
ATOM     25  C   UNL     1       1.904   4.552  18.009  0.00  0.00    +0.000 A 
ENDBRANCH  19  20
ENDBRANCH  18  19
ENDBRANCH  15  18
TORSDOF 3
ENDMDL
MODEL 8
REMARK VINA RESULT:      -7.3      2.669      4.184
REMARK  Name = 
REMARK  4 active torsions:
REMARK  status: ('A' for Active; 'I' for Inactive)
REMARK    1  A    between atoms: C_1  and  C_2
REMARK    2  A    between atoms: C_15  and  O_17
REMARK    3  A    between atoms: O_17  and  C_18
REMARK    4  A    between atoms: C_18  and  C_19
REMARK                            x       y       z     vdW  Elec       q    Type
REMARK                         _______ _______ _______ _____ _____    ______ ____
ROOT
ATOM      1  C   UNL     1      -0.464   8.114  21.449  0.00  0.00    +0.000 C 
ATOM      2  C   UNL     1       0.809   8.944  21.469  0.00  0.00    +0.000 C 
ATOM      3  C   UNL     1       0.527  10.463  21.564  0.00  0.00    +0.000 C 
ATOM      4  O   UNL     1       0.155  11.013  22.588  0.00  0.00    +0.000 OA
ATOM      5  N   UNL     1       0.734  11.026  20.281  0.00  0.00    +0.000 N 
ATOM      6  C   UNL     1       0.703  12.364  19.972  0.00  0.00    +0.000 A 
ATOM      7  N   UNL     1       0.582  12.824  18.746  0.00  0.00    +0.000 NA
ATOM      8  C   UNL     1       0.731  14.197  18.749  0.00  0.00    +0.000 A 
ATOM      9  C   UNL     1       1.042  14.756  19.970  0.00  0.00    +0.000 A 
ATOM     10  S   UNL     1       1.037  13.537  21.172  0.00  0.00    +0.000 S 
ATOM     11  C   UNL     1       0.861   9.964  19.347  0.00  0.00    +0.000 C 
ATOM     12  C   UNL     1       1.700   9.975  18.082  0.00  0.00    +0.000 C 
ATOM     13  C   UNL     1       2.017   8.465  17.920  0.00  0.00    +0.000 C 
ATOM     14  N   UNL     1       1.824   7.886  19.257  0.00  0.00    +0.000 N 
ATOM     15  C   UNL     1       2.171   6.618  19.630  0.00  0.00    +0.000 C 
ATOM     16  O   UNL     1       2.251   6.258  20.797  0.00  0.00    +0.000 OA
ATOM     17  C   UNL     1       1.622   8.953  20.185  0.00  0.00    +0.000 C 
ENDROOT
BRANCH  15  18
ATOM     18  O   UNL     1       2.387   5.821  18.554  0.00  0.00    +0.000 OA
BRANCH  18  19
ATOM     19  C   UNL     1       3.502   4.927  18.646  0.00  0.00    +0.000 C 
BRANCH  19  20
ATOM     20  C   UNL     1       4.320   5.021  17.383  0.00  0.00    +0.000 A 
ATOM     21  C   UNL     1       4.566   6.262  16.780  0.00  0.00    +0.000 A 
ATOM     22  C   UNL     1       5.331   6.345  15.615  0.00  0.00    +0.000 A 
ATOM     23  C   UNL     1       5.847   5.188  15.034  0.00  0.00    +0.000 A 
ATOM     24  C   UNL     1       5.596   3.948  15.615  0.00  0.00    +0.000 A 
ATOM     25  C   UNL     1       4.832   3.861  16.781  0.00  0.00    +0.000 A 
ENDBRANCH  19  20
ENDBRANCH  18  19
ENDBRANCH  15  18
TORSDOF 3
ENDMDL
MODEL 9
REMARK VINA RESULT:      -7.2      2.720      4.363
REMARK  Name = 
REMARK  4 active torsions:
REMARK  status: ('A' for Active; 'I' for Inactive)
REMARK    1  A    between atoms: C_1  and  C_2
REMARK    2  A    between atoms: C_15  and  O_17
REMARK    3  A    between atoms: O_17  and  C_18
REMARK    4  A    between atoms: C_18  and  C_19
REMARK                            x       y       z     vdW  Elec       q    Type
REMARK                         _______ _______ _______ _____ _____    ______ ____
ROOT
ATOM      1  C   UNL     1      -0.393   7.956  21.285  0.00  0.00    +0.000 C 
ATOM      2  C   UNL     1       0.910   8.738  21.337  0.00  0.00    +0.000 C 
ATOM      3  C   UNL     1       0.682  10.267  21.403  0.00  0.00    +0.000 C 
ATOM      4  O   UNL     1       0.297  10.845  22.408  0.00  0.00    +0.000 OA
ATOM      5  N   UNL     1       0.952  10.804  20.121  0.00  0.00    +0.000 N 
ATOM      6  C   UNL     1       0.982  12.138  19.795  0.00  0.00    +0.000 A 
ATOM      7  N   UNL     1       0.918  12.585  18.559  0.00  0.00    +0.000 NA
ATOM      8  C   UNL     1       1.118  13.952  18.550  0.00  0.00    +0.000 A 
ATOM      9  C   UNL     1       1.410  14.516  19.773  0.00  0.00    +0.000 A 
ATOM     10  S   UNL     1       1.320  13.314  20.989  0.00  0.00    +0.000 S 
ATOM     11  C   UNL     1       1.069   9.725  19.206  0.00  0.00    +0.000 C 
ATOM     12  C   UNL     1       1.949   9.688  17.969  0.00  0.00    +0.000 C 
ATOM     13  C   UNL     1       2.213   8.166  17.836  0.00  0.00    +0.000 C 
ATOM     14  N   UNL     1       1.956   7.612  19.174  0.00  0.00    +0.000 N 
ATOM     15  C   UNL     1       2.243   6.337  19.573  0.00  0.00    +0.000 C 
ATOM     16  O   UNL     1       2.271   5.991  20.748  0.00  0.00    +0.000 OA
ATOM     17  C   UNL     1       1.764   8.699  20.080  0.00  0.00    +0.000 C 
ENDROOT
BRANCH  15  18
ATOM     18  O   UNL     1       2.463   5.518  18.516  0.00  0.00    +0.000 OA
BRANCH  18  19
ATOM     19  C   UNL     1       3.230   4.338  18.783  0.00  0.00    +0.000 C 
BRANCH  19  20
ATOM     20  C   UNL     1       4.590   4.475  18.148  0.00  0.00    +0.000 A 
ATOM     21  C   UNL     1       4.801   4.097  16.816  0.00  0.00    +0.000 A 
ATOM     22  C   UNL     1       6.061   4.235  16.230  0.00  0.00    +0.000 A 
ATOM     23  C   UNL     1       7.126   4.740  16.973  0.00  0.00    +0.000 A 
ATOM     24  C   UNL     1       6.933   5.105  18.304  0.00  0.00    +0.000 A 
ATOM     25  C   UNL     1       5.674   4.969  18.892  0.00  0.00    +0.000 A 
ENDBRANCH  19  20
ENDBRANCH  18  19
ENDBRANCH  15  18
TORSDOF 3
ENDMDL
