MODEL 1
REMARK VINA RESULT:      -6.9      0.000      0.000
REMARK  Name = 
REMARK  8 active torsions:
REMARK  status: ('A' for Active; 'I' for Inactive)
REMARK    1  A    between atoms: C_1  and  C_2
REMARK    2  A    between atoms: C_2  and  N_3
REMARK    3  A    between atoms: N_3  and  C_4
REMARK    4  A    between atoms: C_4  and  C_5
REMARK    5  A    between atoms: C_5  and  O_6
REMARK    6  A    between atoms: O_6  and  C_7
REMARK    7  A    between atoms: C_14  and  C_16
REMARK    8  A    between atoms: N_20  and  C_21
REMARK                            x       y       z     vdW  Elec       q    Type
REMARK                         _______ _______ _______ _____ _____    ______ ____
ROOT
ATOM      1  N   UNL     1       4.872   4.659  18.413  0.00  0.00    +0.000 N 
ATOM      2  C   UNL     1       4.426   3.535  19.157  0.00  0.00    +0.000 C 
ATOM      3  O   UNL     1       5.222   2.917  19.865  0.00  0.00    +0.000 OA
ENDROOT
BRANCH   2   4
ATOM      4  C   UNL     1       3.002   3.148  19.129  0.00  0.00    +0.000 A 
ATOM      5  C   UNL     1       2.291   2.279  18.302  0.00  0.00    +0.000 A 
ATOM      6  C   UNL     1       0.926   2.284  18.660  0.00  0.00    +0.000 A 
ATOM      7  C   UNL     1       0.818   3.074  19.773  0.00  0.00    +0.000 A 
ATOM      8  N   UNL     1       2.064   3.578  20.063  0.00  0.00    +0.000 N 
ATOM      9  C   UNL     1       2.300   4.453  21.194  0.00  0.00    +0.000 C 
ENDBRANCH   2   4
BRANCH   1  11
ATOM     10  C   UNL     1       7.193   4.606  17.491  0.00  0.00    +0.000 C 
ATOM     11  C   UNL     1       6.262   5.095  18.590  0.00  0.00    +0.000 C 
ENDBRANCH   1  11
BRANCH   1  12
ATOM     12  C   UNL     1       3.966   5.433  17.568  0.00  0.00    +0.000 C 
BRANCH  12  13
ATOM     13  C   UNL     1       3.527   6.861  17.892  0.00  0.00    +0.000 C 
BRANCH  13  14
ATOM     14  O   UNL     1       2.926   6.997  19.180  0.00  0.00    +0.000 OA
BRANCH  14  15
ATOM     15  C   UNL     1       2.022   8.033  19.232  0.00  0.00    +0.000 A 
ATOM     16  C   UNL     1       1.839   8.743  18.044  0.00  0.00    +0.000 A 
ATOM     17  C   UNL     1       0.921   9.799  17.988  0.00  0.00    +0.000 A 
ATOM     18  C   UNL     1       0.196  10.163  19.123  0.00  0.00    +0.000 A 
ATOM     19  C   UNL     1       0.401   9.484  20.321  0.00  0.00    +0.000 A 
ATOM     20  C   UNL     1       1.314   8.435  20.374  0.00  0.00    +0.000 A 
ATOM     21  F   UNL     1       1.496   7.845  21.563  0.00  0.00    +0.000 F 
ENDBRANCH  14  15
ENDBRANCH  13  14
ENDBRANCH  12  13
ENDBRANCH   1  12
TORSDOF 6
ENDMDL
MODEL 2
REMARK VINA RESULT:      -6.6      2.810      5.042
REMARK  Name = 
REMARK  8 active torsions:
REMARK  status: ('A' for Active; 'I' for Inactive)
REMARK    1  A    between atoms: C_1  and  C_2
REMARK    2  A    between atoms: C_2  and  N_3
REMARK    3  A    between atoms: N_3  and  C_4
REMARK    4  A    between atoms: C_4  and  C_5
REMARK    5  A    between atoms: C_5  and  O_6
REMARK    6  A    between atoms: O_6  and  C_7
REMARK    7  A    between atoms: C_14  and  C_16
REMARK    8  A    between atoms: N_20  and  C_21
REMARK                            x       y       z     vdW  Elec       q    Type
REMARK                         _______ _______ _______ _____ _____    ______ ____
ROOT
ATOM      1  N   UNL     1       5.356   4.515  16.051  0.00  0.00    +0.000 N 
ATOM      2  C   UNL     1       5.102   5.830  16.522  0.00  0.00    +0.000 C 
ATOM      3  O   UNL     1       5.628   6.792  15.959  0.00  0.00    +0.000 OA
ENDROOT
BRANCH   2   4
ATOM      4  C   UNL     1       4.167   6.047  17.643  0.00  0.00    +0.000 A 
ATOM      5  C   UNL     1       2.852   6.509  17.681  0.00  0.00    +0.000 A 
ATOM      6  C   UNL     1       2.406   6.576  19.019  0.00  0.00    +0.000 A 
ATOM      7  C   UNL     1       3.408   6.056  19.791  0.00  0.00    +0.000 A 
ATOM      8  N   UNL     1       4.456   5.723  18.966  0.00  0.00    +0.000 N 
ATOM      9  C   UNL     1       5.682   5.137  19.469  0.00  0.00    +0.000 C 
ENDBRANCH   2   4
BRANCH   1  11
ATOM     10  C   UNL     1       5.363   3.968  13.614  0.00  0.00    +0.000 C 
ATOM     11  C   UNL     1       6.171   4.361  14.841  0.00  0.00    +0.000 C 
ENDBRANCH   1  11
BRANCH   1  12
ATOM     12  C   UNL     1       4.748   3.343  16.676  0.00  0.00    +0.000 C 
BRANCH  12  13
ATOM     13  C   UNL     1       3.238   3.128  16.773  0.00  0.00    +0.000 C 
BRANCH  13  14
ATOM     14  O   UNL     1       2.869   2.020  17.594  0.00  0.00    +0.000 OA
BRANCH  14  15
ATOM     15  C   UNL     1       2.495   2.405  18.862  0.00  0.00    +0.000 A 
ATOM     16  C   UNL     1       1.197   2.904  18.989  0.00  0.00    +0.000 A 
ATOM     17  C   UNL     1       0.714   3.298  20.242  0.00  0.00    +0.000 A 
ATOM     18  C   UNL     1       1.530   3.213  21.371  0.00  0.00    +0.000 A 
ATOM     19  C   UNL     1       2.837   2.752  21.245  0.00  0.00    +0.000 A 
ATOM     20  C   UNL     1       3.316   2.362  19.997  0.00  0.00    +0.000 A 
ATOM     21  F   UNL     1       4.593   1.963  19.932  0.00  0.00    +0.000 F 
ENDBRANCH  14  15
ENDBRANCH  13  14
ENDBRANCH  12  13
ENDBRANCH   1  12
TORSDOF 6
ENDMDL
MODEL 3
REMARK VINA RESULT:      -6.6      3.004      5.548
REMARK  Name = 
REMARK  8 active torsions:
REMARK  status: ('A' for Active; 'I' for Inactive)
REMARK    1  A    between atoms: C_1  and  C_2
REMARK    2  A    between atoms: C_2  and  N_3
REMARK    3  A    between atoms: N_3  and  C_4
REMARK    4  A    between atoms: C_4  and  C_5
REMARK    5  A    between atoms: C_5  and  O_6
REMARK    6  A    between atoms: O_6  and  C_7
REMARK    7  A    between atoms: C_14  and  C_16
REMARK    8  A    between atoms: N_20  and  C_21
REMARK                            x       y       z     vdW  Elec       q    Type
REMARK                         _______ _______ _______ _____ _____    ______ ____
ROOT
ATOM      1  N   UNL     1       5.084   5.157  17.085  0.00  0.00    +0.000 N 
ATOM      2  C   UNL     1       6.500   5.235  17.023  0.00  0.00    +0.000 C 
ATOM      3  O   UNL     1       7.142   4.301  16.539  0.00  0.00    +0.000 OA
ENDROOT
BRANCH   2   4
ATOM      4  C   UNL     1       7.195   6.454  17.480  0.00  0.00    +0.000 A 
ATOM      5  C   UNL     1       7.294   7.731  16.927  0.00  0.00    +0.000 A 
ATOM      6  C   UNL     1       8.117   8.542  17.738  0.00  0.00    +0.000 A 
ATOM      7  C   UNL     1       8.433   7.797  18.841  0.00  0.00    +0.000 A 
ATOM      8  N   UNL     1       7.867   6.552  18.695  0.00  0.00    +0.000 N 
ATOM      9  C   UNL     1       8.007   5.516  19.697  0.00  0.00    +0.000 C 
ENDBRANCH   2   4
BRANCH   1  11
ATOM     10  C   UNL     1       4.129   2.884  17.480  0.00  0.00    +0.000 C 
ATOM     11  C   UNL     1       4.430   3.991  16.482  0.00  0.00    +0.000 C 
ENDBRANCH   1  11
BRANCH   1  12
ATOM     12  C   UNL     1       4.277   6.243  17.638  0.00  0.00    +0.000 C 
BRANCH  12  13
ATOM     13  C   UNL     1       3.794   6.278  19.088  0.00  0.00    +0.000 C 
BRANCH  13  14
ATOM     14  O   UNL     1       2.377   6.167  19.222  0.00  0.00    +0.000 OA
BRANCH  14  15
ATOM     15  C   UNL     1       1.990   4.945  19.723  0.00  0.00    +0.000 A 
ATOM     16  C   UNL     1       2.364   4.682  21.043  0.00  0.00    +0.000 A 
ATOM     17  C   UNL     1       1.995   3.477  21.652  0.00  0.00    +0.000 A 
ATOM     18  C   UNL     1       1.267   2.521  20.941  0.00  0.00    +0.000 A 
ATOM     19  C   UNL     1       0.924   2.761  19.614  0.00  0.00    +0.000 A 
ATOM     20  C   UNL     1       1.293   3.960  19.010  0.00  0.00    +0.000 A 
ATOM     21  F   UNL     1       0.966   4.118  17.720  0.00  0.00    +0.000 F 
ENDBRANCH  14  15
ENDBRANCH  13  14
ENDBRANCH  12  13
ENDBRANCH   1  12
TORSDOF 6
ENDMDL
MODEL 4
REMARK VINA RESULT:      -6.6      2.978      5.428
REMARK  Name = 
REMARK  8 active torsions:
REMARK  status: ('A' for Active; 'I' for Inactive)
REMARK    1  A    between atoms: C_1  and  C_2
REMARK    2  A    between atoms: C_2  and  N_3
REMARK    3  A    between atoms: N_3  and  C_4
REMARK    4  A    between atoms: C_4  and  C_5
REMARK    5  A    between atoms: C_5  and  O_6
REMARK    6  A    between atoms: O_6  and  C_7
REMARK    7  A    between atoms: C_14  and  C_16
REMARK    8  A    between atoms: N_20  and  C_21
REMARK                            x       y       z     vdW  Elec       q    Type
REMARK                         _______ _______ _______ _____ _____    ______ ____
ROOT
ATOM      1  N   UNL     1       5.635   5.222  16.520  0.00  0.00    +0.000 N 
ATOM      2  C   UNL     1       7.023   5.354  16.790  0.00  0.00    +0.000 C 
ATOM      3  O   UNL     1       7.800   4.464  16.440  0.00  0.00    +0.000 OA
ENDROOT
BRANCH   2   4
ATOM      4  C   UNL     1       7.538   6.579  17.432  0.00  0.00    +0.000 A 
ATOM      5  C   UNL     1       7.626   7.897  16.984  0.00  0.00    +0.000 A 
ATOM      6  C   UNL     1       8.242   8.698  17.970  0.00  0.00    +0.000 A 
ATOM      7  C   UNL     1       8.434   7.895  19.061  0.00  0.00    +0.000 A 
ATOM      8  N   UNL     1       7.997   6.630  18.745  0.00  0.00    +0.000 N 
ATOM      9  C   UNL     1       8.054   5.533  19.690  0.00  0.00    +0.000 C 
ENDBRANCH   2   4
BRANCH   1  11
ATOM     10  C   UNL     1       5.455   4.187  14.255  0.00  0.00    +0.000 C 
ATOM     11  C   UNL     1       5.191   4.057  15.747  0.00  0.00    +0.000 C 
ENDBRANCH   1  11
BRANCH   1  12
ATOM     12  C   UNL     1       4.674   6.254  16.904  0.00  0.00    +0.000 C 
BRANCH  12  13
ATOM     13  C   UNL     1       3.888   6.227  18.214  0.00  0.00    +0.000 C 
BRANCH  13  14
ATOM     14  O   UNL     1       2.481   6.066  18.034  0.00  0.00    +0.000 OA
BRANCH  14  15
ATOM     15  C   UNL     1       1.984   4.976  18.713  0.00  0.00    +0.000 A 
ATOM     16  C   UNL     1       1.740   3.838  17.943  0.00  0.00    +0.000 A 
ATOM     17  C   UNL     1       1.259   2.669  18.545  0.00  0.00    +0.000 A 
ATOM     18  C   UNL     1       1.003   2.638  19.917  0.00  0.00    +0.000 A 
ATOM     19  C   UNL     1       1.209   3.780  20.684  0.00  0.00    +0.000 A 
ATOM     20  C   UNL     1       1.687   4.941  20.082  0.00  0.00    +0.000 A 
ATOM     21  F   UNL     1       1.829   6.019  20.865  0.00  0.00    +0.000 F 
ENDBRANCH  14  15
ENDBRANCH  13  14
ENDBRANCH  12  13
ENDBRANCH   1  12
TORSDOF 6
ENDMDL
MODEL 5
REMARK VINA RESULT:      -6.5      0.728      1.451
REMARK  Name = 
REMARK  8 active torsions:
REMARK  status: ('A' for Active; 'I' for Inactive)
REMARK    1  A    between atoms: C_1  and  C_2
REMARK    2  A    between atoms: C_2  and  N_3
REMARK    3  A    between atoms: N_3  and  C_4
REMARK    4  A    between atoms: C_4  and  C_5
REMARK    5  A    between atoms: C_5  and  O_6
REMARK    6  A    between atoms: O_6  and  C_7
REMARK    7  A    between atoms: C_14  and  C_16
REMARK    8  A    between atoms: N_20  and  C_21
REMARK                            x       y       z     vdW  Elec       q    Type
REMARK                         _______ _______ _______ _____ _____    ______ ____
ROOT
ATOM      1  N   UNL     1       4.961   4.665  18.149  0.00  0.00    +0.000 N 
ATOM      2  C   UNL     1       4.532   3.771  19.165  0.00  0.00    +0.000 C 
ATOM      3  O   UNL     1       5.360   3.076  19.756  0.00  0.00    +0.000 OA
ENDROOT
BRANCH   2   4
ATOM      4  C   UNL     1       3.108   3.718  19.551  0.00  0.00    +0.000 A 
ATOM      5  C   UNL     1       2.390   4.380  20.547  0.00  0.00    +0.000 A 
ATOM      6  C   UNL     1       1.045   3.950  20.534  0.00  0.00    +0.000 A 
ATOM      7  C   UNL     1       0.916   3.105  19.465  0.00  0.00    +0.000 A 
ATOM      8  N   UNL     1       2.147   2.980  18.867  0.00  0.00    +0.000 N 
ATOM      9  C   UNL     1       2.357   2.155  17.694  0.00  0.00    +0.000 C 
ENDBRANCH   2   4
BRANCH   1  11
ATOM     10  C   UNL     1       7.093   5.756  18.857  0.00  0.00    +0.000 C 
ATOM     11  C   UNL     1       6.402   4.791  17.906  0.00  0.00    +0.000 C 
ENDBRANCH   1  11
BRANCH   1  12
ATOM     12  C   UNL     1       4.021   5.519  17.427  0.00  0.00    +0.000 C 
BRANCH  12  13
ATOM     13  C   UNL     1       3.589   6.900  17.919  0.00  0.00    +0.000 C 
BRANCH  13  14
ATOM     14  O   UNL     1       2.298   6.912  18.529  0.00  0.00    +0.000 OA
BRANCH  14  15
ATOM     15  C   UNL     1       1.889   8.182  18.871  0.00  0.00    +0.000 A 
ATOM     16  C   UNL     1       2.088   9.167  17.902  0.00  0.00    +0.000 A 
ATOM     17  C   UNL     1       1.682  10.485  18.144  0.00  0.00    +0.000 A 
ATOM     18  C   UNL     1       1.092  10.828  19.361  0.00  0.00    +0.000 A 
ATOM     19  C   UNL     1       0.925   9.859  20.346  0.00  0.00    +0.000 A 
ATOM     20  C   UNL     1       1.331   8.550  20.103  0.00  0.00    +0.000 A 
ATOM     21  F   UNL     1       1.179   7.669  21.102  0.00  0.00    +0.000 F 
ENDBRANCH  14  15
ENDBRANCH  13  14
ENDBRANCH  12  13
ENDBRANCH   1  12
TORSDOF 6
ENDMDL
MODEL 6
REMARK VINA RESULT:      -6.5      1.142      1.764
REMARK  Name = 
REMARK  8 active torsions:
REMARK  status: ('A' for Active; 'I' for Inactive)
REMARK    1  A    between atoms: C_1  and  C_2
REMARK    2  A    between atoms: C_2  and  N_3
REMARK    3  A    between atoms: N_3  and  C_4
REMARK    4  A    between atoms: C_4  and  C_5
REMARK    5  A    between atoms: C_5  and  O_6
REMARK    6  A    between atoms: O_6  and  C_7
REMARK    7  A    between atoms: C_14  and  C_16
REMARK    8  A    between atoms: N_20  and  C_21
REMARK                            x       y       z     vdW  Elec       q    Type
REMARK                         _______ _______ _______ _____ _____    ______ ____
ROOT
ATOM      1  N   UNL     1       4.202   5.582  18.236  0.00  0.00    +0.000 N 
ATOM      2  C   UNL     1       4.297   4.432  19.063  0.00  0.00    +0.000 C 
ATOM      3  O   UNL     1       5.401   3.938  19.296  0.00  0.00    +0.000 OA
ENDROOT
BRANCH   2   4
ATOM      4  C   UNL     1       3.084   3.868  19.687  0.00  0.00    +0.000 A 
ATOM      5  C   UNL     1       2.397   4.204  20.853  0.00  0.00    +0.000 A 
ATOM      6  C   UNL     1       1.307   3.326  21.037  0.00  0.00    +0.000 A 
ATOM      7  C   UNL     1       1.263   2.521  19.931  0.00  0.00    +0.000 A 
ATOM      8  N   UNL     1       2.317   2.857  19.115  0.00  0.00    +0.000 N 
ATOM      9  C   UNL     1       2.558   2.195  17.849  0.00  0.00    +0.000 C 
ENDBRANCH   2   4
BRANCH   1  11
ATOM     10  C   UNL     1       5.601   6.157  16.248  0.00  0.00    +0.000 C 
ATOM     11  C   UNL     1       5.447   6.195  17.761  0.00  0.00    +0.000 C 
ENDBRANCH   1  11
BRANCH   1  12
ATOM     12  C   UNL     1       2.918   6.213  17.938  0.00  0.00    +0.000 C 
BRANCH  12  13
ATOM     13  C   UNL     1       2.590   7.663  18.292  0.00  0.00    +0.000 C 
BRANCH  13  14
ATOM     14  O   UNL     1       2.185   7.843  19.649  0.00  0.00    +0.000 OA
BRANCH  14  15
ATOM     15  C   UNL     1       1.250   8.843  19.791  0.00  0.00    +0.000 A 
ATOM     16  C   UNL     1       0.929   9.547  18.628  0.00  0.00    +0.000 A 
ATOM     17  C   UNL     1      -0.031  10.566  18.664  0.00  0.00    +0.000 A 
ATOM     18  C   UNL     1      -0.661  10.899  19.864  0.00  0.00    +0.000 A 
ATOM     19  C   UNL     1      -0.319  10.227  21.033  0.00  0.00    +0.000 A 
ATOM     20  C   UNL     1       0.636   9.215  20.995  0.00  0.00    +0.000 A 
ATOM     21  F   UNL     1       0.951   8.630  22.160  0.00  0.00    +0.000 F 
ENDBRANCH  14  15
ENDBRANCH  13  14
ENDBRANCH  12  13
ENDBRANCH   1  12
TORSDOF 6
ENDMDL
MODEL 7
REMARK VINA RESULT:      -6.5      1.574      3.942
REMARK  Name = 
REMARK  8 active torsions:
REMARK  status: ('A' for Active; 'I' for Inactive)
REMARK    1  A    between atoms: C_1  and  C_2
REMARK    2  A    between atoms: C_2  and  N_3
REMARK    3  A    between atoms: N_3  and  C_4
REMARK    4  A    between atoms: C_4  and  C_5
REMARK    5  A    between atoms: C_5  and  O_6
REMARK    6  A    between atoms: O_6  and  C_7
REMARK    7  A    between atoms: C_14  and  C_16
REMARK    8  A    between atoms: N_20  and  C_21
REMARK                            x       y       z     vdW  Elec       q    Type
REMARK                         _______ _______ _______ _____ _____    ______ ____
ROOT
ATOM      1  N   UNL     1       3.324   3.879  19.415  0.00  0.00    +0.000 N 
ATOM      2  C   UNL     1       4.710   3.578  19.351  0.00  0.00    +0.000 C 
ATOM      3  O   UNL     1       5.119   2.495  19.773  0.00  0.00    +0.000 OA
ENDROOT
BRANCH   2   4
ATOM      4  C   UNL     1       5.647   4.533  18.728  0.00  0.00    +0.000 A 
ATOM      5  C   UNL     1       6.548   5.445  19.278  0.00  0.00    +0.000 A 
ATOM      6  C   UNL     1       7.190   6.165  18.247  0.00  0.00    +0.000 A 
ATOM      7  C   UNL     1       6.762   5.622  17.066  0.00  0.00    +0.000 A 
ATOM      8  N   UNL     1       5.850   4.634  17.355  0.00  0.00    +0.000 N 
ATOM      9  C   UNL     1       5.205   3.851  16.320  0.00  0.00    +0.000 C 
ENDBRANCH   2   4
BRANCH   1  11
ATOM     10  C   UNL     1       2.033   3.009  21.368  0.00  0.00    +0.000 C 
ATOM     11  C   UNL     1       2.414   2.838  19.905  0.00  0.00    +0.000 C 
ENDBRANCH   1  11
BRANCH   1  12
ATOM     12  C   UNL     1       2.787   5.144  18.918  0.00  0.00    +0.000 C 
BRANCH  12  13
ATOM     13  C   UNL     1       2.410   6.313  19.827  0.00  0.00    +0.000 C 
BRANCH  13  14
ATOM     14  O   UNL     1       2.564   7.591  19.209  0.00  0.00    +0.000 OA
BRANCH  14  15
ATOM     15  C   UNL     1       1.608   8.493  19.618  0.00  0.00    +0.000 A 
ATOM     16  C   UNL     1       1.159   8.351  20.932  0.00  0.00    +0.000 A 
ATOM     17  C   UNL     1       0.206   9.235  21.451  0.00  0.00    +0.000 A 
ATOM     18  C   UNL     1      -0.316  10.255  20.653  0.00  0.00    +0.000 A 
ATOM     19  C   UNL     1       0.099  10.379  19.331  0.00  0.00    +0.000 A 
ATOM     20  C   UNL     1       1.046   9.497  18.818  0.00  0.00    +0.000 A 
ATOM     21  F   UNL     1       1.378   9.643  17.528  0.00  0.00    +0.000 F 
ENDBRANCH  14  15
ENDBRANCH  13  14
ENDBRANCH  12  13
ENDBRANCH   1  12
TORSDOF 6
ENDMDL
MODEL 8
REMARK VINA RESULT:      -6.5      1.150      1.590
REMARK  Name = 
REMARK  8 active torsions:
REMARK  status: ('A' for Active; 'I' for Inactive)
REMARK    1  A    between atoms: C_1  and  C_2
REMARK    2  A    between atoms: C_2  and  N_3
REMARK    3  A    between atoms: N_3  and  C_4
REMARK    4  A    between atoms: C_4  and  C_5
REMARK    5  A    between atoms: C_5  and  O_6
REMARK    6  A    between atoms: O_6  and  C_7
REMARK    7  A    between atoms: C_14  and  C_16
REMARK    8  A    between atoms: N_20  and  C_21
REMARK                            x       y       z     vdW  Elec       q    Type
REMARK                         _______ _______ _______ _____ _____    ______ ____
ROOT
ATOM      1  N   UNL     1       4.655   4.957  18.370  0.00  0.00    +0.000 N 
ATOM      2  C   UNL     1       4.361   3.770  19.091  0.00  0.00    +0.000 C 
ATOM      3  O   UNL     1       5.243   3.227  19.758  0.00  0.00    +0.000 OA
ENDROOT
BRANCH   2   4
ATOM      4  C   UNL     1       2.990   3.223  19.088  0.00  0.00    +0.000 A 
ATOM      5  C   UNL     1       2.347   2.330  18.231  0.00  0.00    +0.000 A 
ATOM      6  C   UNL     1       1.006   2.156  18.638  0.00  0.00    +0.000 A 
ATOM      7  C   UNL     1       0.858   2.858  19.803  0.00  0.00    +0.000 A 
ATOM      8  N   UNL     1       2.051   3.484  20.081  0.00  0.00    +0.000 N 
ATOM      9  C   UNL     1       2.235   4.310  21.258  0.00  0.00    +0.000 C 
ENDBRANCH   2   4
BRANCH   1  11
ATOM     10  C   UNL     1       6.402   6.423  17.352  0.00  0.00    +0.000 C 
ATOM     11  C   UNL     1       5.990   5.544  18.524  0.00  0.00    +0.000 C 
ENDBRANCH   1  11
BRANCH   1  12
ATOM     12  C   UNL     1       3.641   5.645  17.574  0.00  0.00    +0.000 C 
BRANCH  12  13
ATOM     13  C   UNL     1       2.479   6.428  18.185  0.00  0.00    +0.000 C 
BRANCH  13  14
ATOM     14  O   UNL     1       2.859   7.247  19.290  0.00  0.00    +0.000 OA
BRANCH  14  15
ATOM     15  C   UNL     1       1.873   8.139  19.648  0.00  0.00    +0.000 A 
ATOM     16  C   UNL     1       1.285   7.926  20.896  0.00  0.00    +0.000 A 
ATOM     17  C   UNL     1       0.290   8.794  21.363  0.00  0.00    +0.000 A 
ATOM     18  C   UNL     1      -0.134   9.867  20.577  0.00  0.00    +0.000 A 
ATOM     19  C   UNL     1       0.422  10.063  19.317  0.00  0.00    +0.000 A 
ATOM     20  C   UNL     1       1.410   9.197  18.855  0.00  0.00    +0.000 A 
ATOM     21  F   UNL     1       1.881   9.414  17.619  0.00  0.00    +0.000 F 
ENDBRANCH  14  15
ENDBRANCH  13  14
ENDBRANCH  12  13
ENDBRANCH   1  12
TORSDOF 6
ENDMDL
MODEL 9
REMARK VINA RESULT:      -6.5      1.258      2.083
REMARK  Name = 
REMARK  8 active torsions:
REMARK  status: ('A' for Active; 'I' for Inactive)
REMARK    1  A    between atoms: C_1  and  C_2
REMARK    2  A    between atoms: C_2  and  N_3
REMARK    3  A    between atoms: N_3  and  C_4
REMARK    4  A    between atoms: C_4  and  C_5
REMARK    5  A    between atoms: C_5  and  O_6
REMARK    6  A    between atoms: O_6  and  C_7
REMARK    7  A    between atoms: C_14  and  C_16
REMARK    8  A    between atoms: N_20  and  C_21
REMARK                            x       y       z     vdW  Elec       q    Type
REMARK                         _______ _______ _______ _____ _____    ______ ____
ROOT
ATOM      1  N   UNL     1       5.022   4.579  18.453  0.00  0.00    +0.000 N 
ATOM      2  C   UNL     1       4.520   3.591  19.339  0.00  0.00    +0.000 C 
ATOM      3  O   UNL     1       5.294   2.782  19.854  0.00  0.00    +0.000 OA
ENDROOT
BRANCH   2   4
ATOM      4  C   UNL     1       3.085   3.570  19.689  0.00  0.00    +0.000 A 
ATOM      5  C   UNL     1       2.370   4.185  20.716  0.00  0.00    +0.000 A 
ATOM      6  C   UNL     1       1.010   3.814  20.641  0.00  0.00    +0.000 A 
ATOM      7  C   UNL     1       0.873   3.058  19.508  0.00  0.00    +0.000 A 
ATOM      8  N   UNL     1       2.113   2.926  18.929  0.00  0.00    +0.000 N 
ATOM      9  C   UNL     1       2.319   2.184  17.702  0.00  0.00    +0.000 C 
ENDBRANCH   2   4
BRANCH   1  11
ATOM     10  C   UNL     1       7.151   5.691  19.136  0.00  0.00    +0.000 C 
ATOM     11  C   UNL     1       6.473   4.654  18.254  0.00  0.00    +0.000 C 
ENDBRANCH   1  11
BRANCH   1  12
ATOM     12  C   UNL     1       4.146   5.567  17.826  0.00  0.00    +0.000 C 
BRANCH  12  13
ATOM     13  C   UNL     1       3.704   6.858  18.516  0.00  0.00    +0.000 C 
BRANCH  13  14
ATOM     14  O   UNL     1       2.402   7.296  18.128  0.00  0.00    +0.000 OA
BRANCH  14  15
ATOM     15  C   UNL     1       1.842   8.158  19.044  0.00  0.00    +0.000 A 
ATOM     16  C   UNL     1       1.799   7.701  20.362  0.00  0.00    +0.000 A 
ATOM     17  C   UNL     1       1.272   8.513  21.373  0.00  0.00    +0.000 A 
ATOM     18  C   UNL     1       0.769   9.780  21.068  0.00  0.00    +0.000 A 
ATOM     19  C   UNL     1       0.775  10.226  19.750  0.00  0.00    +0.000 A 
ATOM     20  C   UNL     1       1.299   9.415  18.748  0.00  0.00    +0.000 A 
ATOM     21  F   UNL     1       1.242   9.884  17.493  0.00  0.00    +0.000 F 
ENDBRANCH  14  15
ENDBRANCH  13  14
ENDBRANCH  12  13
ENDBRANCH   1  12
TORSDOF 6
ENDMDL
