MODEL 1
REMARK VINA RESULT:      -8.6      0.000      0.000
REMARK  Name = 
REMARK  7 active torsions:
REMARK  status: ('A' for Active; 'I' for Inactive)
REMARK    1  A    between atoms: C_1  and  C_2
REMARK    2  A    between atoms: C_2  and  C_3
REMARK    3  A    between atoms: N_5  and  C_6
REMARK    4  A    between atoms: C_6  and  C_7
REMARK    5  A    between atoms: C_11  and  C_12
REMARK    6  A    between atoms: N_15  and  C_16
REMARK    7  A    between atoms: C_19  and  C_20
REMARK                            x       y       z     vdW  Elec       q    Type
REMARK                         _______ _______ _______ _____ _____    ______ ____
ROOT
ATOM      1  C   UNL     1       2.069   7.941  18.764  0.00  0.00    +0.000 A 
ATOM      2  C   UNL     1       2.990   8.180  17.754  0.00  0.00    +0.000 A 
ATOM      3  C   UNL     1       3.893   7.193  17.388  0.00  0.00    +0.000 A 
ATOM      4  C   UNL     1       3.959   5.952  18.064  0.00  0.00    +0.000 A 
ATOM      5  C   UNL     1       4.837   4.891  17.708  0.00  0.00    +0.000 A 
ATOM      6  C   UNL     1       4.901   3.765  18.530  0.00  0.00    +0.000 A 
ATOM      7  C   UNL     1       4.076   3.714  19.639  0.00  0.00    +0.000 A 
ATOM      8  N   UNL     1       3.172   4.674  19.965  0.00  0.00    +0.000 NA
ATOM      9  C   UNL     1       3.115   5.761  19.183  0.00  0.00    +0.000 A 
ATOM     10  C   UNL     1       2.173   6.743  19.485  0.00  0.00    +0.000 A 
ENDROOT
BRANCH   5  11
ATOM     11  C   UNL     1       5.636   4.938  16.486  0.00  0.00    +0.000 A 
ATOM     12  C   UNL     1       6.895   5.537  16.228  0.00  0.00    +0.000 A 
ATOM     13  N   UNL     1       7.347   5.295  14.999  0.00  0.00    +0.000 NA
ATOM     14  N   UNL     1       6.365   4.568  14.444  0.00  0.00    +0.000 N 
ATOM     15  C   UNL     1       6.536   4.032  13.119  0.00  0.00    +0.000 C 
ATOM     16  C   UNL     1       5.299   4.361  15.279  0.00  0.00    +0.000 A 
ENDBRANCH   5  11
BRANCH   7  17
ATOM     17  C   UNL     1       4.137   2.528  20.558  0.00  0.00    +0.000 C 
ATOM     18  N   UNL     1       5.117   1.600  20.336  0.00  0.00    +0.000 N 
ATOM     19  O   UNL     1       3.328   2.386  21.478  0.00  0.00    +0.000 OA
ATOM     20  H   UNL     1       5.772   1.697  19.576  0.00  0.00    +0.000 HD
ATOM     21  H   UNL     1       5.151   0.794  20.946  0.00  0.00    +0.000 HD
ENDBRANCH   7  17
BRANCH   1  22
ATOM     22  C   UNL     1       0.983   8.954  19.067  0.00  0.00    +0.000 C 
BRANCH  22  25
ATOM     23  C   UNL     1      -0.423  10.484  21.306  0.00  0.00    +0.000 C 
ATOM     24  C   UNL     1       1.108  10.400  21.097  0.00  0.00    +0.000 C 
ATOM     25  N   UNL     1       1.466  10.219  19.665  0.00  0.00    +0.000 NA
ATOM     26  C   UNL     1       0.884  11.388  18.952  0.00  0.00    +0.000 C 
ATOM     27  C   UNL     1      -0.621  11.611  19.238  0.00  0.00    +0.000 C 
ATOM     28  O   UNL     1      -0.914  11.663  20.647  0.00  0.00    +0.000 OA
BRANCH  23  30
ATOM     29  C   UNL     1      -1.812  11.578  23.140  0.00  0.00    +0.000 C 
ATOM     30  C   UNL     1      -0.806  10.487  22.791  0.00  0.00    +0.000 C 
ENDBRANCH  23  30
ENDBRANCH  22  25
ENDBRANCH   1  22
TORSDOF 5
ENDMDL
MODEL 2
REMARK VINA RESULT:      -8.5      1.270      1.653
REMARK  Name = 
REMARK  7 active torsions:
REMARK  status: ('A' for Active; 'I' for Inactive)
REMARK    1  A    between atoms: C_1  and  C_2
REMARK    2  A    between atoms: C_2  and  C_3
REMARK    3  A    between atoms: N_5  and  C_6
REMARK    4  A    between atoms: C_6  and  C_7
REMARK    5  A    between atoms: C_11  and  C_12
REMARK    6  A    between atoms: N_15  and  C_16
REMARK    7  A    between atoms: C_19  and  C_20
REMARK                            x       y       z     vdW  Elec       q    Type
REMARK                         _______ _______ _______ _____ _____    ______ ____
ROOT
ATOM      1  C   UNL     1       2.254   7.875  18.887  0.00  0.00    +0.000 A 
ATOM      2  C   UNL     1       3.140   8.107  17.844  0.00  0.00    +0.000 A 
ATOM      3  C   UNL     1       4.000   7.103  17.425  0.00  0.00    +0.000 A 
ATOM      4  C   UNL     1       4.061   5.850  18.079  0.00  0.00    +0.000 A 
ATOM      5  C   UNL     1       4.896   4.773  17.671  0.00  0.00    +0.000 A 
ATOM      6  C   UNL     1       4.963   3.632  18.471  0.00  0.00    +0.000 A 
ATOM      7  C   UNL     1       4.184   3.583  19.612  0.00  0.00    +0.000 A 
ATOM      8  N   UNL     1       3.319   4.561  19.991  0.00  0.00    +0.000 NA
ATOM      9  C   UNL     1       3.259   5.662  19.229  0.00  0.00    +0.000 A 
ATOM     10  C   UNL     1       2.356   6.662  19.584  0.00  0.00    +0.000 A 
ENDROOT
BRANCH   5  11
ATOM     11  C   UNL     1       5.645   4.820  16.417  0.00  0.00    +0.000 A 
ATOM     12  C   UNL     1       6.886   5.430  16.105  0.00  0.00    +0.000 A 
ATOM     13  N   UNL     1       7.292   5.185  14.861  0.00  0.00    +0.000 NA
ATOM     14  N   UNL     1       6.296   4.443  14.351  0.00  0.00    +0.000 N 
ATOM     15  C   UNL     1       6.421   3.899  13.024  0.00  0.00    +0.000 C 
ATOM     16  C   UNL     1       5.267   4.230  15.228  0.00  0.00    +0.000 A 
ENDBRANCH   5  11
BRANCH   7  17
ATOM     17  C   UNL     1       4.250   2.381  20.510  0.00  0.00    +0.000 C 
ATOM     18  N   UNL     1       5.189   1.426  20.226  0.00  0.00    +0.000 N 
ATOM     19  O   UNL     1       3.483   2.248  21.466  0.00  0.00    +0.000 OA
ATOM     20  H   UNL     1       5.809   1.516  19.437  0.00  0.00    +0.000 HD
ATOM     21  H   UNL     1       5.226   0.610  20.822  0.00  0.00    +0.000 HD
ENDBRANCH   7  17
BRANCH   1  22
ATOM     22  C   UNL     1       1.209   8.910  19.250  0.00  0.00    +0.000 C 
BRANCH  22  25
ATOM     23  C   UNL     1       0.798  11.870  19.884  0.00  0.00    +0.000 C 
ATOM     24  C   UNL     1       1.537  11.309  18.646  0.00  0.00    +0.000 C 
ATOM     25  N   UNL     1       1.016   9.976  18.241  0.00  0.00    +0.000 NA
ATOM     26  C   UNL     1      -0.431  10.175  17.965  0.00  0.00    +0.000 C 
ATOM     27  C   UNL     1      -1.200  10.868  19.115  0.00  0.00    +0.000 C 
ATOM     28  O   UNL     1      -0.578  12.098  19.534  0.00  0.00    +0.000 OA
BRANCH  23  30
ATOM     29  C   UNL     1       2.640  13.602  19.578  0.00  0.00    +0.000 C 
ATOM     30  C   UNL     1       1.447  13.154  20.414  0.00  0.00    +0.000 C 
ENDBRANCH  23  30
ENDBRANCH  22  25
ENDBRANCH   1  22
TORSDOF 5
ENDMDL
MODEL 3
REMARK VINA RESULT:      -8.3      1.227      1.346
REMARK  Name = 
REMARK  7 active torsions:
REMARK  status: ('A' for Active; 'I' for Inactive)
REMARK    1  A    between atoms: C_1  and  C_2
REMARK    2  A    between atoms: C_2  and  C_3
REMARK    3  A    between atoms: N_5  and  C_6
REMARK    4  A    between atoms: C_6  and  C_7
REMARK    5  A    between atoms: C_11  and  C_12
REMARK    6  A    between atoms: N_15  and  C_16
REMARK    7  A    between atoms: C_19  and  C_20
REMARK                            x       y       z     vdW  Elec       q    Type
REMARK                         _______ _______ _______ _____ _____    ______ ____
ROOT
ATOM      1  C   UNL     1       1.757   8.543  18.610  0.00  0.00    +0.000 A 
ATOM      2  C   UNL     1       2.897   8.545  17.818  0.00  0.00    +0.000 A 
ATOM      3  C   UNL     1       3.676   7.403  17.717  0.00  0.00    +0.000 A 
ATOM      4  C   UNL     1       3.389   6.233  18.461  0.00  0.00    +0.000 A 
ATOM      5  C   UNL     1       4.130   5.023  18.370  0.00  0.00    +0.000 A 
ATOM      6  C   UNL     1       3.829   3.981  19.249  0.00  0.00    +0.000 A 
ATOM      7  C   UNL     1       2.794   4.158  20.148  0.00  0.00    +0.000 A 
ATOM      8  N   UNL     1       2.017   5.272  20.210  0.00  0.00    +0.000 NA
ATOM      9  C   UNL     1       2.309   6.277  19.375  0.00  0.00    +0.000 A 
ATOM     10  C   UNL     1       1.504   7.415  19.403  0.00  0.00    +0.000 A 
ENDROOT
BRANCH   5  11
ATOM     11  C   UNL     1       5.163   4.835  17.354  0.00  0.00    +0.000 A 
ATOM     12  C   UNL     1       6.577   4.864  17.459  0.00  0.00    +0.000 A 
ATOM     13  N   UNL     1       7.192   4.563  16.317  0.00  0.00    +0.000 NA
ATOM     14  N   UNL     1       6.178   4.371  15.459  0.00  0.00    +0.000 N 
ATOM     15  C   UNL     1       6.454   3.931  14.117  0.00  0.00    +0.000 C 
ATOM     16  C   UNL     1       4.943   4.562  16.020  0.00  0.00    +0.000 A 
ENDBRANCH   5  11
BRANCH   7  17
ATOM     17  C   UNL     1       2.460   3.067  21.124  0.00  0.00    +0.000 C 
ATOM     18  N   UNL     1       1.139   2.855  21.412  0.00  0.00    +0.000 N 
ATOM     19  O   UNL     1       3.341   2.390  21.658  0.00  0.00    +0.000 OA
ATOM     20  H   UNL     1       0.412   3.415  20.996  0.00  0.00    +0.000 HD
ATOM     21  H   UNL     1       0.913   2.129  22.080  0.00  0.00    +0.000 HD
ENDBRANCH   7  17
BRANCH   1  22
ATOM     22  C   UNL     1       0.819   9.733  18.606  0.00  0.00    +0.000 C 
BRANCH  22  25
ATOM     23  C   UNL     1      -0.493  10.932  21.091  0.00  0.00    +0.000 C 
ATOM     24  C   UNL     1       1.027  10.902  20.801  0.00  0.00    +0.000 C 
ATOM     25  N   UNL     1       1.317  10.917  19.342  0.00  0.00    +0.000 NA
ATOM     26  C   UNL     1       0.689  12.159  18.818  0.00  0.00    +0.000 C 
ATOM     27  C   UNL     1      -0.802  12.317  19.201  0.00  0.00    +0.000 C 
ATOM     28  O   UNL     1      -1.028  12.180  20.617  0.00  0.00    +0.000 OA
BRANCH  23  30
ATOM     29  C   UNL     1      -0.116   9.508  23.170  0.00  0.00    +0.000 C 
ATOM     30  C   UNL     1      -0.803  10.735  22.579  0.00  0.00    +0.000 C 
ENDBRANCH  23  30
ENDBRANCH  22  25
ENDBRANCH   1  22
TORSDOF 5
ENDMDL
MODEL 4
REMARK VINA RESULT:      -8.2      1.666      1.839
REMARK  Name = 
REMARK  7 active torsions:
REMARK  status: ('A' for Active; 'I' for Inactive)
REMARK    1  A    between atoms: C_1  and  C_2
REMARK    2  A    between atoms: C_2  and  C_3
REMARK    3  A    between atoms: N_5  and  C_6
REMARK    4  A    between atoms: C_6  and  C_7
REMARK    5  A    between atoms: C_11  and  C_12
REMARK    6  A    between atoms: N_15  and  C_16
REMARK    7  A    between atoms: C_19  and  C_20
REMARK                            x       y       z     vdW  Elec       q    Type
REMARK                         _______ _______ _______ _____ _____    ______ ____
ROOT
ATOM      1  C   UNL     1       2.448   7.708  18.549  0.00  0.00    +0.000 A 
ATOM      2  C   UNL     1       3.542   8.001  17.748  0.00  0.00    +0.000 A 
ATOM      3  C   UNL     1       4.271   6.976  17.164  0.00  0.00    +0.000 A 
ATOM      4  C   UNL     1       3.979   5.614  17.413  0.00  0.00    +0.000 A 
ATOM      5  C   UNL     1       4.667   4.524  16.814  0.00  0.00    +0.000 A 
ATOM      6  C   UNL     1       4.375   3.227  17.237  0.00  0.00    +0.000 A 
ATOM      7  C   UNL     1       3.397   3.055  18.199  0.00  0.00    +0.000 A 
ATOM      8  N   UNL     1       2.667   4.068  18.738  0.00  0.00    +0.000 NA
ATOM      9  C   UNL     1       2.953   5.315  18.340  0.00  0.00    +0.000 A 
ATOM     10  C   UNL     1       2.194   6.363  18.858  0.00  0.00    +0.000 A 
ENDROOT
BRANCH   5  11
ATOM     11  C   UNL     1       5.637   4.730  15.740  0.00  0.00    +0.000 A 
ATOM     12  C   UNL     1       6.914   5.346  15.755  0.00  0.00    +0.000 A 
ATOM     13  N   UNL     1       7.545   5.272  14.584  0.00  0.00    +0.000 NA
ATOM     14  N   UNL     1       6.663   4.637  13.797  0.00  0.00    +0.000 N 
ATOM     15  C   UNL     1       7.033   4.286  12.451  0.00  0.00    +0.000 C 
ATOM     16  C   UNL     1       5.488   4.327  14.429  0.00  0.00    +0.000 A 
ENDBRANCH   5  11
BRANCH   7  17
ATOM     17  C   UNL     1       3.073   1.675  18.696  0.00  0.00    +0.000 C 
ATOM     18  N   UNL     1       4.000   0.691  18.487  0.00  0.00    +0.000 N 
ATOM     19  O   UNL     1       2.008   1.430  19.266  0.00  0.00    +0.000 OA
ATOM     20  H   UNL     1       4.866   0.876  18.007  0.00  0.00    +0.000 HD
ATOM     21  H   UNL     1       3.778  -0.242  18.810  0.00  0.00    +0.000 HD
ENDBRANCH   7  17
BRANCH   1  22
ATOM     22  C   UNL     1       1.557   8.819  19.067  0.00  0.00    +0.000 C 
BRANCH  22  25
ATOM     23  C   UNL     1       1.147  11.775  19.721  0.00  0.00    +0.000 C 
ATOM     24  C   UNL     1       1.772  11.219  18.419  0.00  0.00    +0.000 C 
ATOM     25  N   UNL     1       1.242   9.873  18.076  0.00  0.00    +0.000 NA
ATOM     26  C   UNL     1      -0.230  10.040  17.944  0.00  0.00    +0.000 C 
ATOM     27  C   UNL     1      -0.896  10.726  19.160  0.00  0.00    +0.000 C 
ATOM     28  O   UNL     1      -0.261  11.971  19.509  0.00  0.00    +0.000 OA
BRANCH  23  30
ATOM     29  C   UNL     1       0.954  13.881  21.141  0.00  0.00    +0.000 C 
ATOM     30  C   UNL     1       1.818  13.076  20.177  0.00  0.00    +0.000 C 
ENDBRANCH  23  30
ENDBRANCH  22  25
ENDBRANCH   1  22
TORSDOF 5
ENDMDL
MODEL 5
REMARK VINA RESULT:      -8.2      1.591      2.410
REMARK  Name = 
REMARK  7 active torsions:
REMARK  status: ('A' for Active; 'I' for Inactive)
REMARK    1  A    between atoms: C_1  and  C_2
REMARK    2  A    between atoms: C_2  and  C_3
REMARK    3  A    between atoms: N_5  and  C_6
REMARK    4  A    between atoms: C_6  and  C_7
REMARK    5  A    between atoms: C_11  and  C_12
REMARK    6  A    between atoms: N_15  and  C_16
REMARK    7  A    between atoms: C_19  and  C_20
REMARK                            x       y       z     vdW  Elec       q    Type
REMARK                         _______ _______ _______ _____ _____    ______ ____
ROOT
ATOM      1  C   UNL     1       2.003   8.672  18.399  0.00  0.00    +0.000 A 
ATOM      2  C   UNL     1       3.150   8.605  17.620  0.00  0.00    +0.000 A 
ATOM      3  C   UNL     1       3.868   7.421  17.539  0.00  0.00    +0.000 A 
ATOM      4  C   UNL     1       3.510   6.276  18.291  0.00  0.00    +0.000 A 
ATOM      5  C   UNL     1       4.186   5.027  18.220  0.00  0.00    +0.000 A 
ATOM      6  C   UNL     1       3.820   4.012  19.104  0.00  0.00    +0.000 A 
ATOM      7  C   UNL     1       2.786   4.253  19.989  0.00  0.00    +0.000 A 
ATOM      8  N   UNL     1       2.069   5.407  20.033  0.00  0.00    +0.000 NA
ATOM      9  C   UNL     1       2.424   6.387  19.191  0.00  0.00    +0.000 A 
ATOM     10  C   UNL     1       1.681   7.566  19.200  0.00  0.00    +0.000 A 
ENDROOT
BRANCH   5  11
ATOM     11  C   UNL     1       5.218   4.774  17.217  0.00  0.00    +0.000 A 
ATOM     12  C   UNL     1       6.628   4.690  17.345  0.00  0.00    +0.000 A 
ATOM     13  N   UNL     1       7.238   4.359  16.208  0.00  0.00    +0.000 NA
ATOM     14  N   UNL     1       6.226   4.261  15.331  0.00  0.00    +0.000 N 
ATOM     15  C   UNL     1       6.490   3.821  13.986  0.00  0.00    +0.000 C 
ATOM     16  C   UNL     1       5.001   4.539  15.875  0.00  0.00    +0.000 A 
ENDBRANCH   5  11
BRANCH   7  17
ATOM     17  C   UNL     1       2.383   3.191  20.972  0.00  0.00    +0.000 C 
ATOM     18  N   UNL     1       1.045   2.979  21.166  0.00  0.00    +0.000 N 
ATOM     19  O   UNL     1       3.223   2.537  21.593  0.00  0.00    +0.000 OA
ATOM     20  H   UNL     1       0.350   3.521  20.678  0.00  0.00    +0.000 HD
ATOM     21  H   UNL     1       0.772   2.274  21.837  0.00  0.00    +0.000 HD
ENDBRANCH   7  17
BRANCH   1  22
ATOM     22  C   UNL     1       1.130   9.910  18.374  0.00  0.00    +0.000 C 
BRANCH  22  25
ATOM     23  C   UNL     1      -1.523  11.394  18.065  0.00  0.00    +0.000 C 
ATOM     24  C   UNL     1      -1.325  10.047  18.801  0.00  0.00    +0.000 C 
ATOM     25  N   UNL     1       0.041   9.920  19.376  0.00  0.00    +0.000 NA
ATOM     26  C   UNL     1       0.197  11.073  20.303  0.00  0.00    +0.000 C 
ATOM     27  C   UNL     1      -0.130  12.443  19.661  0.00  0.00    +0.000 C 
ATOM     28  O   UNL     1      -1.421  12.461  19.023  0.00  0.00    +0.000 OA
BRANCH  23  30
ATOM     29  C   UNL     1      -2.789  10.833  15.927  0.00  0.00    +0.000 C 
ATOM     30  C   UNL     1      -2.859  11.456  17.317  0.00  0.00    +0.000 C 
ENDBRANCH  23  30
ENDBRANCH  22  25
ENDBRANCH   1  22
TORSDOF 5
ENDMDL
MODEL 6
REMARK VINA RESULT:      -8.0      1.487      2.053
REMARK  Name = 
REMARK  7 active torsions:
REMARK  status: ('A' for Active; 'I' for Inactive)
REMARK    1  A    between atoms: C_1  and  C_2
REMARK    2  A    between atoms: C_2  and  C_3
REMARK    3  A    between atoms: N_5  and  C_6
REMARK    4  A    between atoms: C_6  and  C_7
REMARK    5  A    between atoms: C_11  and  C_12
REMARK    6  A    between atoms: N_15  and  C_16
REMARK    7  A    between atoms: C_19  and  C_20
REMARK                            x       y       z     vdW  Elec       q    Type
REMARK                         _______ _______ _______ _____ _____    ______ ____
ROOT
ATOM      1  C   UNL     1       2.298   8.470  18.220  0.00  0.00    +0.000 A 
ATOM      2  C   UNL     1       3.473   8.487  17.483  0.00  0.00    +0.000 A 
ATOM      3  C   UNL     1       4.128   7.300  17.192  0.00  0.00    +0.000 A 
ATOM      4  C   UNL     1       3.675   6.054  17.687  0.00  0.00    +0.000 A 
ATOM      5  C   UNL     1       4.285   4.804  17.391  0.00  0.00    +0.000 A 
ATOM      6  C   UNL     1       3.824   3.659  18.042  0.00  0.00    +0.000 A 
ATOM      7  C   UNL     1       2.766   3.785  18.923  0.00  0.00    +0.000 A 
ATOM      8  N   UNL     1       2.112   4.950  19.171  0.00  0.00    +0.000 NA
ATOM      9  C   UNL     1       2.557   6.053  18.555  0.00  0.00    +0.000 A 
ATOM     10  C   UNL     1       1.880   7.251  18.773  0.00  0.00    +0.000 A 
ENDROOT
BRANCH   5  11
ATOM     11  C   UNL     1       5.346   4.690  16.394  0.00  0.00    +0.000 A 
ATOM     12  C   UNL     1       6.755   4.775  16.531  0.00  0.00    +0.000 A 
ATOM     13  N   UNL     1       7.407   4.534  15.395  0.00  0.00    +0.000 NA
ATOM     14  N   UNL     1       6.421   4.325  14.510  0.00  0.00    +0.000 N 
ATOM     15  C   UNL     1       6.744   3.937  13.162  0.00  0.00    +0.000 C 
ATOM     16  C   UNL     1       5.167   4.447  15.047  0.00  0.00    +0.000 A 
ENDBRANCH   5  11
BRANCH   7  17
ATOM     17  C   UNL     1       2.261   2.577  19.659  0.00  0.00    +0.000 C 
ATOM     18  N   UNL     1       1.660   1.590  18.927  0.00  0.00    +0.000 N 
ATOM     19  O   UNL     1       2.373   2.477  20.883  0.00  0.00    +0.000 OA
ATOM     20  H   UNL     1       1.547   1.670  17.929  0.00  0.00    +0.000 HD
ATOM     21  H   UNL     1       1.308   0.783  19.423  0.00  0.00    +0.000 HD
ENDBRANCH   7  17
BRANCH   1  22
ATOM     22  C   UNL     1       1.495   9.742  18.413  0.00  0.00    +0.000 C 
BRANCH  22  25
ATOM     23  C   UNL     1      -1.103  11.345  18.518  0.00  0.00    +0.000 C 
ATOM     24  C   UNL     1      -0.898   9.924  19.095  0.00  0.00    +0.000 C 
ATOM     25  N   UNL     1       0.508   9.690  19.516  0.00  0.00    +0.000 NA
ATOM     26  C   UNL     1       0.806  10.736  20.530  0.00  0.00    +0.000 C 
ATOM     27  C   UNL     1       0.483  12.175  20.062  0.00  0.00    +0.000 C 
ATOM     28  O   UNL     1      -0.861  12.305  19.561  0.00  0.00    +0.000 OA
BRANCH  23  30
ATOM     29  C   UNL     1      -3.230  10.211  17.694  0.00  0.00    +0.000 C 
ATOM     30  C   UNL     1      -2.501  11.532  17.918  0.00  0.00    +0.000 C 
ENDBRANCH  23  30
ENDBRANCH  22  25
ENDBRANCH   1  22
TORSDOF 5
ENDMDL
MODEL 7
REMARK VINA RESULT:      -7.9      1.000      1.332
REMARK  Name = 
REMARK  7 active torsions:
REMARK  status: ('A' for Active; 'I' for Inactive)
REMARK    1  A    between atoms: C_1  and  C_2
REMARK    2  A    between atoms: C_2  and  C_3
REMARK    3  A    between atoms: N_5  and  C_6
REMARK    4  A    between atoms: C_6  and  C_7
REMARK    5  A    between atoms: C_11  and  C_12
REMARK    6  A    between atoms: N_15  and  C_16
REMARK    7  A    between atoms: C_19  and  C_20
REMARK                            x       y       z     vdW  Elec       q    Type
REMARK                         _______ _______ _______ _____ _____    ______ ____
ROOT
ATOM      1  C   UNL     1       2.243   8.289  18.459  0.00  0.00    +0.000 A 
ATOM      2  C   UNL     1       3.216   8.432  17.481  0.00  0.00    +0.000 A 
ATOM      3  C   UNL     1       4.051   7.369  17.169  0.00  0.00    +0.000 A 
ATOM      4  C   UNL     1       3.995   6.143  17.873  0.00  0.00    +0.000 A 
ATOM      5  C   UNL     1       4.799   5.009  17.573  0.00  0.00    +0.000 A 
ATOM      6  C   UNL     1       4.744   3.901  18.420  0.00  0.00    +0.000 A 
ATOM      7  C   UNL     1       3.878   3.940  19.497  0.00  0.00    +0.000 A 
ATOM      8  N   UNL     1       3.041   4.975  19.769  0.00  0.00    +0.000 NA
ATOM      9  C   UNL     1       3.098   6.044  18.963  0.00  0.00    +0.000 A 
ATOM     10  C   UNL     1       2.226   7.103  19.208  0.00  0.00    +0.000 A 
ENDROOT
BRANCH   5  11
ATOM     11  C   UNL     1       5.642   4.965  16.381  0.00  0.00    +0.000 A 
ATOM     12  C   UNL     1       6.960   5.443  16.164  0.00  0.00    +0.000 A 
ATOM     13  N   UNL     1       7.432   5.143  14.955  0.00  0.00    +0.000 NA
ATOM     14  N   UNL     1       6.409   4.499  14.373  0.00  0.00    +0.000 N 
ATOM     15  C   UNL     1       6.579   3.930  13.062  0.00  0.00    +0.000 C 
ATOM     16  C   UNL     1       5.299   4.401  15.169  0.00  0.00    +0.000 A 
ENDBRANCH   5  11
BRANCH   7  17
ATOM     17  C   UNL     1       3.812   2.775  20.442  0.00  0.00    +0.000 C 
ATOM     18  N   UNL     1       4.823   1.855  20.390  0.00  0.00    +0.000 N 
ATOM     19  O   UNL     1       2.876   2.642  21.235  0.00  0.00    +0.000 OA
ATOM     20  H   UNL     1       5.582   1.944  19.734  0.00  0.00    +0.000 HD
ATOM     21  H   UNL     1       4.773   1.063  21.017  0.00  0.00    +0.000 HD
ENDBRANCH   7  17
BRANCH   1  22
ATOM     22  C   UNL     1       1.230   9.390  18.700  0.00  0.00    +0.000 C 
BRANCH  22  25
ATOM     23  C   UNL     1      -0.907  11.351  19.661  0.00  0.00    +0.000 C 
ATOM     24  C   UNL     1      -0.840   9.847  20.017  0.00  0.00    +0.000 C 
ATOM     25  N   UNL     1       0.556   9.334  20.017  0.00  0.00    +0.000 NA
ATOM     26  C   UNL     1       1.289  10.161  21.012  0.00  0.00    +0.000 C 
ATOM     27  C   UNL     1       1.141  11.686  20.793  0.00  0.00    +0.000 C 
ATOM     28  O   UNL     1      -0.235  12.098  20.689  0.00  0.00    +0.000 OA
BRANCH  23  30
ATOM     29  C   UNL     1      -2.765  12.856  20.540  0.00  0.00    +0.000 C 
ATOM     30  C   UNL     1      -2.348  11.841  19.481  0.00  0.00    +0.000 C 
ENDBRANCH  23  30
ENDBRANCH  22  25
ENDBRANCH   1  22
TORSDOF 5
ENDMDL
MODEL 8
REMARK VINA RESULT:      -7.8      0.963      1.057
REMARK  Name = 
REMARK  7 active torsions:
REMARK  status: ('A' for Active; 'I' for Inactive)
REMARK    1  A    between atoms: C_1  and  C_2
REMARK    2  A    between atoms: C_2  and  C_3
REMARK    3  A    between atoms: N_5  and  C_6
REMARK    4  A    between atoms: C_6  and  C_7
REMARK    5  A    between atoms: C_11  and  C_12
REMARK    6  A    between atoms: N_15  and  C_16
REMARK    7  A    between atoms: C_19  and  C_20
REMARK                            x       y       z     vdW  Elec       q    Type
REMARK                         _______ _______ _______ _____ _____    ______ ____
ROOT
ATOM      1  C   UNL     1       1.836   8.117  19.395  0.00  0.00    +0.000 A 
ATOM      2  C   UNL     1       2.604   8.374  18.267  0.00  0.00    +0.000 A 
ATOM      3  C   UNL     1       3.408   7.380  17.732  0.00  0.00    +0.000 A 
ATOM      4  C   UNL     1       3.534   6.110  18.343  0.00  0.00    +0.000 A 
ATOM      5  C   UNL     1       4.314   5.042  17.819  0.00  0.00    +0.000 A 
ATOM      6  C   UNL     1       4.464   3.881  18.579  0.00  0.00    +0.000 A 
ATOM      7  C   UNL     1       3.813   3.804  19.796  0.00  0.00    +0.000 A 
ATOM      8  N   UNL     1       3.000   4.774  20.292  0.00  0.00    +0.000 NA
ATOM      9  C   UNL     1       2.862   5.894  19.569  0.00  0.00    +0.000 A 
ATOM     10  C   UNL     1       2.008   6.887  20.046  0.00  0.00    +0.000 A 
ENDROOT
BRANCH   5  11
ATOM     11  C   UNL     1       4.921   5.119  16.492  0.00  0.00    +0.000 A 
ATOM     12  C   UNL     1       5.521   6.211  15.814  0.00  0.00    +0.000 A 
ATOM     13  N   UNL     1       6.043   5.871  14.636  0.00  0.00    +0.000 NA
ATOM     14  N   UNL     1       5.752   4.565  14.533  0.00  0.00    +0.000 N 
ATOM     15  C   UNL     1       6.245   3.813  13.410  0.00  0.00    +0.000 C 
ATOM     16  C   UNL     1       5.046   4.075  15.599  0.00  0.00    +0.000 A 
ENDBRANCH   5  11
BRANCH   7  17
ATOM     17  C   UNL     1       3.972   2.580  20.651  0.00  0.00    +0.000 C 
ATOM     18  N   UNL     1       4.992   1.720  20.347  0.00  0.00    +0.000 N 
ATOM     19  O   UNL     1       3.208   2.347  21.590  0.00  0.00    +0.000 OA
ATOM     20  H   UNL     1       5.611   1.891  19.570  0.00  0.00    +0.000 HD
ATOM     21  H   UNL     1       5.092   0.888  20.913  0.00  0.00    +0.000 HD
ENDBRANCH   7  17
BRANCH   1  22
ATOM     22  C   UNL     1       0.842   9.145  19.896  0.00  0.00    +0.000 C 
BRANCH  22  25
ATOM     23  C   UNL     1      -0.930  11.550  20.535  0.00  0.00    +0.000 C 
ATOM     24  C   UNL     1       0.504  11.616  19.956  0.00  0.00    +0.000 C 
ATOM     25  N   UNL     1       0.833  10.418  19.140  0.00  0.00    +0.000 NA
ATOM     26  C   UNL     1      -0.187  10.373  18.059  0.00  0.00    +0.000 C 
ATOM     27  C   UNL     1      -1.646  10.451  18.568  0.00  0.00    +0.000 C 
ATOM     28  O   UNL     1      -1.867  11.572  19.444  0.00  0.00    +0.000 OA
BRANCH  23  30
ATOM     29  C   UNL     1      -1.259  12.220  22.970  0.00  0.00    +0.000 C 
ATOM     30  C   UNL     1      -1.211  12.690  21.521  0.00  0.00    +0.000 C 
ENDBRANCH  23  30
ENDBRANCH  22  25
ENDBRANCH   1  22
TORSDOF 5
ENDMDL
MODEL 9
REMARK VINA RESULT:      -7.8      1.150      1.167
REMARK  Name = 
REMARK  7 active torsions:
REMARK  status: ('A' for Active; 'I' for Inactive)
REMARK    1  A    between atoms: C_1  and  C_2
REMARK    2  A    between atoms: C_2  and  C_3
REMARK    3  A    between atoms: N_5  and  C_6
REMARK    4  A    between atoms: C_6  and  C_7
REMARK    5  A    between atoms: C_11  and  C_12
REMARK    6  A    between atoms: N_15  and  C_16
REMARK    7  A    between atoms: C_19  and  C_20
REMARK                            x       y       z     vdW  Elec       q    Type
REMARK                         _______ _______ _______ _____ _____    ______ ____
ROOT
ATOM      1  C   UNL     1       2.147   8.178  18.000  0.00  0.00    +0.000 A 
ATOM      2  C   UNL     1       3.251   8.364  17.180  0.00  0.00    +0.000 A 
ATOM      3  C   UNL     1       4.071   7.291  16.863  0.00  0.00    +0.000 A 
ATOM      4  C   UNL     1       3.863   6.003  17.411  0.00  0.00    +0.000 A 
ATOM      5  C   UNL     1       4.648   4.861  17.094  0.00  0.00    +0.000 A 
ATOM      6  C   UNL     1       4.427   3.675  17.797  0.00  0.00    +0.000 A 
ATOM      7  C   UNL     1       3.424   3.653  18.748  0.00  0.00    +0.000 A 
ATOM      8  N   UNL     1       2.606   4.703  19.023  0.00  0.00    +0.000 NA
ATOM      9  C   UNL     1       2.822   5.845  18.356  0.00  0.00    +0.000 A 
ATOM     10  C   UNL     1       1.973   6.923  18.602  0.00  0.00    +0.000 A 
ENDROOT
BRANCH   5  11
ATOM     11  C   UNL     1       5.644   4.891  16.026  0.00  0.00    +0.000 A 
ATOM     12  C   UNL     1       6.991   5.335  16.032  0.00  0.00    +0.000 A 
ATOM     13  N   UNL     1       7.615   5.127  14.874  0.00  0.00    +0.000 NA
ATOM     14  N   UNL     1       6.663   4.579  14.103  0.00  0.00    +0.000 N 
ATOM     15  C   UNL     1       6.995   4.124  12.778  0.00  0.00    +0.000 C 
ATOM     16  C   UNL     1       5.454   4.454  14.731  0.00  0.00    +0.000 A 
ENDBRANCH   5  11
BRANCH   7  17
ATOM     17  C   UNL     1       3.175   2.401  19.540  0.00  0.00    +0.000 C 
ATOM     18  N   UNL     1       2.948   2.533  20.883  0.00  0.00    +0.000 N 
ATOM     19  O   UNL     1       3.183   1.290  19.006  0.00  0.00    +0.000 OA
ATOM     20  H   UNL     1       2.957   3.434  21.332  0.00  0.00    +0.000 HD
ATOM     21  H   UNL     1       2.794   1.690  21.420  0.00  0.00    +0.000 HD
ENDBRANCH   7  17
BRANCH   1  22
ATOM     22  C   UNL     1       1.162   9.307  18.227  0.00  0.00    +0.000 C 
BRANCH  22  25
ATOM     23  C   UNL     1      -0.294   9.518  20.905  0.00  0.00    +0.000 C 
ATOM     24  C   UNL     1       1.224   9.728  20.686  0.00  0.00    +0.000 C 
ATOM     25  N   UNL     1       1.526  10.235  19.321  0.00  0.00    +0.000 NA
ATOM     26  C   UNL     1       0.776  11.513  19.191  0.00  0.00    +0.000 C 
ATOM     27  C   UNL     1      -0.727  11.398  19.539  0.00  0.00    +0.000 C 
ATOM     28  O   UNL     1      -0.951  10.794  20.827  0.00  0.00    +0.000 OA
BRANCH  23  30
ATOM     29  C   UNL     1       0.039   9.534  23.431  0.00  0.00    +0.000 C 
ATOM     30  C   UNL     1      -0.597   8.827  22.239  0.00  0.00    +0.000 C 
ENDBRANCH  23  30
ENDBRANCH  22  25
ENDBRANCH   1  22
TORSDOF 5
ENDMDL
