MODEL 1
REMARK VINA RESULT:      -9.0      0.000      0.000
REMARK  Name = 
REMARK  5 active torsions:
REMARK  status: ('A' for Active; 'I' for Inactive)
REMARK    1  A    between atoms: C_2  and  C_17
REMARK    2  A    between atoms: N_3  and  C_4
REMARK    3  A    between atoms: C_7  and  N_8
REMARK    4  A    between atoms: C_19  and  O_20
REMARK    5  A    between atoms: N_25  and  C_26
REMARK                            x       y       z     vdW  Elec       q    Type
REMARK                         _______ _______ _______ _____ _____    ______ ____
ROOT
ATOM      1  C   UNL     1       2.913   4.265  20.594  0.00  0.00    +0.000 C 
ATOM      2  C   UNL     1       2.322   3.187  21.507  0.00  0.00    +0.000 C 
ATOM      3  C   UNL     1       1.790   2.138  20.538  0.00  0.00    +0.000 C 
ATOM      4  C   UNL     1       2.783   2.191  19.374  0.00  0.00    +0.000 C 
ATOM      5  N   UNL     1       3.206   3.585  19.330  0.00  0.00    +0.000 N 
ATOM      6  C   UNL     1       4.054   4.219  18.455  0.00  0.00    +0.000 C 
ATOM      7  O   UNL     1       4.359   5.389  18.673  0.00  0.00    +0.000 OA
ATOM      8  N   UNL     1       4.460   3.491  17.367  0.00  0.00    +0.000 N 
ATOM      9  H   UNL     1       3.993   2.616  17.189  0.00  0.00    +0.000 HD
ENDROOT
BRANCH   8  10
ATOM     10  C   UNL     1       5.360   3.949  16.376  0.00  0.00    +0.000 A 
ATOM     11  C   UNL     1       6.623   4.476  16.675  0.00  0.00    +0.000 A 
ATOM     12  C   UNL     1       7.469   4.945  15.666  0.00  0.00    +0.000 A 
ATOM     13  C   UNL     1       7.061   4.878  14.342  0.00  0.00    +0.000 A 
ATOM     14 CL   UNL     1       8.096   5.463  13.101  0.00  0.00    +0.000 Cl
ATOM     15  C   UNL     1       5.817   4.335  14.020  0.00  0.00    +0.000 A 
ATOM     16  C   UNL     1       4.971   3.867  15.034  0.00  0.00    +0.000 A 
ENDBRANCH   8  10
BRANCH   1  18
ATOM     17  O   UNL     1       0.739   5.209  20.309  0.00  0.00    +0.000 OA
ATOM     18  C   UNL     1       1.933   5.443  20.467  0.00  0.00    +0.000 C 
ATOM     19  N   UNL     1       2.542   6.686  20.366  0.00  0.00    +0.000 N 
ATOM     20  H   UNL     1       3.547   6.705  20.490  0.00  0.00    +0.000 HD
BRANCH  19  21
ATOM     21  C   UNL     1       1.894   7.925  20.202  0.00  0.00    +0.000 A 
ATOM     22  C   UNL     1       1.333   8.626  21.262  0.00  0.00    +0.000 A 
ATOM     23  C   UNL     1       0.676   9.838  21.047  0.00  0.00    +0.000 A 
ATOM     24  C   UNL     1       0.548  10.384  19.767  0.00  0.00    +0.000 A 
ATOM     25  C   UNL     1       1.119   9.676  18.700  0.00  0.00    +0.000 A 
ATOM     26  C   UNL     1       1.809   8.472  18.918  0.00  0.00    +0.000 A 
BRANCH  24  27
ATOM     27  N   UNL     1      -0.169  11.610  19.564  0.00  0.00    +0.000 N 
ATOM     28  C   UNL     1      -1.474  11.741  20.229  0.00  0.00    +0.000 C 
ATOM     29  C   UNL     1      -2.244  12.991  19.818  0.00  0.00    +0.000 C 
ATOM     30  O   UNL     1      -1.420  14.136  20.004  0.00  0.00    +0.000 OA
ATOM     31  C   UNL     1      -0.309  14.065  19.128  0.00  0.00    +0.000 C 
ATOM     32  C   UNL     1       0.484  12.752  19.067  0.00  0.00    +0.000 C 
ATOM     33  O   UNL     1       1.587  12.753  18.516  0.00  0.00    +0.000 OA
ENDBRANCH  24  27
ENDBRANCH  19  21
ENDBRANCH   1  18
BRANCH   3  34
ATOM     34  O   UNL     1       0.475   2.453  20.079  0.00  0.00    +0.000 OA
ATOM     35  H   UNL     1      -0.074   1.649  20.046  0.00  0.00    +0.000 HD
ENDBRANCH   3  34
TORSDOF 5
ENDMDL
MODEL 2
REMARK VINA RESULT:      -8.9      1.176      1.226
REMARK  Name = 
REMARK  5 active torsions:
REMARK  status: ('A' for Active; 'I' for Inactive)
REMARK    1  A    between atoms: C_2  and  C_17
REMARK    2  A    between atoms: N_3  and  C_4
REMARK    3  A    between atoms: C_7  and  N_8
REMARK    4  A    between atoms: C_19  and  O_20
REMARK    5  A    between atoms: N_25  and  C_26
REMARK                            x       y       z     vdW  Elec       q    Type
REMARK                         _______ _______ _______ _____ _____    ______ ____
ROOT
ATOM      1  C   UNL     1       3.496   3.744  19.698  0.00  0.00    +0.000 C 
ATOM      2  C   UNL     1       2.993   2.555  20.522  0.00  0.00    +0.000 C 
ATOM      3  C   UNL     1       2.525   1.553  19.472  0.00  0.00    +0.000 C 
ATOM      4  C   UNL     1       3.500   1.772  18.312  0.00  0.00    +0.000 C 
ATOM      5  N   UNL     1       3.823   3.191  18.380  0.00  0.00    +0.000 N 
ATOM      6  C   UNL     1       4.614   3.954  17.556  0.00  0.00    +0.000 C 
ATOM      7  O   UNL     1       4.837   5.121  17.868  0.00  0.00    +0.000 OA
ATOM      8  N   UNL     1       5.059   3.348  16.410  0.00  0.00    +0.000 N 
ATOM      9  H   UNL     1       4.652   2.459  16.163  0.00  0.00    +0.000 HD
ENDROOT
BRANCH   8  10
ATOM     10  C   UNL     1       5.912   3.948  15.456  0.00  0.00    +0.000 A 
ATOM     11  C   UNL     1       6.976   4.792  15.804  0.00  0.00    +0.000 A 
ATOM     12  C   UNL     1       7.776   5.388  14.826  0.00  0.00    +0.000 A 
ATOM     13  C   UNL     1       7.527   5.134  13.485  0.00  0.00    +0.000 A 
ATOM     14 CL   UNL     1       8.505   5.875  12.282  0.00  0.00    +0.000 Cl
ATOM     15  C   UNL     1       6.489   4.279  13.118  0.00  0.00    +0.000 A 
ATOM     16  C   UNL     1       5.687   3.684  14.100  0.00  0.00    +0.000 A 
ENDBRANCH   8  10
BRANCH   1  18
ATOM     17  O   UNL     1       1.288   4.576  19.332  0.00  0.00    +0.000 OA
ATOM     18  C   UNL     1       2.433   4.854  19.672  0.00  0.00    +0.000 C 
ATOM     19  N   UNL     1       2.936   6.132  19.876  0.00  0.00    +0.000 N 
ATOM     20  H   UNL     1       3.917   6.195  20.121  0.00  0.00    +0.000 HD
BRANCH  19  21
ATOM     21  C   UNL     1       2.201   7.333  19.866  0.00  0.00    +0.000 A 
ATOM     22  C   UNL     1       1.494   7.791  20.971  0.00  0.00    +0.000 A 
ATOM     23  C   UNL     1       0.757   8.974  20.906  0.00  0.00    +0.000 A 
ATOM     24  C   UNL     1       0.692   9.731  19.733  0.00  0.00    +0.000 A 
ATOM     25  C   UNL     1       1.409   9.268  18.620  0.00  0.00    +0.000 A 
ATOM     26  C   UNL     1       2.178   8.095  18.694  0.00  0.00    +0.000 A 
BRANCH  24  27
ATOM     27  N   UNL     1      -0.108  10.921  19.676  0.00  0.00    +0.000 N 
ATOM     28  C   UNL     1      -1.429  10.811  19.039  0.00  0.00    +0.000 C 
ATOM     29  C   UNL     1      -2.133  12.152  18.861  0.00  0.00    +0.000 C 
ATOM     30  O   UNL     1      -2.186  12.827  20.112  0.00  0.00    +0.000 OA
ATOM     31  C   UNL     1      -0.871  13.137  20.537  0.00  0.00    +0.000 C 
ATOM     32  C   UNL     1       0.187  12.026  20.493  0.00  0.00    +0.000 C 
ATOM     33  O   UNL     1       1.252  12.201  21.090  0.00  0.00    +0.000 OA
ENDBRANCH  24  27
ENDBRANCH  19  21
ENDBRANCH   1  18
BRANCH   3  34
ATOM     34  O   UNL     1       1.186   1.810  19.048  0.00  0.00    +0.000 OA
ATOM     35  H   UNL     1       0.828   1.038  18.573  0.00  0.00    +0.000 HD
ENDBRANCH   3  34
TORSDOF 5
ENDMDL
MODEL 3
REMARK VINA RESULT:      -8.8      1.259      1.442
REMARK  Name = 
REMARK  5 active torsions:
REMARK  status: ('A' for Active; 'I' for Inactive)
REMARK    1  A    between atoms: C_2  and  C_17
REMARK    2  A    between atoms: N_3  and  C_4
REMARK    3  A    between atoms: C_7  and  N_8
REMARK    4  A    between atoms: C_19  and  O_20
REMARK    5  A    between atoms: N_25  and  C_26
REMARK                            x       y       z     vdW  Elec       q    Type
REMARK                         _______ _______ _______ _____ _____    ______ ____
ROOT
ATOM      1  C   UNL     1       3.416   3.685  19.764  0.00  0.00    +0.000 C 
ATOM      2  C   UNL     1       2.881   2.493  20.563  0.00  0.00    +0.000 C 
ATOM      3  C   UNL     1       2.397   1.522  19.492  0.00  0.00    +0.000 C 
ATOM      4  C   UNL     1       3.384   1.740  18.342  0.00  0.00    +0.000 C 
ATOM      5  N   UNL     1       3.738   3.149  18.438  0.00  0.00    +0.000 N 
ATOM      6  C   UNL     1       4.552   3.908  17.633  0.00  0.00    +0.000 C 
ATOM      7  O   UNL     1       4.800   5.064  17.968  0.00  0.00    +0.000 OA
ATOM      8  N   UNL     1       4.991   3.314  16.479  0.00  0.00    +0.000 N 
ATOM      9  H   UNL     1       4.566   2.438  16.213  0.00  0.00    +0.000 HD
ENDROOT
BRANCH   8  10
ATOM     10  C   UNL     1       5.864   3.911  15.540  0.00  0.00    +0.000 A 
ATOM     11  C   UNL     1       6.946   4.720  15.911  0.00  0.00    +0.000 A 
ATOM     12  C   UNL     1       7.767   5.316  14.950  0.00  0.00    +0.000 A 
ATOM     13  C   UNL     1       7.518   5.096  13.602  0.00  0.00    +0.000 A 
ATOM     14 CL   UNL     1       8.520   5.836  12.419  0.00  0.00    +0.000 Cl
ATOM     15  C   UNL     1       6.460   4.275  13.212  0.00  0.00    +0.000 A 
ATOM     16  C   UNL     1       5.638   3.680  14.178  0.00  0.00    +0.000 A 
ENDBRANCH   8  10
BRANCH   1  18
ATOM     17  O   UNL     1       1.209   4.555  19.498  0.00  0.00    +0.000 OA
ATOM     18  C   UNL     1       2.379   4.820  19.752  0.00  0.00    +0.000 C 
ATOM     19  N   UNL     1       2.922   6.093  19.863  0.00  0.00    +0.000 N 
ATOM     20  H   UNL     1       3.918   6.141  20.042  0.00  0.00    +0.000 HD
BRANCH  19  21
ATOM     21  C   UNL     1       2.215   7.310  19.842  0.00  0.00    +0.000 A 
ATOM     22  C   UNL     1       1.511   7.789  20.940  0.00  0.00    +0.000 A 
ATOM     23  C   UNL     1       0.802   8.988  20.864  0.00  0.00    +0.000 A 
ATOM     24  C   UNL     1       0.763   9.742  19.687  0.00  0.00    +0.000 A 
ATOM     25  C   UNL     1       1.478   9.257  18.582  0.00  0.00    +0.000 A 
ATOM     26  C   UNL     1       2.219   8.067  18.667  0.00  0.00    +0.000 A 
BRANCH  24  27
ATOM     27  N   UNL     1      -0.009  10.949  19.618  0.00  0.00    +0.000 N 
ATOM     28  C   UNL     1       0.652  12.192  20.041  0.00  0.00    +0.000 C 
ATOM     29  C   UNL     1      -0.288  13.390  20.107  0.00  0.00    +0.000 C 
ATOM     30  O   UNL     1      -0.965  13.529  18.863  0.00  0.00    +0.000 OA
ATOM     31  C   UNL     1      -1.795  12.401  18.649  0.00  0.00    +0.000 C 
ATOM     32  C   UNL     1      -1.190  11.006  18.858  0.00  0.00    +0.000 C 
ATOM     33  O   UNL     1      -1.807  10.025  18.435  0.00  0.00    +0.000 OA
ENDBRANCH  24  27
ENDBRANCH  19  21
ENDBRANCH   1  18
BRANCH   3  34
ATOM     34  O   UNL     1       1.067   1.817  19.064  0.00  0.00    +0.000 OA
ATOM     35  H   UNL     1       0.633   2.417  19.698  0.00  0.00    +0.000 HD
ENDBRANCH   3  34
TORSDOF 5
ENDMDL
MODEL 4
REMARK VINA RESULT:      -8.7      0.691      1.382
REMARK  Name = 
REMARK  5 active torsions:
REMARK  status: ('A' for Active; 'I' for Inactive)
REMARK    1  A    between atoms: C_2  and  C_17
REMARK    2  A    between atoms: N_3  and  C_4
REMARK    3  A    between atoms: C_7  and  N_8
REMARK    4  A    between atoms: C_19  and  O_20
REMARK    5  A    between atoms: N_25  and  C_26
REMARK                            x       y       z     vdW  Elec       q    Type
REMARK                         _______ _______ _______ _____ _____    ______ ____
ROOT
ATOM      1  C   UNL     1       2.875   4.231  20.538  0.00  0.00    +0.000 C 
ATOM      2  C   UNL     1       2.313   3.133  21.447  0.00  0.00    +0.000 C 
ATOM      3  C   UNL     1       1.757   2.101  20.473  0.00  0.00    +0.000 C 
ATOM      4  C   UNL     1       2.718   2.179  19.283  0.00  0.00    +0.000 C 
ATOM      5  N   UNL     1       3.135   3.575  19.254  0.00  0.00    +0.000 N 
ATOM      6  C   UNL     1       3.956   4.228  18.368  0.00  0.00    +0.000 C 
ATOM      7  O   UNL     1       4.263   5.395  18.599  0.00  0.00    +0.000 OA
ATOM      8  N   UNL     1       4.335   3.522  17.256  0.00  0.00    +0.000 N 
ATOM      9  H   UNL     1       3.866   2.649  17.074  0.00  0.00    +0.000 HD
ENDROOT
BRANCH   8  10
ATOM     10  C   UNL     1       5.205   4.001  16.249  0.00  0.00    +0.000 A 
ATOM     11  C   UNL     1       4.858   4.039  14.892  0.00  0.00    +0.000 A 
ATOM     12  C   UNL     1       5.759   4.491  13.926  0.00  0.00    +0.000 A 
ATOM     13  C   UNL     1       7.019   4.926  14.313  0.00  0.00    +0.000 A 
ATOM     14 CL   UNL     1       8.133   5.474  13.124  0.00  0.00    +0.000 Cl
ATOM     15  C   UNL     1       7.377   4.920  15.660  0.00  0.00    +0.000 A 
ATOM     16  C   UNL     1       6.471   4.463  16.626  0.00  0.00    +0.000 A 
ENDBRANCH   8  10
BRANCH   1  18
ATOM     17  O   UNL     1       0.705   5.177  20.226  0.00  0.00    +0.000 OA
ATOM     18  C   UNL     1       1.887   5.406  20.459  0.00  0.00    +0.000 C 
ATOM     19  N   UNL     1       2.486   6.659  20.489  0.00  0.00    +0.000 N 
ATOM     20  H   UNL     1       3.484   6.675  20.662  0.00  0.00    +0.000 HD
BRANCH  19  21
ATOM     21  C   UNL     1       1.831   7.902  20.395  0.00  0.00    +0.000 A 
ATOM     22  C   UNL     1       1.730   8.610  19.204  0.00  0.00    +0.000 A 
ATOM     23  C   UNL     1       1.096   9.852  19.164  0.00  0.00    +0.000 A 
ATOM     24  C   UNL     1       0.553  10.433  20.314  0.00  0.00    +0.000 A 
ATOM     25  C   UNL     1       0.653   9.714  21.514  0.00  0.00    +0.000 A 
ATOM     26  C   UNL     1       1.263   8.448  21.549  0.00  0.00    +0.000 A 
BRANCH  24  27
ATOM     27  N   UNL     1      -0.056  11.731  20.258  0.00  0.00    +0.000 N 
ATOM     28  C   UNL     1      -1.504  11.782  20.011  0.00  0.00    +0.000 C 
ATOM     29  C   UNL     1      -2.035  13.194  19.790  0.00  0.00    +0.000 C 
ATOM     30  O   UNL     1      -1.638  14.023  20.875  0.00  0.00    +0.000 OA
ATOM     31  C   UNL     1      -0.226  14.141  20.887  0.00  0.00    +0.000 C 
ATOM     32  C   UNL     1       0.610  12.860  20.767  0.00  0.00    +0.000 C 
ATOM     33  O   UNL     1       1.814  12.913  21.030  0.00  0.00    +0.000 OA
ENDBRANCH  24  27
ENDBRANCH  19  21
ENDBRANCH   1  18
BRANCH   3  34
ATOM     34  O   UNL     1       0.429   2.419  20.056  0.00  0.00    +0.000 OA
ATOM     35  H   UNL     1       0.405   2.583  19.096  0.00  0.00    +0.000 HD
ENDBRANCH   3  34
TORSDOF 5
ENDMDL
MODEL 5
REMARK VINA RESULT:      -8.5      0.786      1.618
REMARK  Name = 
REMARK  5 active torsions:
REMARK  status: ('A' for Active; 'I' for Inactive)
REMARK    1  A    between atoms: C_2  and  C_17
REMARK    2  A    between atoms: N_3  and  C_4
REMARK    3  A    between atoms: C_7  and  N_8
REMARK    4  A    between atoms: C_19  and  O_20
REMARK    5  A    between atoms: N_25  and  C_26
REMARK                            x       y       z     vdW  Elec       q    Type
REMARK                         _______ _______ _______ _____ _____    ______ ____
ROOT
ATOM      1  C   UNL     1       2.805   4.238  20.558  0.00  0.00    +0.000 C 
ATOM      2  C   UNL     1       2.205   3.143  21.446  0.00  0.00    +0.000 C 
ATOM      3  C   UNL     1       1.650   2.129  20.452  0.00  0.00    +0.000 C 
ATOM      4  C   UNL     1       2.636   2.200  19.282  0.00  0.00    +0.000 C 
ATOM      5  N   UNL     1       3.079   3.588  19.273  0.00  0.00    +0.000 N 
ATOM      6  C   UNL     1       3.929   4.234  18.409  0.00  0.00    +0.000 C 
ATOM      7  O   UNL     1       4.252   5.393  18.657  0.00  0.00    +0.000 OA
ATOM      8  N   UNL     1       4.317   3.530  17.299  0.00  0.00    +0.000 N 
ATOM      9  H   UNL     1       3.836   2.667  17.101  0.00  0.00    +0.000 HD
ENDROOT
BRANCH   8  10
ATOM     10  C   UNL     1       5.216   4.002  16.314  0.00  0.00    +0.000 A 
ATOM     11  C   UNL     1       4.876   4.112  14.959  0.00  0.00    +0.000 A 
ATOM     12  C   UNL     1       5.805   4.554  14.013  0.00  0.00    +0.000 A 
ATOM     13  C   UNL     1       7.084   4.904  14.419  0.00  0.00    +0.000 A 
ATOM     14 CL   UNL     1       8.231   5.439  13.256  0.00  0.00    +0.000 Cl
ATOM     15  C   UNL     1       7.436   4.825  15.766  0.00  0.00    +0.000 A 
ATOM     16  C   UNL     1       6.504   4.380  16.712  0.00  0.00    +0.000 A 
ENDBRANCH   8  10
BRANCH   1  18
ATOM     17  O   UNL     1       0.649   5.221  20.272  0.00  0.00    +0.000 OA
ATOM     18  C   UNL     1       1.841   5.432  20.470  0.00  0.00    +0.000 C 
ATOM     19  N   UNL     1       2.465   6.671  20.449  0.00  0.00    +0.000 N 
ATOM     20  H   UNL     1       3.467   6.671  20.597  0.00  0.00    +0.000 HD
BRANCH  19  21
ATOM     21  C   UNL     1       1.835   7.925  20.335  0.00  0.00    +0.000 A 
ATOM     22  C   UNL     1       1.739   8.612  19.131  0.00  0.00    +0.000 A 
ATOM     23  C   UNL     1       1.129   9.866  19.072  0.00  0.00    +0.000 A 
ATOM     24  C   UNL     1       0.605  10.479  20.214  0.00  0.00    +0.000 A 
ATOM     25  C   UNL     1       0.701   9.781  21.427  0.00  0.00    +0.000 A 
ATOM     26  C   UNL     1       1.286   8.505  21.482  0.00  0.00    +0.000 A 
BRANCH  24  27
ATOM     27  N   UNL     1       0.022  11.787  20.138  0.00  0.00    +0.000 N 
ATOM     28  C   UNL     1       0.870  12.924  20.523  0.00  0.00    +0.000 C 
ATOM     29  C   UNL     1       0.121  14.250  20.584  0.00  0.00    +0.000 C 
ATOM     30  O   UNL     1      -0.554  14.469  19.352  0.00  0.00    +0.000 OA
ATOM     31  C   UNL     1      -1.548  13.475  19.176  0.00  0.00    +0.000 C 
ATOM     32  C   UNL     1      -1.155  12.008  19.399  0.00  0.00    +0.000 C 
ATOM     33  O   UNL     1      -1.921  11.124  19.008  0.00  0.00    +0.000 OA
ENDBRANCH  24  27
ENDBRANCH  19  21
ENDBRANCH   1  18
BRANCH   3  34
ATOM     34  O   UNL     1       0.337   2.475  20.012  0.00  0.00    +0.000 OA
ATOM     35  H   UNL     1       0.174   3.426  20.149  0.00  0.00    +0.000 HD
ENDBRANCH   3  34
TORSDOF 5
ENDMDL
MODEL 6
REMARK VINA RESULT:      -8.4      3.629      9.581
REMARK  Name = 
REMARK  5 active torsions:
REMARK  status: ('A' for Active; 'I' for Inactive)
REMARK    1  A    between atoms: C_2  and  C_17
REMARK    2  A    between atoms: N_3  and  C_4
REMARK    3  A    between atoms: C_7  and  N_8
REMARK    4  A    between atoms: C_19  and  O_20
REMARK    5  A    between atoms: N_25  and  C_26
REMARK                            x       y       z     vdW  Elec       q    Type
REMARK                         _______ _______ _______ _____ _____    ______ ____
ROOT
ATOM      1  C   UNL     1      -0.283   9.786  20.965  0.00  0.00    +0.000 C 
ATOM      2  C   UNL     1      -1.080   9.138  22.100  0.00  0.00    +0.000 C 
ATOM      3  C   UNL     1      -0.788  10.025  23.305  0.00  0.00    +0.000 C 
ATOM      4  C   UNL     1      -0.654  11.422  22.695  0.00  0.00    +0.000 C 
ATOM      5  N   UNL     1      -0.093  11.181  21.372  0.00  0.00    +0.000 N 
ATOM      6  C   UNL     1       0.283  12.076  20.400  0.00  0.00    +0.000 C 
ATOM      7  O   UNL     1       0.634  11.643  19.305  0.00  0.00    +0.000 OA
ATOM      8  N   UNL     1       0.277  13.399  20.756  0.00  0.00    +0.000 N 
ATOM      9  H   UNL     1       0.162  13.619  21.733  0.00  0.00    +0.000 HD
ENDROOT
BRANCH   8  10
ATOM     10  C   UNL     1       0.591  14.473  19.891  0.00  0.00    +0.000 A 
ATOM     11  C   UNL     1       1.906  14.827  19.559  0.00  0.00    +0.000 A 
ATOM     12  C   UNL     1       2.173  15.915  18.724  0.00  0.00    +0.000 A 
ATOM     13  C   UNL     1       1.122  16.654  18.201  0.00  0.00    +0.000 A 
ATOM     14 CL   UNL     1       1.450  17.998  17.182  0.00  0.00    +0.000 Cl
ATOM     15  C   UNL     1      -0.194  16.304  18.500  0.00  0.00    +0.000 A 
ATOM     16  C   UNL     1      -0.459  15.214  19.339  0.00  0.00    +0.000 A 
ENDBRANCH   8  10
BRANCH   1  18
ATOM     17  O   UNL     1       1.919   9.085  21.566  0.00  0.00    +0.000 OA
ATOM     18  C   UNL     1       1.025   9.012  20.730  0.00  0.00    +0.000 C 
ATOM     19  N   UNL     1       1.128   8.432  19.473  0.00  0.00    +0.000 N 
ATOM     20  H   UNL     1       0.305   8.486  18.885  0.00  0.00    +0.000 HD
BRANCH  19  21
ATOM     21  C   UNL     1       2.225   7.702  18.975  0.00  0.00    +0.000 A 
ATOM     22  C   UNL     1       2.931   8.086  17.842  0.00  0.00    +0.000 A 
ATOM     23  C   UNL     1       3.994   7.315  17.369  0.00  0.00    +0.000 A 
ATOM     24  C   UNL     1       4.379   6.131  18.006  0.00  0.00    +0.000 A 
ATOM     25  C   UNL     1       3.666   5.749  19.151  0.00  0.00    +0.000 A 
ATOM     26  C   UNL     1       2.616   6.541  19.646  0.00  0.00    +0.000 A 
BRANCH  24  27
ATOM     27  N   UNL     1       5.446   5.332  17.477  0.00  0.00    +0.000 N 
ATOM     28  C   UNL     1       5.473   5.128  16.021  0.00  0.00    +0.000 C 
ATOM     29  C   UNL     1       6.529   4.126  15.566  0.00  0.00    +0.000 C 
ATOM     30  O   UNL     1       7.797   4.507  16.086  0.00  0.00    +0.000 OA
ATOM     31  C   UNL     1       7.772   4.423  17.500  0.00  0.00    +0.000 C 
ATOM     32  C   UNL     1       6.594   5.067  18.245  0.00  0.00    +0.000 C 
ATOM     33  O   UNL     1       6.682   5.227  19.464  0.00  0.00    +0.000 OA
ENDBRANCH  24  27
ENDBRANCH  19  21
ENDBRANCH   1  18
BRANCH   3  34
ATOM     34  O   UNL     1       0.424   9.654  23.961  0.00  0.00    +0.000 OA
ATOM     35  H   UNL     1       0.355   8.748  24.315  0.00  0.00    +0.000 HD
ENDBRANCH   3  34
TORSDOF 5
ENDMDL
MODEL 7
REMARK VINA RESULT:      -8.3      0.859      1.404
REMARK  Name = 
REMARK  5 active torsions:
REMARK  status: ('A' for Active; 'I' for Inactive)
REMARK    1  A    between atoms: C_2  and  C_17
REMARK    2  A    between atoms: N_3  and  C_4
REMARK    3  A    between atoms: C_7  and  N_8
REMARK    4  A    between atoms: C_19  and  O_20
REMARK    5  A    between atoms: N_25  and  C_26
REMARK                            x       y       z     vdW  Elec       q    Type
REMARK                         _______ _______ _______ _____ _____    ______ ____
ROOT
ATOM      1  C   UNL     1       2.868   4.094  20.462  0.00  0.00    +0.000 C 
ATOM      2  C   UNL     1       2.245   2.985  21.315  0.00  0.00    +0.000 C 
ATOM      3  C   UNL     1       1.707   1.994  20.289  0.00  0.00    +0.000 C 
ATOM      4  C   UNL     1       2.717   2.084  19.142  0.00  0.00    +0.000 C 
ATOM      5  N   UNL     1       3.166   3.469  19.171  0.00  0.00    +0.000 N 
ATOM      6  C   UNL     1       4.037   4.128  18.338  0.00  0.00    +0.000 C 
ATOM      7  O   UNL     1       4.360   5.281  18.616  0.00  0.00    +0.000 OA
ATOM      8  N   UNL     1       4.446   3.446  17.222  0.00  0.00    +0.000 N 
ATOM      9  H   UNL     1       3.965   2.588  16.996  0.00  0.00    +0.000 HD
ENDROOT
BRANCH   8  10
ATOM     10  C   UNL     1       5.367   3.933  16.266  0.00  0.00    +0.000 A 
ATOM     11  C   UNL     1       6.609   4.482  16.611  0.00  0.00    +0.000 A 
ATOM     12  C   UNL     1       7.476   4.980  15.636  0.00  0.00    +0.000 A 
ATOM     13  C   UNL     1       7.113   4.920  14.298  0.00  0.00    +0.000 A 
ATOM     14 CL   UNL     1       8.175   5.541  13.098  0.00  0.00    +0.000 Cl
ATOM     15  C   UNL     1       5.892   4.356  13.931  0.00  0.00    +0.000 A 
ATOM     16  C   UNL     1       5.023   3.860  14.911  0.00  0.00    +0.000 A 
ENDBRANCH   8  10
BRANCH   1  18
ATOM     17  O   UNL     1       0.728   5.096  20.121  0.00  0.00    +0.000 OA
ATOM     18  C   UNL     1       1.911   5.295  20.378  0.00  0.00    +0.000 C 
ATOM     19  N   UNL     1       2.538   6.532  20.431  0.00  0.00    +0.000 N 
ATOM     20  H   UNL     1       3.533   6.522  20.622  0.00  0.00    +0.000 HD
BRANCH  19  21
ATOM     21  C   UNL     1       1.916   7.791  20.338  0.00  0.00    +0.000 A 
ATOM     22  C   UNL     1       1.847   8.510  19.152  0.00  0.00    +0.000 A 
ATOM     23  C   UNL     1       1.244   9.768  19.114  0.00  0.00    +0.000 A 
ATOM     24  C   UNL     1       0.701  10.353  20.261  0.00  0.00    +0.000 A 
ATOM     25  C   UNL     1       0.769   9.623  21.456  0.00  0.00    +0.000 A 
ATOM     26  C   UNL     1       1.347   8.343  21.489  0.00  0.00    +0.000 A 
BRANCH  24  27
ATOM     27  N   UNL     1       0.125  11.666  20.207  0.00  0.00    +0.000 N 
ATOM     28  C   UNL     1      -0.273  12.171  18.885  0.00  0.00    +0.000 C 
ATOM     29  C   UNL     1      -0.706  13.633  18.896  0.00  0.00    +0.000 C 
ATOM     30  O   UNL     1      -1.719  13.818  19.877  0.00  0.00    +0.000 OA
ATOM     31  C   UNL     1      -1.182  13.567  21.163  0.00  0.00    +0.000 C 
ATOM     32  C   UNL     1      -0.365  12.284  21.371  0.00  0.00    +0.000 C 
ATOM     33  O   UNL     1      -0.112  11.926  22.524  0.00  0.00    +0.000 OA
ENDBRANCH  24  27
ENDBRANCH  19  21
ENDBRANCH   1  18
BRANCH   3  34
ATOM     34  O   UNL     1       0.405   2.355  19.829  0.00  0.00    +0.000 OA
ATOM     35  H   UNL     1      -0.266   2.133  20.502  0.00  0.00    +0.000 HD
ENDBRANCH   3  34
TORSDOF 5
ENDMDL
MODEL 8
REMARK VINA RESULT:      -8.2      3.501      9.394
REMARK  Name = 
REMARK  5 active torsions:
REMARK  status: ('A' for Active; 'I' for Inactive)
REMARK    1  A    between atoms: C_2  and  C_17
REMARK    2  A    between atoms: N_3  and  C_4
REMARK    3  A    between atoms: C_7  and  N_8
REMARK    4  A    between atoms: C_19  and  O_20
REMARK    5  A    between atoms: N_25  and  C_26
REMARK                            x       y       z     vdW  Elec       q    Type
REMARK                         _______ _______ _______ _____ _____    ______ ____
ROOT
ATOM      1  C   UNL     1      -0.249   9.825  20.972  0.00  0.00    +0.000 C 
ATOM      2  C   UNL     1      -1.125   9.286  22.106  0.00  0.00    +0.000 C 
ATOM      3  C   UNL     1      -0.764  10.165  23.298  0.00  0.00    +0.000 C 
ATOM      4  C   UNL     1      -0.480  11.528  22.661  0.00  0.00    +0.000 C 
ATOM      5  N   UNL     1       0.075  11.203  21.353  0.00  0.00    +0.000 N 
ATOM      6  C   UNL     1       0.554  12.033  20.370  0.00  0.00    +0.000 C 
ATOM      7  O   UNL     1       0.877  11.543  19.291  0.00  0.00    +0.000 OA
ATOM      8  N   UNL     1       0.676  13.358  20.699  0.00  0.00    +0.000 N 
ATOM      9  H   UNL     1       0.569  13.610  21.670  0.00  0.00    +0.000 HD
ENDROOT
BRANCH   8  10
ATOM     10  C   UNL     1       1.111  14.375  19.818  0.00  0.00    +0.000 A 
ATOM     11  C   UNL     1       0.245  15.327  19.263  0.00  0.00    +0.000 A 
ATOM     12  C   UNL     1       0.712  16.297  18.372  0.00  0.00    +0.000 A 
ATOM     13  C   UNL     1       2.058  16.332  18.038  0.00  0.00    +0.000 A 
ATOM     14 CL   UNL     1       2.632  17.518  16.935  0.00  0.00    +0.000 Cl
ATOM     15  C   UNL     1       2.941  15.409  18.597  0.00  0.00    +0.000 A 
ATOM     16  C   UNL     1       2.470  14.436  19.489  0.00  0.00    +0.000 A 
ENDBRANCH   8  10
BRANCH   1  18
ATOM     17  O   UNL     1       1.788   8.807  21.689  0.00  0.00    +0.000 OA
ATOM     18  C   UNL     1       0.977   8.919  20.776  0.00  0.00    +0.000 C 
ATOM     19  N   UNL     1       1.135   8.442  19.481  0.00  0.00    +0.000 N 
ATOM     20  H   UNL     1       0.385   8.648  18.833  0.00  0.00    +0.000 HD
BRANCH  19  21
ATOM     21  C   UNL     1       2.183   7.628  19.011  0.00  0.00    +0.000 A 
ATOM     22  C   UNL     1       2.571   6.457  19.651  0.00  0.00    +0.000 A 
ATOM     23  C   UNL     1       3.634   5.696  19.164  0.00  0.00    +0.000 A 
ATOM     24  C   UNL     1       4.351   6.085  18.028  0.00  0.00    +0.000 A 
ATOM     25  C   UNL     1       3.955   7.265  17.382  0.00  0.00    +0.000 A 
ATOM     26  C   UNL     1       2.864   8.015  17.853  0.00  0.00    +0.000 A 
BRANCH  24  27
ATOM     27  N   UNL     1       5.469   5.311  17.570  0.00  0.00    +0.000 N 
ATOM     28  C   UNL     1       5.566   5.064  16.124  0.00  0.00    +0.000 C 
ATOM     29  C   UNL     1       6.675   4.089  15.746  0.00  0.00    +0.000 C 
ATOM     30  O   UNL     1       7.905   4.532  16.307  0.00  0.00    +0.000 OA
ATOM     31  C   UNL     1       7.822   4.488  17.720  0.00  0.00    +0.000 C 
ATOM     32  C   UNL     1       6.591   5.110  18.394  0.00  0.00    +0.000 C 
ATOM     33  O   UNL     1       6.620   5.309  19.610  0.00  0.00    +0.000 OA
ENDBRANCH  24  27
ENDBRANCH  19  21
ENDBRANCH   1  18
BRANCH   3  34
ATOM     34  O   UNL     1       0.395   9.689  23.982  0.00  0.00    +0.000 OA
ATOM     35  H   UNL     1       0.636   8.800  23.662  0.00  0.00    +0.000 HD
ENDBRANCH   3  34
TORSDOF 5
ENDMDL
MODEL 9
REMARK VINA RESULT:      -8.1      4.319     10.555
REMARK  Name = 
REMARK  5 active torsions:
REMARK  status: ('A' for Active; 'I' for Inactive)
REMARK    1  A    between atoms: C_2  and  C_17
REMARK    2  A    between atoms: N_3  and  C_4
REMARK    3  A    between atoms: C_7  and  N_8
REMARK    4  A    between atoms: C_19  and  O_20
REMARK    5  A    between atoms: N_25  and  C_26
REMARK                            x       y       z     vdW  Elec       q    Type
REMARK                         _______ _______ _______ _____ _____    ______ ____
ROOT
ATOM      1  C   UNL     1       1.207  12.151  19.974  0.00  0.00    +0.000 C 
ATOM      2  C   UNL     1       2.313  13.184  19.737  0.00  0.00    +0.000 C 
ATOM      3  C   UNL     1       1.794  14.015  18.569  0.00  0.00    +0.000 C 
ATOM      4  C   UNL     1       0.279  14.036  18.792  0.00  0.00    +0.000 C 
ATOM      5  N   UNL     1      -0.007  12.748  19.411  0.00  0.00    +0.000 N 
ATOM      6  C   UNL     1      -1.210  12.202  19.787  0.00  0.00    +0.000 C 
ATOM      7  O   UNL     1      -1.208  11.136  20.398  0.00  0.00    +0.000 OA
ATOM      8  N   UNL     1      -2.334  12.884  19.401  0.00  0.00    +0.000 N 
ATOM      9  H   UNL     1      -2.221  13.635  18.738  0.00  0.00    +0.000 HD
ENDROOT
BRANCH   8  10
ATOM     10  C   UNL     1      -3.660  12.508  19.721  0.00  0.00    +0.000 A 
ATOM     11  C   UNL     1      -4.503  11.838  18.824  0.00  0.00    +0.000 A 
ATOM     12  C   UNL     1      -5.816  11.512  19.171  0.00  0.00    +0.000 A 
ATOM     13  C   UNL     1      -6.297  11.845  20.429  0.00  0.00    +0.000 A 
ATOM     14 CL   UNL     1      -7.916  11.454  20.853  0.00  0.00    +0.000 Cl
ATOM     15  C   UNL     1      -5.468  12.491  21.345  0.00  0.00    +0.000 A 
ATOM     16  C   UNL     1      -4.152  12.818  20.994  0.00  0.00    +0.000 A 
ENDBRANCH   8  10
BRANCH   1  18
ATOM     17  O   UNL     1       1.819  10.752  18.139  0.00  0.00    +0.000 OA
ATOM     18  C   UNL     1       1.600  10.805  19.344  0.00  0.00    +0.000 C 
ATOM     19  N   UNL     1       1.493   9.719  20.203  0.00  0.00    +0.000 N 
ATOM     20  H   UNL     1       1.272   9.931  21.169  0.00  0.00    +0.000 HD
BRANCH  19  21
ATOM     21  C   UNL     1       1.749   8.371  19.885  0.00  0.00    +0.000 A 
ATOM     22  C   UNL     1       1.473   7.328  20.759  0.00  0.00    +0.000 A 
ATOM     23  C   UNL     1       1.770   6.009  20.412  0.00  0.00    +0.000 A 
ATOM     24  C   UNL     1       2.363   5.692  19.186  0.00  0.00    +0.000 A 
ATOM     25  C   UNL     1       2.636   6.748  18.305  0.00  0.00    +0.000 A 
ATOM     26  C   UNL     1       2.308   8.072  18.640  0.00  0.00    +0.000 A 
BRANCH  24  27
ATOM     27  N   UNL     1       2.699   4.334  18.868  0.00  0.00    +0.000 N 
ATOM     28  C   UNL     1       3.659   3.657  19.751  0.00  0.00    +0.000 C 
ATOM     29  C   UNL     1       4.095   2.287  19.242  0.00  0.00    +0.000 C 
ATOM     30  O   UNL     1       2.945   1.494  18.977  0.00  0.00    +0.000 OA
ATOM     31  C   UNL     1       2.202   2.077  17.922  0.00  0.00    +0.000 C 
ATOM     32  C   UNL     1       1.897   3.580  17.993  0.00  0.00    +0.000 C 
ATOM     33  O   UNL     1       1.048   4.048  17.231  0.00  0.00    +0.000 OA
ENDBRANCH  24  27
ENDBRANCH  19  21
ENDBRANCH   1  18
BRANCH   3  34
ATOM     34  O   UNL     1       2.100  13.417  17.310  0.00  0.00    +0.000 OA
ATOM     35  H   UNL     1       1.395  12.795  17.050  0.00  0.00    +0.000 HD
ENDBRANCH   3  34
TORSDOF 5
ENDMDL
