MODEL 1
REMARK VINA RESULT:      -8.7      0.000      0.000
REMARK  Name = 
REMARK  13 active torsions:
REMARK  status: ('A' for Active; 'I' for Inactive)
REMARK    1  A    between atoms: C_1  and  C_2
REMARK    2  A    between atoms: C_2  and  C_3
REMARK    3  A    between atoms: C_3  and  C_4
REMARK    4  A    between atoms: C_3  and  C_5
REMARK    5  A    between atoms: C_5  and  N_6
REMARK    6  A    between atoms: C_5  and  C_7
REMARK    7  A    between atoms: C_7  and  N_8
REMARK    8  A    between atoms: N_8  and  C_21
REMARK    9  A    between atoms: C_9  and  C_11
REMARK   10  A    between atoms: C_13  and  C_14
REMARK   11  A    between atoms: C_16  and  C_17
REMARK   12  A    between atoms: C_18  and  C_19
REMARK   13  A    between atoms: C_24  and  C_25
REMARK                            x       y       z     vdW  Elec       q    Type
REMARK                         _______ _______ _______ _____ _____    ______ ____
ROOT
ATOM      1  N   UNL     1       6.180   4.860  16.976  0.00  0.00    +0.000 N 
ATOM      2  C   UNL     1       4.843   4.560  17.276  0.00  0.00    +0.000 C 
ATOM      3  O   UNL     1       4.231   3.649  16.723  0.00  0.00    +0.000 OA
ENDROOT
BRANCH   1   4
ATOM      4  C   UNL     1       6.745   6.091  17.385  0.00  0.00    +0.000 A 
ATOM      5  C   UNL     1       6.281   7.275  16.824  0.00  0.00    +0.000 A 
ATOM      6  C   UNL     1       6.882   8.486  17.174  0.00  0.00    +0.000 A 
ATOM      7  C   UNL     1       7.933   8.549  18.110  0.00  0.00    +0.000 A 
ATOM      8  C   UNL     1       8.355   7.335  18.687  0.00  0.00    +0.000 A 
ATOM      9  C   UNL     1       7.768   6.119  18.331  0.00  0.00    +0.000 A 
BRANCH   7  10
ATOM     10  C   UNL     1       8.580   9.835  18.442  0.00  0.00    +0.000 A 
ATOM     11  C   UNL     1       8.402  10.975  17.637  0.00  0.00    +0.000 A 
ATOM     12  C   UNL     1       9.053  12.175  17.915  0.00  0.00    +0.000 A 
ATOM     13  C   UNL     1       9.894  12.274  19.019  0.00  0.00    +0.000 A 
ATOM     14  C   UNL     1      10.065  11.175  19.853  0.00  0.00    +0.000 A 
ATOM     15  C   UNL     1       9.428   9.966  19.563  0.00  0.00    +0.000 A 
ENDBRANCH   7  10
ENDBRANCH   1   4
BRANCH   2  16
ATOM     16  C   UNL     1       4.162   5.357  18.385  0.00  0.00    +0.000 C 
ATOM     17  C   UNL     1       3.065   4.710  19.195  0.00  0.00    +0.000 C 
ATOM     18  C   UNL     1       2.712   5.843  18.260  0.00  0.00    +0.000 C 
BRANCH  18  19
ATOM     19  C   UNL     1       2.234   7.156  18.931  0.00  0.00    +0.000 A 
ATOM     20  N   UNL     1       1.947   7.280  20.211  0.00  0.00    +0.000 NA
ATOM     21  C   UNL     1       1.441   8.559  20.469  0.00  0.00    +0.000 A 
ATOM     22  C   UNL     1       1.012   8.927  21.850  0.00  0.00    +0.000 C 
ATOM     23  C   UNL     1       1.385   9.392  19.361  0.00  0.00    +0.000 A 
ATOM     24  C   UNL     1       0.895  10.794  19.237  0.00  0.00    +0.000 C 
ATOM     25  S   UNL     1       1.984   8.567  17.984  0.00  0.00    +0.000 S 
ENDBRANCH  18  19
ENDBRANCH   2  16
BRANCH   1  26
ATOM     26  C   UNL     1       6.929   4.172  15.873  0.00  0.00    +0.000 C 
BRANCH  26  27
ATOM     27  C   UNL     1       6.780   4.790  14.433  0.00  0.00    +0.000 C 
BRANCH  27  28
ATOM     28  N   UNL     1       7.990   5.532  14.043  0.00  0.00    +0.000 NA
ATOM     29  H   UNL     1       8.181   5.371  13.062  0.00  0.00    +0.000 HD
ATOM     30  H   UNL     1       8.798   5.101  14.521  0.00  0.00    +0.000 HD
ENDBRANCH  27  28
BRANCH  27  31
ATOM     31  C   UNL     1       6.403   3.725  13.343  0.00  0.00    +0.000 C 
ATOM     32  C   UNL     1       7.143   3.933  12.009  0.00  0.00    +0.000 C 
BRANCH  31  34
ATOM     33  C   UNL     1       4.525   3.298  11.578  0.00  0.00    +0.000 C 
ATOM     34  C   UNL     1       4.883   3.596  13.026  0.00  0.00    +0.000 C 
ENDBRANCH  31  34
ENDBRANCH  27  31
ENDBRANCH  26  27
ENDBRANCH   1  26
TORSDOF 9
ENDMDL
MODEL 2
REMARK VINA RESULT:      -8.3      0.262      1.230
REMARK  Name = 
REMARK  13 active torsions:
REMARK  status: ('A' for Active; 'I' for Inactive)
REMARK    1  A    between atoms: C_1  and  C_2
REMARK    2  A    between atoms: C_2  and  C_3
REMARK    3  A    between atoms: C_3  and  C_4
REMARK    4  A    between atoms: C_3  and  C_5
REMARK    5  A    between atoms: C_5  and  N_6
REMARK    6  A    between atoms: C_5  and  C_7
REMARK    7  A    between atoms: C_7  and  N_8
REMARK    8  A    between atoms: N_8  and  C_21
REMARK    9  A    between atoms: C_9  and  C_11
REMARK   10  A    between atoms: C_13  and  C_14
REMARK   11  A    between atoms: C_16  and  C_17
REMARK   12  A    between atoms: C_18  and  C_19
REMARK   13  A    between atoms: C_24  and  C_25
REMARK                            x       y       z     vdW  Elec       q    Type
REMARK                         _______ _______ _______ _____ _____    ______ ____
ROOT
ATOM      1  N   UNL     1       5.988   4.809  17.014  0.00  0.00    +0.000 N 
ATOM      2  C   UNL     1       4.664   4.600  17.428  0.00  0.00    +0.000 C 
ATOM      3  O   UNL     1       3.961   3.705  16.966  0.00  0.00    +0.000 OA
ENDROOT
BRANCH   1   4
ATOM      4  C   UNL     1       6.651   6.020  17.323  0.00  0.00    +0.000 A 
ATOM      5  C   UNL     1       7.709   6.008  18.223  0.00  0.00    +0.000 A 
ATOM      6  C   UNL     1       8.322   7.210  18.584  0.00  0.00    +0.000 A 
ATOM      7  C   UNL     1       7.916   8.443  18.035  0.00  0.00    +0.000 A 
ATOM      8  C   UNL     1       6.864   8.415  17.100  0.00  0.00    +0.000 A 
ATOM      9  C   UNL     1       6.238   7.218  16.744  0.00  0.00    +0.000 A 
BRANCH   7  10
ATOM     10  C   UNL     1       8.552   9.708  18.455  0.00  0.00    +0.000 A 
ATOM     11  C   UNL     1       9.245   9.812  19.676  0.00  0.00    +0.000 A 
ATOM     12  C   UNL     1       9.800  11.016  20.101  0.00  0.00    +0.000 A 
ATOM     13  C   UNL     1       9.689  12.156  19.309  0.00  0.00    +0.000 A 
ATOM     14  C   UNL     1       9.038  12.078  18.083  0.00  0.00    +0.000 A 
ATOM     15  C   UNL     1       8.464  10.875  17.665  0.00  0.00    +0.000 A 
ENDBRANCH   7  10
ENDBRANCH   1   4
BRANCH   2  16
ATOM     16  C   UNL     1       4.118   5.480  18.549  0.00  0.00    +0.000 C 
ATOM     17  C   UNL     1       3.269   4.859  19.632  0.00  0.00    +0.000 C 
ATOM     18  C   UNL     1       2.625   5.819  18.658  0.00  0.00    +0.000 C 
BRANCH  18  19
ATOM     19  C   UNL     1       2.138   7.166  19.251  0.00  0.00    +0.000 A 
ATOM     20  N   UNL     1       1.768   7.341  20.504  0.00  0.00    +0.000 NA
ATOM     21  C   UNL     1       1.281   8.640  20.685  0.00  0.00    +0.000 A 
ATOM     22  C   UNL     1       0.768   9.066  22.020  0.00  0.00    +0.000 C 
ATOM     23  C   UNL     1       1.323   9.436  19.549  0.00  0.00    +0.000 A 
ATOM     24  C   UNL     1       0.881  10.844  19.346  0.00  0.00    +0.000 C 
ATOM     25  S   UNL     1       1.992   8.550  18.244  0.00  0.00    +0.000 S 
ENDBRANCH  18  19
ENDBRANCH   2  16
BRANCH   1  26
ATOM     26  C   UNL     1       6.608   4.033  15.890  0.00  0.00    +0.000 C 
BRANCH  26  27
ATOM     27  C   UNL     1       6.620   4.732  14.480  0.00  0.00    +0.000 C 
BRANCH  27  28
ATOM     28  N   UNL     1       7.900   5.417  14.234  0.00  0.00    +0.000 NA
ATOM     29  H   UNL     1       8.501   4.818  13.683  0.00  0.00    +0.000 HD
ATOM     30  H   UNL     1       8.398   5.497  15.135  0.00  0.00    +0.000 HD
ENDBRANCH  27  28
BRANCH  27  31
ATOM     31  C   UNL     1       6.279   3.750  13.303  0.00  0.00    +0.000 C 
ATOM     32  C   UNL     1       7.203   3.918  12.084  0.00  0.00    +0.000 C 
BRANCH  31  34
ATOM     33  C   UNL     1       4.524   3.042  11.502  0.00  0.00    +0.000 C 
ATOM     34  C   UNL     1       4.808   3.796  12.793  0.00  0.00    +0.000 C 
ENDBRANCH  31  34
ENDBRANCH  27  31
ENDBRANCH  26  27
ENDBRANCH   1  26
TORSDOF 9
ENDMDL
MODEL 3
REMARK VINA RESULT:      -8.3      0.792      1.390
REMARK  Name = 
REMARK  13 active torsions:
REMARK  status: ('A' for Active; 'I' for Inactive)
REMARK    1  A    between atoms: C_1  and  C_2
REMARK    2  A    between atoms: C_2  and  C_3
REMARK    3  A    between atoms: C_3  and  C_4
REMARK    4  A    between atoms: C_3  and  C_5
REMARK    5  A    between atoms: C_5  and  N_6
REMARK    6  A    between atoms: C_5  and  C_7
REMARK    7  A    between atoms: C_7  and  N_8
REMARK    8  A    between atoms: N_8  and  C_21
REMARK    9  A    between atoms: C_9  and  C_11
REMARK   10  A    between atoms: C_13  and  C_14
REMARK   11  A    between atoms: C_16  and  C_17
REMARK   12  A    between atoms: C_18  and  C_19
REMARK   13  A    between atoms: C_24  and  C_25
REMARK                            x       y       z     vdW  Elec       q    Type
REMARK                         _______ _______ _______ _____ _____    ______ ____
ROOT
ATOM      1  N   UNL     1       6.290   5.013  16.965  0.00  0.00    +0.000 N 
ATOM      2  C   UNL     1       4.924   4.790  17.194  0.00  0.00    +0.000 C 
ATOM      3  O   UNL     1       4.281   3.942  16.580  0.00  0.00    +0.000 OA
ENDROOT
BRANCH   1   4
ATOM      4  C   UNL     1       6.913   6.188  17.447  0.00  0.00    +0.000 A 
ATOM      5  C   UNL     1       6.643   7.404  16.831  0.00  0.00    +0.000 A 
ATOM      6  C   UNL     1       7.307   8.556  17.259  0.00  0.00    +0.000 A 
ATOM      7  C   UNL     1       8.228   8.528  18.325  0.00  0.00    +0.000 A 
ATOM      8  C   UNL     1       8.451   7.286  18.951  0.00  0.00    +0.000 A 
ATOM      9  C   UNL     1       7.800   6.128  18.519  0.00  0.00    +0.000 A 
BRANCH   7  10
ATOM     10  C   UNL     1       8.947   9.749  18.741  0.00  0.00    +0.000 A 
ATOM     11  C   UNL     1       9.120  10.073  20.100  0.00  0.00    +0.000 A 
ATOM     12  C   UNL     1       9.750  11.250  20.498  0.00  0.00    +0.000 A 
ATOM     13  C   UNL     1      10.240  12.137  19.543  0.00  0.00    +0.000 A 
ATOM     14  C   UNL     1      10.114  11.830  18.193  0.00  0.00    +0.000 A 
ATOM     15  C   UNL     1       9.465  10.659  17.794  0.00  0.00    +0.000 A 
ENDBRANCH   7  10
ENDBRANCH   1   4
BRANCH   2  16
ATOM     16  C   UNL     1       4.245   5.589  18.303  0.00  0.00    +0.000 C 
ATOM     17  C   UNL     1       3.356   4.875  19.292  0.00  0.00    +0.000 C 
ATOM     18  C   UNL     1       2.730   5.838  18.310  0.00  0.00    +0.000 C 
BRANCH  18  19
ATOM     19  C   UNL     1       2.122   7.128  18.916  0.00  0.00    +0.000 A 
ATOM     20  N   UNL     1       1.954   8.257  18.257  0.00  0.00    +0.000 NA
ATOM     21  C   UNL     1       1.486   9.254  19.120  0.00  0.00    +0.000 A 
ATOM     22  C   UNL     1       1.252  10.636  18.606  0.00  0.00    +0.000 C 
ATOM     23  C   UNL     1       1.282   8.837  20.427  0.00  0.00    +0.000 A 
ATOM     24  C   UNL     1       0.818   9.602  21.618  0.00  0.00    +0.000 C 
ATOM     25  S   UNL     1       1.669   7.174  20.572  0.00  0.00    +0.000 S 
ENDBRANCH  18  19
ENDBRANCH   2  16
BRANCH   1  26
ATOM     26  C   UNL     1       7.043   4.317  15.870  0.00  0.00    +0.000 C 
BRANCH  26  27
ATOM     27  C   UNL     1       6.828   4.869  14.412  0.00  0.00    +0.000 C 
BRANCH  27  28
ATOM     28  N   UNL     1       8.019   5.589  13.932  0.00  0.00    +0.000 NA
ATOM     29  H   UNL     1       7.978   6.551  14.244  0.00  0.00    +0.000 HD
ATOM     30  H   UNL     1       7.955   5.665  12.905  0.00  0.00    +0.000 HD
ENDBRANCH  27  28
BRANCH  27  31
ATOM     31  C   UNL     1       6.400   3.757  13.390  0.00  0.00    +0.000 C 
ATOM     32  C   UNL     1       7.160   3.834  12.054  0.00  0.00    +0.000 C 
BRANCH  31  34
ATOM     33  C   UNL     1       4.513   3.325  11.635  0.00  0.00    +0.000 C 
ATOM     34  C   UNL     1       4.877   3.690  13.066  0.00  0.00    +0.000 C 
ENDBRANCH  31  34
ENDBRANCH  27  31
ENDBRANCH  26  27
ENDBRANCH   1  26
TORSDOF 9
ENDMDL
MODEL 4
REMARK VINA RESULT:      -7.3      2.954      6.806
REMARK  Name = 
REMARK  13 active torsions:
REMARK  status: ('A' for Active; 'I' for Inactive)
REMARK    1  A    between atoms: C_1  and  C_2
REMARK    2  A    between atoms: C_2  and  C_3
REMARK    3  A    between atoms: C_3  and  C_4
REMARK    4  A    between atoms: C_3  and  C_5
REMARK    5  A    between atoms: C_5  and  N_6
REMARK    6  A    between atoms: C_5  and  C_7
REMARK    7  A    between atoms: C_7  and  N_8
REMARK    8  A    between atoms: N_8  and  C_21
REMARK    9  A    between atoms: C_9  and  C_11
REMARK   10  A    between atoms: C_13  and  C_14
REMARK   11  A    between atoms: C_16  and  C_17
REMARK   12  A    between atoms: C_18  and  C_19
REMARK   13  A    between atoms: C_24  and  C_25
REMARK                            x       y       z     vdW  Elec       q    Type
REMARK                         _______ _______ _______ _____ _____    ______ ____
ROOT
ATOM      1  N   UNL     1       4.712   5.038  18.724  0.00  0.00    +0.000 N 
ATOM      2  C   UNL     1       6.077   5.342  18.613  0.00  0.00    +0.000 C 
ATOM      3  O   UNL     1       6.956   4.501  18.785  0.00  0.00    +0.000 OA
ENDROOT
BRANCH   1   4
ATOM      4  C   UNL     1       3.756   6.076  18.836  0.00  0.00    +0.000 A 
ATOM      5  C   UNL     1       3.566   6.945  17.769  0.00  0.00    +0.000 A 
ATOM      6  C   UNL     1       2.674   8.012  17.899  0.00  0.00    +0.000 A 
ATOM      7  C   UNL     1       1.932   8.218  19.080  0.00  0.00    +0.000 A 
ATOM      8  C   UNL     1       2.122   7.297  20.128  0.00  0.00    +0.000 A 
ATOM      9  C   UNL     1       3.023   6.236  20.010  0.00  0.00    +0.000 A 
BRANCH   7  10
ATOM     10  C   UNL     1       1.019   9.372  19.213  0.00  0.00    +0.000 A 
ATOM     11  C   UNL     1       0.260   9.837  18.122  0.00  0.00    +0.000 A 
ATOM     12  C   UNL     1      -0.561  10.957  18.228  0.00  0.00    +0.000 A 
ATOM     13  C   UNL     1      -0.657  11.642  19.436  0.00  0.00    +0.000 A 
ATOM     14  C   UNL     1       0.055  11.188  20.541  0.00  0.00    +0.000 A 
ATOM     15  C   UNL     1       0.893  10.076  20.430  0.00  0.00    +0.000 A 
ENDBRANCH   7  10
ENDBRANCH   1   4
BRANCH   2  16
ATOM     16  C   UNL     1       6.463   6.756  18.189  0.00  0.00    +0.000 C 
ATOM     17  C   UNL     1       7.058   6.983  16.821  0.00  0.00    +0.000 C 
ATOM     18  C   UNL     1       7.929   7.184  18.039  0.00  0.00    +0.000 C 
BRANCH  18  19
ATOM     19  C   UNL     1       8.384   8.640  18.318  0.00  0.00    +0.000 A 
ATOM     20  N   UNL     1       9.064   9.020  19.381  0.00  0.00    +0.000 NA
ATOM     21  C   UNL     1       9.217  10.411  19.382  0.00  0.00    +0.000 A 
ATOM     22  C   UNL     1       9.927  11.083  20.510  0.00  0.00    +0.000 C 
ATOM     23  C   UNL     1       8.661  11.054  18.285  0.00  0.00    +0.000 A 
ATOM     24  C   UNL     1       8.604  12.504  17.950  0.00  0.00    +0.000 C 
ATOM     25  S   UNL     1       7.952   9.901  17.235  0.00  0.00    +0.000 S 
ENDBRANCH  18  19
ENDBRANCH   2  16
BRANCH   1  26
ATOM     26  C   UNL     1       4.223   3.695  19.179  0.00  0.00    +0.000 C 
BRANCH  26  27
ATOM     27  C   UNL     1       3.610   2.760  18.072  0.00  0.00    +0.000 C 
BRANCH  27  28
ATOM     28  N   UNL     1       4.166   1.400  18.154  0.00  0.00    +0.000 NA
ATOM     29  H   UNL     1       4.233   1.122  19.125  0.00  0.00    +0.000 HD
ATOM     30  H   UNL     1       5.150   1.436  17.844  0.00  0.00    +0.000 HD
ENDBRANCH  27  28
BRANCH  27  31
ATOM     31  C   UNL     1       2.041   2.724  18.097  0.00  0.00    +0.000 C 
ATOM     32  C   UNL     1       1.395   4.034  17.609  0.00  0.00    +0.000 C 
BRANCH  31  34
ATOM     33  C   UNL     1       0.815   3.520  20.262  0.00  0.00    +0.000 C 
ATOM     34  C   UNL     1       1.398   2.361  19.469  0.00  0.00    +0.000 C 
ENDBRANCH  31  34
ENDBRANCH  27  31
ENDBRANCH  26  27
ENDBRANCH   1  26
TORSDOF 9
ENDMDL
MODEL 5
REMARK VINA RESULT:      -7.1      1.139      1.482
REMARK  Name = 
REMARK  13 active torsions:
REMARK  status: ('A' for Active; 'I' for Inactive)
REMARK    1  A    between atoms: C_1  and  C_2
REMARK    2  A    between atoms: C_2  and  C_3
REMARK    3  A    between atoms: C_3  and  C_4
REMARK    4  A    between atoms: C_3  and  C_5
REMARK    5  A    between atoms: C_5  and  N_6
REMARK    6  A    between atoms: C_5  and  C_7
REMARK    7  A    between atoms: C_7  and  N_8
REMARK    8  A    between atoms: N_8  and  C_21
REMARK    9  A    between atoms: C_9  and  C_11
REMARK   10  A    between atoms: C_13  and  C_14
REMARK   11  A    between atoms: C_16  and  C_17
REMARK   12  A    between atoms: C_18  and  C_19
REMARK   13  A    between atoms: C_24  and  C_25
REMARK                            x       y       z     vdW  Elec       q    Type
REMARK                         _______ _______ _______ _____ _____    ______ ____
ROOT
ATOM      1  N   UNL     1       6.200   5.296  17.137  0.00  0.00    +0.000 N 
ATOM      2  C   UNL     1       4.837   5.119  17.421  0.00  0.00    +0.000 C 
ATOM      3  O   UNL     1       4.142   4.294  16.834  0.00  0.00    +0.000 OA
ENDROOT
BRANCH   1   4
ATOM      4  C   UNL     1       6.880   6.449  17.593  0.00  0.00    +0.000 A 
ATOM      5  C   UNL     1       6.634   7.673  16.981  0.00  0.00    +0.000 A 
ATOM      6  C   UNL     1       7.353   8.801  17.380  0.00  0.00    +0.000 A 
ATOM      7  C   UNL     1       8.309   8.743  18.415  0.00  0.00    +0.000 A 
ATOM      8  C   UNL     1       8.508   7.496  19.037  0.00  0.00    +0.000 A 
ATOM      9  C   UNL     1       7.802   6.361  18.634  0.00  0.00    +0.000 A 
BRANCH   7  10
ATOM     10  C   UNL     1       9.085   9.939  18.800  0.00  0.00    +0.000 A 
ATOM     11  C   UNL     1       9.716  10.747  17.835  0.00  0.00    +0.000 A 
ATOM     12  C   UNL     1      10.494  11.844  18.196  0.00  0.00    +0.000 A 
ATOM     13  C   UNL     1      10.655  12.176  19.539  0.00  0.00    +0.000 A 
ATOM     14  C   UNL     1      10.017  11.417  20.514  0.00  0.00    +0.000 A 
ATOM     15  C   UNL     1       9.253  10.305  20.153  0.00  0.00    +0.000 A 
ENDBRANCH   7  10
ENDBRANCH   1   4
BRANCH   2  16
ATOM     16  C   UNL     1       4.229   5.942  18.554  0.00  0.00    +0.000 C 
ATOM     17  C   UNL     1       3.572   5.233  19.713  0.00  0.00    +0.000 C 
ATOM     18  C   UNL     1       2.712   6.035  18.764  0.00  0.00    +0.000 C 
BRANCH  18  19
ATOM     19  C   UNL     1       2.049   7.306  19.354  0.00  0.00    +0.000 A 
ATOM     20  N   UNL     1       1.885   8.436  18.697  0.00  0.00    +0.000 NA
ATOM     21  C   UNL     1       1.358   9.415  19.548  0.00  0.00    +0.000 A 
ATOM     22  C   UNL     1       1.114  10.796  19.037  0.00  0.00    +0.000 C 
ATOM     23  C   UNL     1       1.109   8.981  20.842  0.00  0.00    +0.000 A 
ATOM     24  C   UNL     1       0.578   9.725  22.019  0.00  0.00    +0.000 C 
ATOM     25  S   UNL     1       1.526   7.326  20.989  0.00  0.00    +0.000 S 
ENDBRANCH  18  19
ENDBRANCH   2  16
BRANCH   1  26
ATOM     26  C   UNL     1       6.885   4.575  16.015  0.00  0.00    +0.000 C 
BRANCH  26  27
ATOM     27  C   UNL     1       6.128   4.546  14.635  0.00  0.00    +0.000 C 
BRANCH  27  28
ATOM     28  N   UNL     1       5.460   5.830  14.367  0.00  0.00    +0.000 NA
ATOM     29  H   UNL     1       5.348   6.339  15.234  0.00  0.00    +0.000 HD
ATOM     30  H   UNL     1       4.490   5.631  14.076  0.00  0.00    +0.000 HD
ENDBRANCH  27  28
BRANCH  27  31
ATOM     31  C   UNL     1       7.053   4.137  13.434  0.00  0.00    +0.000 C 
ATOM     32  C   UNL     1       7.964   5.280  12.952  0.00  0.00    +0.000 C 
BRANCH  31  34
ATOM     33  C   UNL     1       6.967   2.345  11.536  0.00  0.00    +0.000 C 
ATOM     34  C   UNL     1       6.321   3.558  12.187  0.00  0.00    +0.000 C 
ENDBRANCH  31  34
ENDBRANCH  27  31
ENDBRANCH  26  27
ENDBRANCH   1  26
TORSDOF 9
ENDMDL
MODEL 6
REMARK VINA RESULT:      -7.0      3.122      7.046
REMARK  Name = 
REMARK  13 active torsions:
REMARK  status: ('A' for Active; 'I' for Inactive)
REMARK    1  A    between atoms: C_1  and  C_2
REMARK    2  A    between atoms: C_2  and  C_3
REMARK    3  A    between atoms: C_3  and  C_4
REMARK    4  A    between atoms: C_3  and  C_5
REMARK    5  A    between atoms: C_5  and  N_6
REMARK    6  A    between atoms: C_5  and  C_7
REMARK    7  A    between atoms: C_7  and  N_8
REMARK    8  A    between atoms: N_8  and  C_21
REMARK    9  A    between atoms: C_9  and  C_11
REMARK   10  A    between atoms: C_13  and  C_14
REMARK   11  A    between atoms: C_16  and  C_17
REMARK   12  A    between atoms: C_18  and  C_19
REMARK   13  A    between atoms: C_24  and  C_25
REMARK                            x       y       z     vdW  Elec       q    Type
REMARK                         _______ _______ _______ _____ _____    ______ ____
ROOT
ATOM      1  N   UNL     1       4.982   5.224  18.645  0.00  0.00    +0.000 N 
ATOM      2  C   UNL     1       6.325   5.609  18.511  0.00  0.00    +0.000 C 
ATOM      3  O   UNL     1       7.257   4.842  18.737  0.00  0.00    +0.000 OA
ENDROOT
BRANCH   1   4
ATOM      4  C   UNL     1       3.960   6.201  18.689  0.00  0.00    +0.000 A 
ATOM      5  C   UNL     1       3.805   7.075  17.621  0.00  0.00    +0.000 A 
ATOM      6  C   UNL     1       2.842   8.084  17.689  0.00  0.00    +0.000 A 
ATOM      7  C   UNL     1       1.995   8.226  18.807  0.00  0.00    +0.000 A 
ATOM      8  C   UNL     1       2.155   7.301  19.856  0.00  0.00    +0.000 A 
ATOM      9  C   UNL     1       3.124   6.298  19.800  0.00  0.00    +0.000 A 
BRANCH   7  10
ATOM     10  C   UNL     1       1.007   9.322  18.877  0.00  0.00    +0.000 A 
ATOM     11  C   UNL     1       1.022  10.258  19.928  0.00  0.00    +0.000 A 
ATOM     12  C   UNL     1       0.060  11.260  20.029  0.00  0.00    +0.000 A 
ATOM     13  C   UNL     1      -0.944  11.364  19.070  0.00  0.00    +0.000 A 
ATOM     14  C   UNL     1      -0.967  10.475  18.002  0.00  0.00    +0.000 A 
ATOM     15  C   UNL     1      -0.014   9.457  17.911  0.00  0.00    +0.000 A 
ENDBRANCH   7  10
ENDBRANCH   1   4
BRANCH   2  16
ATOM     16  C   UNL     1       6.618   7.015  17.995  0.00  0.00    +0.000 C 
ATOM     17  C   UNL     1       7.429   7.187  16.734  0.00  0.00    +0.000 C 
ATOM     18  C   UNL     1       8.026   7.622  18.052  0.00  0.00    +0.000 C 
BRANCH  18  19
ATOM     19  C   UNL     1       8.248   9.146  18.229  0.00  0.00    +0.000 A 
ATOM     20  N   UNL     1       7.705  10.074  17.468  0.00  0.00    +0.000 NA
ATOM     21  C   UNL     1       8.195  11.336  17.823  0.00  0.00    +0.000 A 
ATOM     22  C   UNL     1       7.748  12.547  17.075  0.00  0.00    +0.000 C 
ATOM     23  C   UNL     1       9.091  11.330  18.881  0.00  0.00    +0.000 A 
ATOM     24  C   UNL     1       9.829  12.455  19.521  0.00  0.00    +0.000 C 
ATOM     25  S   UNL     1       9.312   9.727  19.446  0.00  0.00    +0.000 S 
ENDBRANCH  18  19
ENDBRANCH   2  16
BRANCH   1  26
ATOM     26  C   UNL     1       4.583   3.884  19.188  0.00  0.00    +0.000 C 
BRANCH  26  27
ATOM     27  C   UNL     1       3.568   3.051  18.321  0.00  0.00    +0.000 C 
BRANCH  27  28
ATOM     28  N   UNL     1       4.269   2.085  17.459  0.00  0.00    +0.000 NA
ATOM     29  H   UNL     1       4.210   1.163  17.870  0.00  0.00    +0.000 HD
ATOM     30  H   UNL     1       5.278   2.301  17.491  0.00  0.00    +0.000 HD
ENDBRANCH  27  28
BRANCH  27  31
ATOM     31  C   UNL     1       2.468   2.333  19.182  0.00  0.00    +0.000 C 
ATOM     32  C   UNL     1       1.036   2.603  18.685  0.00  0.00    +0.000 C 
BRANCH  31  34
ATOM     33  C   UNL     1       1.377   3.504  21.246  0.00  0.00    +0.000 C 
ATOM     34  C   UNL     1       2.504   2.636  20.709  0.00  0.00    +0.000 C 
ENDBRANCH  31  34
ENDBRANCH  27  31
ENDBRANCH  26  27
ENDBRANCH   1  26
TORSDOF 9
ENDMDL
MODEL 7
REMARK VINA RESULT:      -7.0      1.069      1.715
REMARK  Name = 
REMARK  13 active torsions:
REMARK  status: ('A' for Active; 'I' for Inactive)
REMARK    1  A    between atoms: C_1  and  C_2
REMARK    2  A    between atoms: C_2  and  C_3
REMARK    3  A    between atoms: C_3  and  C_4
REMARK    4  A    between atoms: C_3  and  C_5
REMARK    5  A    between atoms: C_5  and  N_6
REMARK    6  A    between atoms: C_5  and  C_7
REMARK    7  A    between atoms: C_7  and  N_8
REMARK    8  A    between atoms: N_8  and  C_21
REMARK    9  A    between atoms: C_9  and  C_11
REMARK   10  A    between atoms: C_13  and  C_14
REMARK   11  A    between atoms: C_16  and  C_17
REMARK   12  A    between atoms: C_18  and  C_19
REMARK   13  A    between atoms: C_24  and  C_25
REMARK                            x       y       z     vdW  Elec       q    Type
REMARK                         _______ _______ _______ _____ _____    ______ ____
ROOT
ATOM      1  N   UNL     1       6.289   5.415  17.082  0.00  0.00    +0.000 N 
ATOM      2  C   UNL     1       4.913   5.311  17.334  0.00  0.00    +0.000 C 
ATOM      3  O   UNL     1       4.198   4.489  16.767  0.00  0.00    +0.000 OA
ENDROOT
BRANCH   1   4
ATOM      4  C   UNL     1       7.007   6.560  17.502  0.00  0.00    +0.000 A 
ATOM      5  C   UNL     1       7.924   6.447  18.541  0.00  0.00    +0.000 A 
ATOM      6  C   UNL     1       8.585   7.586  19.004  0.00  0.00    +0.000 A 
ATOM      7  C   UNL     1       8.372   8.853  18.426  0.00  0.00    +0.000 A 
ATOM      8  C   UNL     1       7.463   8.926  17.352  0.00  0.00    +0.000 A 
ATOM      9  C   UNL     1       6.789   7.793  16.892  0.00  0.00    +0.000 A 
BRANCH   7  10
ATOM     10  C   UNL     1       9.053  10.054  18.953  0.00  0.00    +0.000 A 
ATOM     11  C   UNL     1       9.734  10.944  18.101  0.00  0.00    +0.000 A 
ATOM     12  C   UNL     1      10.424  12.048  18.598  0.00  0.00    +0.000 A 
ATOM     13  C   UNL     1      10.442  12.302  19.967  0.00  0.00    +0.000 A 
ATOM     14  C   UNL     1       9.752  11.459  20.831  0.00  0.00    +0.000 A 
ATOM     15  C   UNL     1       9.076  10.342  20.335  0.00  0.00    +0.000 A 
ENDBRANCH   7  10
ENDBRANCH   1   4
BRANCH   2  16
ATOM     16  C   UNL     1       4.312   6.212  18.410  0.00  0.00    +0.000 C 
ATOM     17  C   UNL     1       3.737   5.591  19.659  0.00  0.00    +0.000 C 
ATOM     18  C   UNL     1       2.801   6.257  18.677  0.00  0.00    +0.000 C 
BRANCH  18  19
ATOM     19  C   UNL     1       2.101   7.549  19.172  0.00  0.00    +0.000 A 
ATOM     20  N   UNL     1       1.935   8.635  18.444  0.00  0.00    +0.000 NA
ATOM     21  C   UNL     1       1.370   9.653  19.220  0.00  0.00    +0.000 A 
ATOM     22  C   UNL     1       1.117  10.996  18.620  0.00  0.00    +0.000 C 
ATOM     23  C   UNL     1       1.093   9.293  20.531  0.00  0.00    +0.000 A 
ATOM     24  C   UNL     1       0.518  10.096  21.647  0.00  0.00    +0.000 C 
ATOM     25  S   UNL     1       1.534   7.658  20.789  0.00  0.00    +0.000 S 
ENDBRANCH  18  19
ENDBRANCH   2  16
BRANCH   1  26
ATOM     26  C   UNL     1       6.972   4.613  16.014  0.00  0.00    +0.000 C 
BRANCH  26  27
ATOM     27  C   UNL     1       6.827   5.142  14.540  0.00  0.00    +0.000 C 
BRANCH  27  28
ATOM     28  N   UNL     1       8.141   5.447  13.951  0.00  0.00    +0.000 NA
ATOM     29  H   UNL     1       8.114   5.267  12.955  0.00  0.00    +0.000 HD
ATOM     30  H   UNL     1       8.819   4.753  14.304  0.00  0.00    +0.000 HD
ENDBRANCH  27  28
BRANCH  27  31
ATOM     31  C   UNL     1       6.014   4.170  13.614  0.00  0.00    +0.000 C 
ATOM     32  C   UNL     1       5.522   2.906  14.342  0.00  0.00    +0.000 C 
BRANCH  31  34
ATOM     33  C   UNL     1       6.195   2.459  11.647  0.00  0.00    +0.000 C 
ATOM     34  C   UNL     1       6.740   3.714  12.313  0.00  0.00    +0.000 C 
ENDBRANCH  31  34
ENDBRANCH  27  31
ENDBRANCH  26  27
ENDBRANCH   1  26
TORSDOF 9
ENDMDL
MODEL 8
REMARK VINA RESULT:      -6.9      1.148      1.864
REMARK  Name = 
REMARK  13 active torsions:
REMARK  status: ('A' for Active; 'I' for Inactive)
REMARK    1  A    between atoms: C_1  and  C_2
REMARK    2  A    between atoms: C_2  and  C_3
REMARK    3  A    between atoms: C_3  and  C_4
REMARK    4  A    between atoms: C_3  and  C_5
REMARK    5  A    between atoms: C_5  and  N_6
REMARK    6  A    between atoms: C_5  and  C_7
REMARK    7  A    between atoms: C_7  and  N_8
REMARK    8  A    between atoms: N_8  and  C_21
REMARK    9  A    between atoms: C_9  and  C_11
REMARK   10  A    between atoms: C_13  and  C_14
REMARK   11  A    between atoms: C_16  and  C_17
REMARK   12  A    between atoms: C_18  and  C_19
REMARK   13  A    between atoms: C_24  and  C_25
REMARK                            x       y       z     vdW  Elec       q    Type
REMARK                         _______ _______ _______ _____ _____    ______ ____
ROOT
ATOM      1  N   UNL     1       6.072   5.261  17.115  0.00  0.00    +0.000 N 
ATOM      2  C   UNL     1       4.704   5.182  17.420  0.00  0.00    +0.000 C 
ATOM      3  O   UNL     1       3.956   4.365  16.891  0.00  0.00    +0.000 OA
ENDROOT
BRANCH   1   4
ATOM      4  C   UNL     1       6.823   6.398  17.493  0.00  0.00    +0.000 A 
ATOM      5  C   UNL     1       7.772   6.284  18.503  0.00  0.00    +0.000 A 
ATOM      6  C   UNL     1       8.468   7.418  18.926  0.00  0.00    +0.000 A 
ATOM      7  C   UNL     1       8.258   8.681  18.336  0.00  0.00    +0.000 A 
ATOM      8  C   UNL     1       7.316   8.754  17.292  0.00  0.00    +0.000 A 
ATOM      9  C   UNL     1       6.606   7.626  16.872  0.00  0.00    +0.000 A 
BRANCH   7  10
ATOM     10  C   UNL     1       8.977   9.876  18.822  0.00  0.00    +0.000 A 
ATOM     11  C   UNL     1       9.077  10.165  20.196  0.00  0.00    +0.000 A 
ATOM     12  C   UNL     1       9.708  11.319  20.656  0.00  0.00    +0.000 A 
ATOM     13  C   UNL     1      10.271  12.216  19.752  0.00  0.00    +0.000 A 
ATOM     14  C   UNL     1      10.217  11.942  18.390  0.00  0.00    +0.000 A 
ATOM     15  C   UNL     1       9.568  10.795  17.927  0.00  0.00    +0.000 A 
ENDBRANCH   7  10
ENDBRANCH   1   4
BRANCH   2  16
ATOM     16  C   UNL     1       4.159   6.105  18.506  0.00  0.00    +0.000 C 
ATOM     17  C   UNL     1       3.598   5.508  19.773  0.00  0.00    +0.000 C 
ATOM     18  C   UNL     1       2.658   6.198  18.812  0.00  0.00    +0.000 C 
BRANCH  18  19
ATOM     19  C   UNL     1       2.011   7.513  19.318  0.00  0.00    +0.000 A 
ATOM     20  N   UNL     1       1.867   8.603  18.592  0.00  0.00    +0.000 NA
ATOM     21  C   UNL     1       1.350   9.639  19.378  0.00  0.00    +0.000 A 
ATOM     22  C   UNL     1       1.130  10.989  18.781  0.00  0.00    +0.000 C 
ATOM     23  C   UNL     1       1.087   9.290  20.694  0.00  0.00    +0.000 A 
ATOM     24  C   UNL     1       0.560  10.112  21.819  0.00  0.00    +0.000 C 
ATOM     25  S   UNL     1       1.479   7.641  20.946  0.00  0.00    +0.000 S 
ENDBRANCH  18  19
ENDBRANCH   2  16
BRANCH   1  26
ATOM     26  C   UNL     1       6.701   4.434  16.033  0.00  0.00    +0.000 C 
BRANCH  26  27
ATOM     27  C   UNL     1       5.995   4.467  14.627  0.00  0.00    +0.000 C 
BRANCH  27  28
ATOM     28  N   UNL     1       5.426   5.796  14.346  0.00  0.00    +0.000 NA
ATOM     29  H   UNL     1       5.748   6.115  13.441  0.00  0.00    +0.000 HD
ATOM     30  H   UNL     1       5.848   6.471  15.004  0.00  0.00    +0.000 HD
ENDBRANCH  27  28
BRANCH  27  31
ATOM     31  C   UNL     1       6.933   4.004  13.456  0.00  0.00    +0.000 C 
ATOM     32  C   UNL     1       7.773   5.148  12.861  0.00  0.00    +0.000 C 
BRANCH  31  34
ATOM     33  C   UNL     1       7.127   2.467  11.352  0.00  0.00    +0.000 C 
ATOM     34  C   UNL     1       6.226   3.272  12.276  0.00  0.00    +0.000 C 
ENDBRANCH  31  34
ENDBRANCH  27  31
ENDBRANCH  26  27
ENDBRANCH   1  26
TORSDOF 9
ENDMDL
MODEL 9
REMARK VINA RESULT:      -6.9      2.999      7.072
REMARK  Name = 
REMARK  13 active torsions:
REMARK  status: ('A' for Active; 'I' for Inactive)
REMARK    1  A    between atoms: C_1  and  C_2
REMARK    2  A    between atoms: C_2  and  C_3
REMARK    3  A    between atoms: C_3  and  C_4
REMARK    4  A    between atoms: C_3  and  C_5
REMARK    5  A    between atoms: C_5  and  N_6
REMARK    6  A    between atoms: C_5  and  C_7
REMARK    7  A    between atoms: C_7  and  N_8
REMARK    8  A    between atoms: N_8  and  C_21
REMARK    9  A    between atoms: C_9  and  C_11
REMARK   10  A    between atoms: C_13  and  C_14
REMARK   11  A    between atoms: C_16  and  C_17
REMARK   12  A    between atoms: C_18  and  C_19
REMARK   13  A    between atoms: C_24  and  C_25
REMARK                            x       y       z     vdW  Elec       q    Type
REMARK                         _______ _______ _______ _____ _____    ______ ____
ROOT
ATOM      1  N   UNL     1       4.711   5.025  18.890  0.00  0.00    +0.000 N 
ATOM      2  C   UNL     1       6.072   5.341  18.771  0.00  0.00    +0.000 C 
ATOM      3  O   UNL     1       6.962   4.522  18.988  0.00  0.00    +0.000 OA
ENDROOT
BRANCH   1   4
ATOM      4  C   UNL     1       3.741   6.053  18.946  0.00  0.00    +0.000 A 
ATOM      5  C   UNL     1       3.544   6.867  17.837  0.00  0.00    +0.000 A 
ATOM      6  C   UNL     1       2.637   7.926  17.911  0.00  0.00    +0.000 A 
ATOM      7  C   UNL     1       1.887   8.180  19.076  0.00  0.00    +0.000 A 
ATOM      8  C   UNL     1       2.085   7.315  20.170  0.00  0.00    +0.000 A 
ATOM      9  C   UNL     1       3.000   6.262  20.107  0.00  0.00    +0.000 A 
BRANCH   7  10
ATOM     10  C   UNL     1       0.958   9.327  19.149  0.00  0.00    +0.000 A 
ATOM     11  C   UNL     1       0.757  10.034  20.349  0.00  0.00    +0.000 A 
ATOM     12  C   UNL     1      -0.157  11.081  20.436  0.00  0.00    +0.000 A 
ATOM     13  C   UNL     1      -0.891  11.463  19.317  0.00  0.00    +0.000 A 
ATOM     14  C   UNL     1      -0.691  10.805  18.108  0.00  0.00    +0.000 A 
ATOM     15  C   UNL     1       0.211   9.742  18.025  0.00  0.00    +0.000 A 
ENDBRANCH   7  10
ENDBRANCH   1   4
BRANCH   2  16
ATOM     16  C   UNL     1       6.443   6.739  18.282  0.00  0.00    +0.000 C 
ATOM     17  C   UNL     1       7.016   6.911  16.897  0.00  0.00    +0.000 C 
ATOM     18  C   UNL     1       7.903   7.170  18.093  0.00  0.00    +0.000 C 
BRANCH  18  19
ATOM     19  C   UNL     1       8.351   8.639  18.303  0.00  0.00    +0.000 A 
ATOM     20  N   UNL     1       9.101   9.056  19.303  0.00  0.00    +0.000 NA
ATOM     21  C   UNL     1       9.228  10.449  19.261  0.00  0.00    +0.000 A 
ATOM     22  C   UNL     1      10.009  11.160  20.316  0.00  0.00    +0.000 C 
ATOM     23  C   UNL     1       8.582  11.056  18.193  0.00  0.00    +0.000 A 
ATOM     24  C   UNL     1       8.474  12.496  17.829  0.00  0.00    +0.000 C 
ATOM     25  S   UNL     1       7.818   9.866  17.226  0.00  0.00    +0.000 S 
ENDBRANCH  18  19
ENDBRANCH   2  16
BRANCH   1  26
ATOM     26  C   UNL     1       4.237   3.698  19.406  0.00  0.00    +0.000 C 
BRANCH  26  27
ATOM     27  C   UNL     1       3.180   2.939  18.522  0.00  0.00    +0.000 C 
BRANCH  27  28
ATOM     28  N   UNL     1       3.802   1.830  17.780  0.00  0.00    +0.000 NA
ATOM     29  H   UNL     1       4.808   1.939  17.794  0.00  0.00    +0.000 HD
ATOM     30  H   UNL     1       3.561   1.936  16.782  0.00  0.00    +0.000 HD
ENDBRANCH  27  28
BRANCH  27  31
ATOM     31  C   UNL     1       1.940   2.435  19.342  0.00  0.00    +0.000 C 
ATOM     32  C   UNL     1       0.673   2.264  18.484  0.00  0.00    +0.000 C 
BRANCH  31  34
ATOM     33  C   UNL     1       1.745   2.634  21.939  0.00  0.00    +0.000 C 
ATOM     34  C   UNL     1       1.559   3.297  20.583  0.00  0.00    +0.000 C 
ENDBRANCH  31  34
ENDBRANCH  27  31
ENDBRANCH  26  27
ENDBRANCH   1  26
TORSDOF 9
ENDMDL
