MODEL 1
REMARK VINA RESULT:      -8.3      0.000      0.000
REMARK  Name = 
REMARK  4 active torsions:
REMARK  status: ('A' for Active; 'I' for Inactive)
REMARK    1  A    between atoms: C_4  and  C_5
REMARK    2  A    between atoms: C_5  and  N_6
REMARK    3  A    between atoms: C_10  and  C_11
REMARK    4  A    between atoms: C_11  and  N_12
REMARK                            x       y       z     vdW  Elec       q    Type
REMARK                         _______ _______ _______ _____ _____    ______ ____
ROOT
ATOM      1  C   UNL     1       2.213   5.209  20.521  0.00  0.00    +0.000 C 
ENDROOT
BRANCH   1   5
ATOM      2  O   UNL     1       2.545   8.760  17.264  0.00  0.00    +0.000 OA
ATOM      3  C   UNL     1       2.161   8.419  18.383  0.00  0.00    +0.000 A 
ATOM      4  C   UNL     1       2.377   7.025  18.812  0.00  0.00    +0.000 A 
ATOM      5  C   UNL     1       1.944   6.636  20.017  0.00  0.00    +0.000 A 
ATOM      6  N   UNL     1       1.273   7.484  20.867  0.00  0.00    +0.000 NA
ATOM      7  C   UNL     1       1.135   8.720  20.521  0.00  0.00    +0.000 A 
ATOM      8  C   UNL     1       0.495   9.666  21.484  0.00  0.00    +0.000 A 
ATOM      9  C   UNL     1       0.358  10.959  21.164  0.00  0.00    +0.000 A 
ATOM     10  C   UNL     1       0.792  11.439  19.877  0.00  0.00    +0.000 A 
ATOM     11 CL   UNL     1       0.577  13.102  19.499  0.00  0.00    +0.000 Cl
ATOM     12  C   UNL     1       1.358  10.595  19.006  0.00  0.00    +0.000 A 
ATOM     13  N   UNL     1       1.552   9.248  19.309  0.00  0.00    +0.000 N 
ENDBRANCH   1   5
BRANCH   1  14
ATOM     14  N   UNL     1       3.087   4.342  19.697  0.00  0.00    +0.000 NA
ATOM     15  C   UNL     1       3.326   3.044  20.333  0.00  0.00    +0.000 C 
ATOM     16  C   UNL     1       4.060   2.026  19.457  0.00  0.00    +0.000 C 
ATOM     17  C   UNL     1       3.441   1.949  18.068  0.00  0.00    +0.000 C 
ATOM     18  C   UNL     1       3.420   3.332  17.398  0.00  0.00    +0.000 C 
ATOM     19  C   UNL     1       2.626   4.287  18.302  0.00  0.00    +0.000 C 
BRANCH  18  20
ATOM     20  C   UNL     1       4.840   3.849  17.060  0.00  0.00    +0.000 C 
BRANCH  20  21
ATOM     21  N   UNL     1       4.879   5.059  16.219  0.00  0.00    +0.000 NA
ATOM     22  C   UNL     1       5.537   4.890  14.909  0.00  0.00    +0.000 C 
ATOM     23  C   UNL     1       7.069   4.823  14.987  0.00  0.00    +0.000 C 
ATOM     24  O   UNL     1       7.597   6.002  15.605  0.00  0.00    +0.000 OA
ATOM     25  C   UNL     1       7.062   6.159  16.925  0.00  0.00    +0.000 C 
ATOM     26  C   UNL     1       5.522   6.190  16.926  0.00  0.00    +0.000 C 
ENDBRANCH  20  21
ENDBRANCH  18  20
ENDBRANCH   1  14
TORSDOF 4
ENDMDL
MODEL 2
REMARK VINA RESULT:      -8.0      2.052      2.944
REMARK  Name = 
REMARK  4 active torsions:
REMARK  status: ('A' for Active; 'I' for Inactive)
REMARK    1  A    between atoms: C_4  and  C_5
REMARK    2  A    between atoms: C_5  and  N_6
REMARK    3  A    between atoms: C_10  and  C_11
REMARK    4  A    between atoms: C_11  and  N_12
REMARK                            x       y       z     vdW  Elec       q    Type
REMARK                         _______ _______ _______ _____ _____    ______ ____
ROOT
ATOM      1  C   UNL     1       2.588   7.997  17.841  0.00  0.00    +0.000 C 
ENDROOT
BRANCH   1   5
ATOM      2  O   UNL     1      -0.854  11.349  18.326  0.00  0.00    +0.000 OA
ATOM      3  C   UNL     1      -0.137  10.519  18.884  0.00  0.00    +0.000 A 
ATOM      4  C   UNL     1       0.793   9.720  18.065  0.00  0.00    +0.000 A 
ATOM      5  C   UNL     1       1.562   8.798  18.656  0.00  0.00    +0.000 A 
ATOM      6  N   UNL     1       1.496   8.543  20.006  0.00  0.00    +0.000 NA
ATOM      7  C   UNL     1       0.729   9.279  20.736  0.00  0.00    +0.000 A 
ATOM      8  C   UNL     1       0.731   9.070  22.215  0.00  0.00    +0.000 A 
ATOM      9  C   UNL     1      -0.038   9.834  23.002  0.00  0.00    +0.000 A 
ATOM     10  C   UNL     1      -0.898  10.835  22.427  0.00  0.00    +0.000 A 
ATOM     11 CL   UNL     1      -1.884  11.779  23.472  0.00  0.00    +0.000 Cl
ATOM     12  C   UNL     1      -0.910  11.023  21.101  0.00  0.00    +0.000 A 
ATOM     13  N   UNL     1      -0.103  10.274  20.246  0.00  0.00    +0.000 N 
ENDBRANCH   1   5
BRANCH   1  14
ATOM     14  N   UNL     1       3.237   6.838  18.500  0.00  0.00    +0.000 NA
ATOM     15  C   UNL     1       2.262   5.980  19.179  0.00  0.00    +0.000 C 
ATOM     16  C   UNL     1       2.831   4.666  19.718  0.00  0.00    +0.000 C 
ATOM     17  C   UNL     1       3.678   3.960  18.667  0.00  0.00    +0.000 C 
ATOM     18  C   UNL     1       4.803   4.877  18.161  0.00  0.00    +0.000 C 
ATOM     19  C   UNL     1       4.160   6.149  17.588  0.00  0.00    +0.000 C 
BRANCH  18  20
ATOM     20  C   UNL     1       5.865   5.167  19.249  0.00  0.00    +0.000 C 
BRANCH  20  21
ATOM     21  N   UNL     1       7.264   5.111  18.787  0.00  0.00    +0.000 NA
ATOM     22  C   UNL     1       7.973   6.405  18.778  0.00  0.00    +0.000 C 
ATOM     23  C   UNL     1       7.566   7.330  17.622  0.00  0.00    +0.000 C 
ATOM     24  O   UNL     1       7.786   6.690  16.359  0.00  0.00    +0.000 OA
ATOM     25  C   UNL     1       7.036   5.471  16.278  0.00  0.00    +0.000 C 
ATOM     26  C   UNL     1       7.365   4.510  17.437  0.00  0.00    +0.000 C 
ENDBRANCH  20  21
ENDBRANCH  18  20
ENDBRANCH   1  14
TORSDOF 4
ENDMDL
MODEL 3
REMARK VINA RESULT:      -7.8      1.461      2.180
REMARK  Name = 
REMARK  4 active torsions:
REMARK  status: ('A' for Active; 'I' for Inactive)
REMARK    1  A    between atoms: C_4  and  C_5
REMARK    2  A    between atoms: C_5  and  N_6
REMARK    3  A    between atoms: C_10  and  C_11
REMARK    4  A    between atoms: C_11  and  N_12
REMARK                            x       y       z     vdW  Elec       q    Type
REMARK                         _______ _______ _______ _____ _____    ______ ____
ROOT
ATOM      1  C   UNL     1       1.754   5.229  20.584  0.00  0.00    +0.000 C 
ENDROOT
BRANCH   1   5
ATOM      2  O   UNL     1      -0.005   9.409  22.246  0.00  0.00    +0.000 OA
ATOM      3  C   UNL     1       0.603   8.831  21.345  0.00  0.00    +0.000 A 
ATOM      4  C   UNL     1       0.854   7.384  21.474  0.00  0.00    +0.000 A 
ATOM      5  C   UNL     1       1.533   6.748  20.512  0.00  0.00    +0.000 A 
ATOM      6  N   UNL     1       2.038   7.403  19.413  0.00  0.00    +0.000 NA
ATOM      7  C   UNL     1       1.769   8.657  19.265  0.00  0.00    +0.000 A 
ATOM      8  C   UNL     1       2.230   9.347  18.024  0.00  0.00    +0.000 A 
ATOM      9  C   UNL     1       1.948  10.642  17.831  0.00  0.00    +0.000 A 
ATOM     10  C   UNL     1       1.231  11.386  18.834  0.00  0.00    +0.000 A 
ATOM     11 CL   UNL     1       0.909  13.051  18.554  0.00  0.00    +0.000 Cl
ATOM     12  C   UNL     1       0.822  10.775  19.953  0.00  0.00    +0.000 A 
ATOM     13  N   UNL     1       1.064   9.422  20.182  0.00  0.00    +0.000 N 
ENDBRANCH   1   5
BRANCH   1  14
ATOM     14  N   UNL     1       2.734   4.632  19.647  0.00  0.00    +0.000 NA
ATOM     15  C   UNL     1       3.416   3.475  20.233  0.00  0.00    +0.000 C 
ATOM     16  C   UNL     1       4.301   2.692  19.261  0.00  0.00    +0.000 C 
ATOM     17  C   UNL     1       3.566   2.405  17.958  0.00  0.00    +0.000 C 
ATOM     18  C   UNL     1       3.062   3.705  17.312  0.00  0.00    +0.000 C 
ATOM     19  C   UNL     1       2.142   4.412  18.319  0.00  0.00    +0.000 C 
BRANCH  18  20
ATOM     20  C   UNL     1       4.218   4.603  16.807  0.00  0.00    +0.000 C 
BRANCH  20  21
ATOM     21  N   UNL     1       5.519   3.925  16.670  0.00  0.00    +0.000 NA
ATOM     22  C   UNL     1       6.642   4.575  17.372  0.00  0.00    +0.000 C 
ATOM     23  C   UNL     1       7.162   5.841  16.677  0.00  0.00    +0.000 C 
ATOM     24  O   UNL     1       7.581   5.548  15.338  0.00  0.00    +0.000 OA
ATOM     25  C   UNL     1       6.493   5.003  14.581  0.00  0.00    +0.000 C 
ATOM     26  C   UNL     1       5.892   3.750  15.247  0.00  0.00    +0.000 C 
ENDBRANCH  20  21
ENDBRANCH  18  20
ENDBRANCH   1  14
TORSDOF 4
ENDMDL
MODEL 4
REMARK VINA RESULT:      -7.8      2.208      3.068
REMARK  Name = 
REMARK  4 active torsions:
REMARK  status: ('A' for Active; 'I' for Inactive)
REMARK    1  A    between atoms: C_4  and  C_5
REMARK    2  A    between atoms: C_5  and  N_6
REMARK    3  A    between atoms: C_10  and  C_11
REMARK    4  A    between atoms: C_11  and  N_12
REMARK                            x       y       z     vdW  Elec       q    Type
REMARK                         _______ _______ _______ _____ _____    ______ ____
ROOT
ATOM      1  C   UNL     1       2.133   7.752  18.341  0.00  0.00    +0.000 C 
ENDROOT
BRANCH   1   5
ATOM      2  O   UNL     1       1.338   9.282  22.852  0.00  0.00    +0.000 OA
ATOM      3  C   UNL     1       1.070   9.409  21.657  0.00  0.00    +0.000 A 
ATOM      4  C   UNL     1       1.754   8.542  20.681  0.00  0.00    +0.000 A 
ATOM      5  C   UNL     1       1.488   8.685  19.378  0.00  0.00    +0.000 A 
ATOM      6  N   UNL     1       0.617   9.639  18.905  0.00  0.00    +0.000 NA
ATOM      7  C   UNL     1      -0.029  10.360  19.759  0.00  0.00    +0.000 A 
ATOM      8  C   UNL     1      -1.049  11.327  19.253  0.00  0.00    +0.000 A 
ATOM      9  C   UNL     1      -1.752  12.073  20.115  0.00  0.00    +0.000 A 
ATOM     10  C   UNL     1      -1.504  11.975  21.530  0.00  0.00    +0.000 A 
ATOM     11 CL   UNL     1      -2.415  12.968  22.599  0.00  0.00    +0.000 Cl
ATOM     12  C   UNL     1      -0.586  11.116  21.990  0.00  0.00    +0.000 A 
ATOM     13  N   UNL     1       0.146  10.296  21.133  0.00  0.00    +0.000 N 
ENDBRANCH   1   5
BRANCH   1  14
ATOM     14  N   UNL     1       2.963   6.633  18.845  0.00  0.00    +0.000 NA
ATOM     15  C   UNL     1       2.151   5.597  19.490  0.00  0.00    +0.000 C 
ATOM     16  C   UNL     1       2.914   4.324  19.864  0.00  0.00    +0.000 C 
ATOM     17  C   UNL     1       3.768   3.833  18.703  0.00  0.00    +0.000 C 
ATOM     18  C   UNL     1       4.734   4.930  18.227  0.00  0.00    +0.000 C 
ATOM     19  C   UNL     1       3.900   6.154  17.819  0.00  0.00    +0.000 C 
BRANCH  18  20
ATOM     20  C   UNL     1       5.824   5.255  19.277  0.00  0.00    +0.000 C 
BRANCH  20  21
ATOM     21  N   UNL     1       7.210   5.162  18.785  0.00  0.00    +0.000 NA
ATOM     22  C   UNL     1       7.949   6.439  18.749  0.00  0.00    +0.000 C 
ATOM     23  C   UNL     1       7.539   7.362  17.593  0.00  0.00    +0.000 C 
ATOM     24  O   UNL     1       7.718   6.706  16.333  0.00  0.00    +0.000 OA
ATOM     25  C   UNL     1       6.939   5.504  16.279  0.00  0.00    +0.000 C 
ATOM     26  C   UNL     1       7.269   4.546  17.440  0.00  0.00    +0.000 C 
ENDBRANCH  20  21
ENDBRANCH  18  20
ENDBRANCH   1  14
TORSDOF 4
ENDMDL
MODEL 5
REMARK VINA RESULT:      -7.7      2.572      3.729
REMARK  Name = 
REMARK  4 active torsions:
REMARK  status: ('A' for Active; 'I' for Inactive)
REMARK    1  A    between atoms: C_4  and  C_5
REMARK    2  A    between atoms: C_5  and  N_6
REMARK    3  A    between atoms: C_10  and  C_11
REMARK    4  A    between atoms: C_11  and  N_12
REMARK                            x       y       z     vdW  Elec       q    Type
REMARK                         _______ _______ _______ _____ _____    ______ ____
ROOT
ATOM      1  C   UNL     1       1.613   8.791  19.184  0.00  0.00    +0.000 C 
ENDROOT
BRANCH   1   5
ATOM      2  O   UNL     1       0.486   9.535  23.820  0.00  0.00    +0.000 OA
ATOM      3  C   UNL     1       0.275   9.838  22.646  0.00  0.00    +0.000 A 
ATOM      4  C   UNL     1       1.061   9.174  21.591  0.00  0.00    +0.000 A 
ATOM      5  C   UNL     1       0.858   9.511  20.312  0.00  0.00    +0.000 A 
ATOM      6  N   UNL     1      -0.042  10.483  19.942  0.00  0.00    +0.000 NA
ATOM      7  C   UNL     1      -0.776  11.024  20.855  0.00  0.00    +0.000 A 
ATOM      8  C   UNL     1      -1.822  12.007  20.445  0.00  0.00    +0.000 A 
ATOM      9  C   UNL     1      -2.615  12.569  21.368  0.00  0.00    +0.000 A 
ATOM     10  C   UNL     1      -2.438  12.258  22.763  0.00  0.00    +0.000 A 
ATOM     11 CL   UNL     1      -3.463  13.018  23.915  0.00  0.00    +0.000 Cl
ATOM     12  C   UNL     1      -1.496  11.384  23.138  0.00  0.00    +0.000 A 
ATOM     13  N   UNL     1      -0.671  10.750  22.211  0.00  0.00    +0.000 N 
ENDBRANCH   1   5
BRANCH   1  14
ATOM     14  N   UNL     1       2.257   7.495  19.505  0.00  0.00    +0.000 NA
ATOM     15  C   UNL     1       1.469   6.718  20.466  0.00  0.00    +0.000 C 
ATOM     16  C   UNL     1       1.972   5.291  20.701  0.00  0.00    +0.000 C 
ATOM     17  C   UNL     1       2.247   4.581  19.382  0.00  0.00    +0.000 C 
ATOM     18  C   UNL     1       3.245   5.379  18.526  0.00  0.00    +0.000 C 
ATOM     19  C   UNL     1       2.656   6.777  18.286  0.00  0.00    +0.000 C 
BRANCH  18  20
ATOM     20  C   UNL     1       4.663   5.411  19.145  0.00  0.00    +0.000 C 
BRANCH  20  21
ATOM     21  N   UNL     1       5.699   4.706  18.369  0.00  0.00    +0.000 NA
ATOM     22  C   UNL     1       7.072   5.215  18.549  0.00  0.00    +0.000 C 
ATOM     23  C   UNL     1       7.345   6.539  17.822  0.00  0.00    +0.000 C 
ATOM     24  O   UNL     1       7.098   6.406  16.417  0.00  0.00    +0.000 OA
ATOM     25  C   UNL     1       5.741   6.007  16.183  0.00  0.00    +0.000 C 
ATOM     26  C   UNL     1       5.384   4.703  16.922  0.00  0.00    +0.000 C 
ENDBRANCH  20  21
ENDBRANCH  18  20
ENDBRANCH   1  14
TORSDOF 4
ENDMDL
MODEL 6
REMARK VINA RESULT:      -7.6      2.534      3.557
REMARK  Name = 
REMARK  4 active torsions:
REMARK  status: ('A' for Active; 'I' for Inactive)
REMARK    1  A    between atoms: C_4  and  C_5
REMARK    2  A    between atoms: C_5  and  N_6
REMARK    3  A    between atoms: C_10  and  C_11
REMARK    4  A    between atoms: C_11  and  N_12
REMARK                            x       y       z     vdW  Elec       q    Type
REMARK                         _______ _______ _______ _____ _____    ______ ____
ROOT
ATOM      1  C   UNL     1       1.748   8.774  19.090  0.00  0.00    +0.000 C 
ENDROOT
BRANCH   1   5
ATOM      2  O   UNL     1       0.598   9.410  23.737  0.00  0.00    +0.000 OA
ATOM      3  C   UNL     1       0.391   9.739  22.569  0.00  0.00    +0.000 A 
ATOM      4  C   UNL     1       1.185   9.102  21.503  0.00  0.00    +0.000 A 
ATOM      5  C   UNL     1       0.985   9.466  20.230  0.00  0.00    +0.000 A 
ATOM      6  N   UNL     1       0.083  10.443  19.878  0.00  0.00    +0.000 NA
ATOM      7  C   UNL     1      -0.655  10.961  20.801  0.00  0.00    +0.000 A 
ATOM      8  C   UNL     1      -1.704  11.950  20.409  0.00  0.00    +0.000 A 
ATOM      9  C   UNL     1      -2.502  12.488  21.340  0.00  0.00    +0.000 A 
ATOM     10  C   UNL     1      -2.330  12.146  22.728  0.00  0.00    +0.000 A 
ATOM     11 CL   UNL     1      -3.362  12.877  23.893  0.00  0.00    +0.000 Cl
ATOM     12  C   UNL     1      -1.387  11.267  23.088  0.00  0.00    +0.000 A 
ATOM     13  N   UNL     1      -0.556  10.657  22.150  0.00  0.00    +0.000 N 
ENDBRANCH   1   5
BRANCH   1  14
ATOM     14  N   UNL     1       2.331   7.440  19.364  0.00  0.00    +0.000 NA
ATOM     15  C   UNL     1       1.614   6.738  20.432  0.00  0.00    +0.000 C 
ATOM     16  C   UNL     1       2.037   5.282  20.639  0.00  0.00    +0.000 C 
ATOM     17  C   UNL     1       2.098   4.533  19.315  0.00  0.00    +0.000 C 
ATOM     18  C   UNL     1       3.038   5.240  18.325  0.00  0.00    +0.000 C 
ATOM     19  C   UNL     1       2.526   6.674  18.123  0.00  0.00    +0.000 C 
BRANCH  18  20
ATOM     20  C   UNL     1       4.520   5.177  18.767  0.00  0.00    +0.000 C 
BRANCH  20  21
ATOM     21  N   UNL     1       5.444   6.007  17.973  0.00  0.00    +0.000 NA
ATOM     22  C   UNL     1       5.530   5.655  16.543  0.00  0.00    +0.000 C 
ATOM     23  C   UNL     1       6.341   4.382  16.264  0.00  0.00    +0.000 C 
ATOM     24  O   UNL     1       7.673   4.507  16.775  0.00  0.00    +0.000 OA
ATOM     25  C   UNL     1       7.647   4.752  18.187  0.00  0.00    +0.000 C 
ATOM     26  C   UNL     1       6.810   5.996  18.544  0.00  0.00    +0.000 C 
ENDBRANCH  20  21
ENDBRANCH  18  20
ENDBRANCH   1  14
TORSDOF 4
ENDMDL
MODEL 7
REMARK VINA RESULT:      -7.6      0.824      1.253
REMARK  Name = 
REMARK  4 active torsions:
REMARK  status: ('A' for Active; 'I' for Inactive)
REMARK    1  A    between atoms: C_4  and  C_5
REMARK    2  A    between atoms: C_5  and  N_6
REMARK    3  A    between atoms: C_10  and  C_11
REMARK    4  A    between atoms: C_11  and  N_12
REMARK                            x       y       z     vdW  Elec       q    Type
REMARK                         _______ _______ _______ _____ _____    ______ ____
ROOT
ATOM      1  C   UNL     1       2.194   5.654  20.400  0.00  0.00    +0.000 C 
ENDROOT
BRANCH   1   5
ATOM      2  O   UNL     1       2.067   9.465  17.436  0.00  0.00    +0.000 OA
ATOM      3  C   UNL     1       1.772   9.006  18.540  0.00  0.00    +0.000 A 
ATOM      4  C   UNL     1       2.121   7.606  18.841  0.00  0.00    +0.000 A 
ATOM      5  C   UNL     1       1.785   7.088  20.029  0.00  0.00    +0.000 A 
ATOM      6  N   UNL     1       1.093   7.807  20.975  0.00  0.00    +0.000 NA
ATOM      7  C   UNL     1       0.838   9.050  20.740  0.00  0.00    +0.000 A 
ATOM      8  C   UNL     1       0.176   9.860  21.806  0.00  0.00    +0.000 A 
ATOM      9  C   UNL     1      -0.082  11.158  21.601  0.00  0.00    +0.000 A 
ATOM     10  C   UNL     1       0.243  11.772  20.340  0.00  0.00    +0.000 A 
ATOM     11 CL   UNL     1      -0.124  13.436  20.112  0.00  0.00    +0.000 Cl
ATOM     12  C   UNL     1       0.830  11.050  19.377  0.00  0.00    +0.000 A 
ATOM     13  N   UNL     1       1.147   9.705  19.558  0.00  0.00    +0.000 N 
ENDBRANCH   1   5
BRANCH   1  14
ATOM     14  N   UNL     1       3.030   4.905  19.432  0.00  0.00    +0.000 NA
ATOM     15  C   UNL     1       3.707   3.768  20.061  0.00  0.00    +0.000 C 
ATOM     16  C   UNL     1       4.435   2.837  19.088  0.00  0.00    +0.000 C 
ATOM     17  C   UNL     1       3.547   2.475  17.905  0.00  0.00    +0.000 C 
ATOM     18  C   UNL     1       3.048   3.738  17.184  0.00  0.00    +0.000 C 
ATOM     19  C   UNL     1       2.284   4.598  18.204  0.00  0.00    +0.000 C 
BRANCH  18  20
ATOM     20  C   UNL     1       4.189   4.504  16.472  0.00  0.00    +0.000 C 
BRANCH  20  21
ATOM     21  N   UNL     1       5.519   3.877  16.574  0.00  0.00    +0.000 NA
ATOM     22  C   UNL     1       6.525   4.660  17.317  0.00  0.00    +0.000 C 
ATOM     23  C   UNL     1       7.084   5.856  16.535  0.00  0.00    +0.000 C 
ATOM     24  O   UNL     1       7.673   5.426  15.303  0.00  0.00    +0.000 OA
ATOM     25  C   UNL     1       6.705   4.743  14.496  0.00  0.00    +0.000 C 
ATOM     26  C   UNL     1       6.069   3.552  15.238  0.00  0.00    +0.000 C 
ENDBRANCH  20  21
ENDBRANCH  18  20
ENDBRANCH   1  14
TORSDOF 4
ENDMDL
MODEL 8
REMARK VINA RESULT:      -7.6      2.046      3.069
REMARK  Name = 
REMARK  4 active torsions:
REMARK  status: ('A' for Active; 'I' for Inactive)
REMARK    1  A    between atoms: C_4  and  C_5
REMARK    2  A    between atoms: C_5  and  N_6
REMARK    3  A    between atoms: C_10  and  C_11
REMARK    4  A    between atoms: C_11  and  N_12
REMARK                            x       y       z     vdW  Elec       q    Type
REMARK                         _______ _______ _______ _____ _____    ______ ____
ROOT
ATOM      1  C   UNL     1       1.935   8.163  18.065  0.00  0.00    +0.000 C 
ENDROOT
BRANCH   1   5
ATOM      2  O   UNL     1       1.145  12.865  18.835  0.00  0.00    +0.000 OA
ATOM      3  C   UNL     1       0.993  11.714  19.242  0.00  0.00    +0.000 A 
ATOM      4  C   UNL     1       1.519  10.600  18.432  0.00  0.00    +0.000 A 
ATOM      5  C   UNL     1       1.341   9.342  18.852  0.00  0.00    +0.000 A 
ATOM      6  N   UNL     1       0.653   9.043  20.005  0.00  0.00    +0.000 NA
ATOM      7  C   UNL     1       0.242  10.015  20.748  0.00  0.00    +0.000 A 
ATOM      8  C   UNL     1      -0.417   9.694  22.048  0.00  0.00    +0.000 A 
ATOM      9  C   UNL     1      -0.833  10.681  22.852  0.00  0.00    +0.000 A 
ATOM     10  C   UNL     1      -0.682  12.056  22.452  0.00  0.00    +0.000 A 
ATOM     11 CL   UNL     1      -1.249  13.291  23.505  0.00  0.00    +0.000 Cl
ATOM     12  C   UNL     1      -0.099  12.351  21.284  0.00  0.00    +0.000 A 
ATOM     13  N   UNL     1       0.379  11.358  20.430  0.00  0.00    +0.000 N 
ENDBRANCH   1   5
BRANCH   1  14
ATOM     14  N   UNL     1       2.691   7.141  18.827  0.00  0.00    +0.000 NA
ATOM     15  C   UNL     1       1.868   6.515  19.866  0.00  0.00    +0.000 C 
ATOM     16  C   UNL     1       2.520   5.318  20.564  0.00  0.00    +0.000 C 
ATOM     17  C   UNL     1       3.115   4.348  19.552  0.00  0.00    +0.000 C 
ATOM     18  C   UNL     1       4.121   5.059  18.634  0.00  0.00    +0.000 C 
ATOM     19  C   UNL     1       3.390   6.211  17.927  0.00  0.00    +0.000 C 
BRANCH  18  20
ATOM     20  C   UNL     1       5.394   5.515  19.389  0.00  0.00    +0.000 C 
BRANCH  20  21
ATOM     21  N   UNL     1       6.661   4.997  18.844  0.00  0.00    +0.000 NA
ATOM     22  C   UNL     1       7.801   5.932  18.911  0.00  0.00    +0.000 C 
ATOM     23  C   UNL     1       7.745   7.057  17.869  0.00  0.00    +0.000 C 
ATOM     24  O   UNL     1       7.686   6.518  16.543  0.00  0.00    +0.000 OA
ATOM     25  C   UNL     1       6.535   5.676  16.395  0.00  0.00    +0.000 C 
ATOM     26  C   UNL     1       6.505   4.546  17.442  0.00  0.00    +0.000 C 
ENDBRANCH  20  21
ENDBRANCH  18  20
ENDBRANCH   1  14
TORSDOF 4
ENDMDL
MODEL 9
REMARK VINA RESULT:      -7.5      1.667      2.257
REMARK  Name = 
REMARK  4 active torsions:
REMARK  status: ('A' for Active; 'I' for Inactive)
REMARK    1  A    between atoms: C_4  and  C_5
REMARK    2  A    between atoms: C_5  and  N_6
REMARK    3  A    between atoms: C_10  and  C_11
REMARK    4  A    between atoms: C_11  and  N_12
REMARK                            x       y       z     vdW  Elec       q    Type
REMARK                         _______ _______ _______ _____ _____    ______ ____
ROOT
ATOM      1  C   UNL     1       1.679   4.891  20.561  0.00  0.00    +0.000 C 
ENDROOT
BRANCH   1   5
ATOM      2  O   UNL     1       0.306   9.197  22.262  0.00  0.00    +0.000 OA
ATOM      3  C   UNL     1       0.817   8.570  21.335  0.00  0.00    +0.000 A 
ATOM      4  C   UNL     1       0.980   7.111  21.471  0.00  0.00    +0.000 A 
ATOM      5  C   UNL     1       1.555   6.420  20.479  0.00  0.00    +0.000 A 
ATOM      6  N   UNL     1       2.033   7.027  19.341  0.00  0.00    +0.000 NA
ATOM      7  C   UNL     1       1.840   8.294  19.191  0.00  0.00    +0.000 A 
ATOM      8  C   UNL     1       2.268   8.938  17.914  0.00  0.00    +0.000 A 
ATOM      9  C   UNL     1       2.060  10.247  17.718  0.00  0.00    +0.000 A 
ATOM     10  C   UNL     1       1.457  11.048  18.751  0.00  0.00    +0.000 A 
ATOM     11 CL   UNL     1       1.229  12.728  18.466  0.00  0.00    +0.000 Cl
ATOM     12  C   UNL     1       1.078  10.479  19.902  0.00  0.00    +0.000 A 
ATOM     13  N   UNL     1       1.244   9.115  20.137  0.00  0.00    +0.000 N 
ENDBRANCH   1   5
BRANCH   1  14
ATOM     14  N   UNL     1       2.761   4.246  19.779  0.00  0.00    +0.000 NA
ATOM     15  C   UNL     1       3.117   2.931  20.320  0.00  0.00    +0.000 C 
ATOM     16  C   UNL     1       4.089   2.124  19.456  0.00  0.00    +0.000 C 
ATOM     17  C   UNL     1       3.650   2.115  17.998  0.00  0.00    +0.000 C 
ATOM     18  C   UNL     1       3.499   3.547  17.459  0.00  0.00    +0.000 C 
ATOM     19  C   UNL     1       2.474   4.281  18.338  0.00  0.00    +0.000 C 
BRANCH  18  20
ATOM     20  C   UNL     1       4.855   4.287  17.355  0.00  0.00    +0.000 C 
BRANCH  20  21
ATOM     21  N   UNL     1       4.960   5.513  18.166  0.00  0.00    +0.000 NA
ATOM     22  C   UNL     1       5.265   6.742  17.408  0.00  0.00    +0.000 C 
ATOM     23  C   UNL     1       6.728   6.847  16.955  0.00  0.00    +0.000 C 
ATOM     24  O   UNL     1       7.613   6.783  18.079  0.00  0.00    +0.000 OA
ATOM     25  C   UNL     1       7.425   5.556  18.796  0.00  0.00    +0.000 C 
ATOM     26  C   UNL     1       5.964   5.365  19.245  0.00  0.00    +0.000 C 
ENDBRANCH  20  21
ENDBRANCH  18  20
ENDBRANCH   1  14
TORSDOF 4
ENDMDL
