MODEL 1
REMARK VINA RESULT:      -7.3      0.000      0.000
REMARK  Name = 
REMARK  14 active torsions:
REMARK  status: ('A' for Active; 'I' for Inactive)
REMARK    1  A    between atoms: C_1  and  C_2
REMARK    2  A    between atoms: C_2  and  C_3
REMARK    3  A    between atoms: C_3  and  O_4
REMARK    4  A    between atoms: O_4  and  P_5
REMARK    5  A    between atoms: P_5  and  O_7
REMARK    6  A    between atoms: P_5  and  O_8
REMARK    7  A    between atoms: O_8  and  P_9
REMARK    8  A    between atoms: P_9  and  O_11
REMARK    9  A    between atoms: P_9  and  O_12
REMARK   10  A    between atoms: O_12  and  P_13
REMARK   11  A    between atoms: P_13  and  O_15
REMARK   12  A    between atoms: P_13  and  O_16
REMARK   13  A    between atoms: C_18  and  N_19
REMARK   14  A    between atoms: C_29  and  O_30
REMARK                            x       y       z     vdW  Elec       q    Type
REMARK                         _______ _______ _______ _____ _____    ______ ____
ROOT
ATOM      1  C   UNL     1       2.995   2.811  21.507  0.00  0.00    +0.000 C 
ATOM      2  C   UNL     1       3.034   3.211  20.016  0.00  0.00    +0.000 C 
ATOM      3  O   UNL     1       3.418   4.595  19.911  0.00  0.00    +0.000 OA
ATOM      4  C   UNL     1       2.209   5.363  20.105  0.00  0.00    +0.000 C 
ATOM      5  C   UNL     1       1.049   4.506  19.582  0.00  0.00    +0.000 C 
ATOM      6  F   UNL     1       0.079   4.390  20.533  0.00  0.00    +0.000 F 
ATOM      7  C   UNL     1       1.659   3.135  19.341  0.00  0.00    +0.000 C 
ENDROOT
BRANCH   4   8
ATOM      8  N   UNL     1       2.280   6.675  19.498  0.00  0.00    +0.000 N 
ATOM      9  C   UNL     1       2.808   6.850  18.234  0.00  0.00    +0.000 A 
ATOM     10  C   UNL     1       2.787   8.045  17.643  0.00  0.00    +0.000 A 
ATOM     11  C   UNL     1       2.135   9.127  18.407  0.00  0.00    +0.000 A 
ATOM     12  N   UNL     1       2.047  10.382  17.873  0.00  0.00    +0.000 N 
ATOM     13  N   UNL     1       1.630   8.954  19.591  0.00  0.00    +0.000 NA
ATOM     14  C   UNL     1       1.667   7.717  20.180  0.00  0.00    +0.000 A 
ATOM     15  O   UNL     1       1.167   7.533  21.286  0.00  0.00    +0.000 OA
ATOM     16  H   UNL     1       2.788  10.679  17.251  0.00  0.00    +0.000 HD
ATOM     17  H   UNL     1       1.794  11.076  18.563  0.00  0.00    +0.000 HD
ENDBRANCH   4   8
BRANCH   7  18
ATOM     18  O   UNL     1       0.833   2.086  19.838  0.00  0.00    +0.000 OA
ATOM     19  H   UNL     1       0.797   2.183  20.812  0.00  0.00    +0.000 HD
ENDBRANCH   7  18
BRANCH   2  20
ATOM     20  C   UNL     1       4.075   2.314  19.333  0.00  0.00    +0.000 C 
BRANCH  20  21
ATOM     21  O   UNL     1       3.812   2.062  17.941  0.00  0.00    +0.000 OA
BRANCH  21  22
ATOM     22  P   UNL     1       4.721   3.025  16.828  0.00  0.00    +0.000 P 
ATOM     23  O   UNL     1       3.561   4.000  16.633  0.00  0.00    +0.000 OA
BRANCH  22  24
ATOM     24  O   UNL     1       5.542   3.531  18.139  0.00  0.00    +0.000 OA
ATOM     25  H   UNL     1       5.756   2.846  18.804  0.00  0.00    +0.000 HD
ENDBRANCH  22  24
BRANCH  22  26
ATOM     26  O   UNL     1       5.629   3.989  15.715  0.00  0.00    +0.000 OA
BRANCH  26  27
ATOM     27  P   UNL     1       6.438   5.254  16.575  0.00  0.00    +0.000 P 
ATOM     28  O   UNL     1       7.690   5.040  15.721  0.00  0.00    +0.000 OA
BRANCH  27  29
ATOM     29  O   UNL     1       5.512   6.342  15.785  0.00  0.00    +0.000 OA
ATOM     30  H   UNL     1       5.852   7.241  15.930  0.00  0.00    +0.000 HD
ENDBRANCH  27  29
BRANCH  27  31
ATOM     31  O   UNL     1       7.247   6.518  17.435  0.00  0.00    +0.000 OA
BRANCH  31  32
ATOM     32  P   UNL     1       7.782   5.923  18.968  0.00  0.00    +0.000 P 
ATOM     33  O   UNL     1       6.358   5.744  19.484  0.00  0.00    +0.000 OA
BRANCH  32  34
ATOM     34  O   UNL     1       8.150   4.469  18.335  0.00  0.00    +0.000 OA
ATOM     35  H   UNL     1       7.497   3.821  18.675  0.00  0.00    +0.000 HD
ENDBRANCH  32  34
BRANCH  32  36
ATOM     36  O   UNL     1       8.319   5.327  20.501  0.00  0.00    +0.000 OA
ATOM     37  H   UNL     1       7.996   6.013  21.126  0.00  0.00    +0.000 HD
ENDBRANCH  32  36
ENDBRANCH  31  32
ENDBRANCH  27  31
ENDBRANCH  26  27
ENDBRANCH  22  26
ENDBRANCH  21  22
ENDBRANCH  20  21
ENDBRANCH   2  20
TORSDOF 13
ENDMDL
MODEL 2
REMARK VINA RESULT:      -6.6      1.863      3.357
REMARK  Name = 
REMARK  14 active torsions:
REMARK  status: ('A' for Active; 'I' for Inactive)
REMARK    1  A    between atoms: C_1  and  C_2
REMARK    2  A    between atoms: C_2  and  C_3
REMARK    3  A    between atoms: C_3  and  O_4
REMARK    4  A    between atoms: O_4  and  P_5
REMARK    5  A    between atoms: P_5  and  O_7
REMARK    6  A    between atoms: P_5  and  O_8
REMARK    7  A    between atoms: O_8  and  P_9
REMARK    8  A    between atoms: P_9  and  O_11
REMARK    9  A    between atoms: P_9  and  O_12
REMARK   10  A    between atoms: O_12  and  P_13
REMARK   11  A    between atoms: P_13  and  O_15
REMARK   12  A    between atoms: P_13  and  O_16
REMARK   13  A    between atoms: C_18  and  N_19
REMARK   14  A    between atoms: C_29  and  O_30
REMARK                            x       y       z     vdW  Elec       q    Type
REMARK                         _______ _______ _______ _____ _____    ______ ____
ROOT
ATOM      1  C   UNL     1       3.445   2.991  20.866  0.00  0.00    +0.000 C 
ATOM      2  C   UNL     1       3.691   3.692  19.512  0.00  0.00    +0.000 C 
ATOM      3  O   UNL     1       3.699   5.118  19.716  0.00  0.00    +0.000 OA
ATOM      4  C   UNL     1       2.315   5.533  19.703  0.00  0.00    +0.000 C 
ATOM      5  C   UNL     1       1.568   4.565  18.777  0.00  0.00    +0.000 C 
ATOM      6  F   UNL     1       0.488   4.036  19.417  0.00  0.00    +0.000 F 
ATOM      7  C   UNL     1       2.562   3.450  18.501  0.00  0.00    +0.000 C 
ENDROOT
BRANCH   4   8
ATOM      8  N   UNL     1       2.157   6.925  19.337  0.00  0.00    +0.000 N 
ATOM      9  C   UNL     1       2.506   7.378  18.080  0.00  0.00    +0.000 A 
ATOM     10  C   UNL     1       2.273   8.640  17.717  0.00  0.00    +0.000 A 
ATOM     11  C   UNL     1       1.592   9.480  18.722  0.00  0.00    +0.000 A 
ATOM     12  N   UNL     1       1.292  10.781  18.432  0.00  0.00    +0.000 N 
ATOM     13  N   UNL     1       1.255   9.046  19.899  0.00  0.00    +0.000 NA
ATOM     14  C   UNL     1       1.509   7.746  20.251  0.00  0.00    +0.000 A 
ATOM     15  O   UNL     1       1.171   7.314  21.349  0.00  0.00    +0.000 OA
ATOM     16  H   UNL     1       1.913  11.276  17.805  0.00  0.00    +0.000 HD
ATOM     17  H   UNL     1       1.041  11.310  19.257  0.00  0.00    +0.000 HD
ENDBRANCH   4   8
BRANCH   7  18
ATOM     18  O   UNL     1       1.965   2.160  18.606  0.00  0.00    +0.000 OA
ATOM     19  H   UNL     1       1.995   1.904  19.551  0.00  0.00    +0.000 HD
ENDBRANCH   7  18
BRANCH   2  20
ATOM     20  C   UNL     1       5.055   3.217  18.995  0.00  0.00    +0.000 C 
BRANCH  20  21
ATOM     21  O   UNL     1       6.123   4.159  19.199  0.00  0.00    +0.000 OA
BRANCH  21  22
ATOM     22  P   UNL     1       6.855   4.775  17.758  0.00  0.00    +0.000 P 
ATOM     23  O   UNL     1       5.992   3.882  16.868  0.00  0.00    +0.000 OA
BRANCH  22  24
ATOM     24  O   UNL     1       5.987   6.121  18.050  0.00  0.00    +0.000 OA
ATOM     25  H   UNL     1       6.218   6.906  17.513  0.00  0.00    +0.000 HD
ENDBRANCH  22  24
BRANCH  22  26
ATOM     26  O   UNL     1       7.585   5.391  16.316  0.00  0.00    +0.000 OA
BRANCH  26  27
ATOM     27  P   UNL     1       6.565   5.050  14.962  0.00  0.00    +0.000 P 
ATOM     28  O   UNL     1       5.785   6.341  15.218  0.00  0.00    +0.000 OA
BRANCH  27  29
ATOM     29  O   UNL     1       7.802   5.437  13.969  0.00  0.00    +0.000 OA
ATOM     30  H   UNL     1       8.576   4.883  14.166  0.00  0.00    +0.000 HD
ENDBRANCH  27  29
BRANCH  27  31
ATOM     31  O   UNL     1       5.544   4.708  13.607  0.00  0.00    +0.000 OA
BRANCH  31  32
ATOM     32  P   UNL     1       6.203   3.387  12.707  0.00  0.00    +0.000 P 
ATOM     33  O   UNL     1       4.898   3.148  11.952  0.00  0.00    +0.000 OA
BRANCH  32  34
ATOM     34  O   UNL     1       7.035   4.394  11.735  0.00  0.00    +0.000 OA
ATOM     35  H   UNL     1       7.974   4.110  11.745  0.00  0.00    +0.000 HD
ENDBRANCH  32  34
BRANCH  32  36
ATOM     36  O   UNL     1       6.862   2.064  11.807  0.00  0.00    +0.000 OA
ATOM     37  H   UNL     1       6.204   1.938  11.090  0.00  0.00    +0.000 HD
ENDBRANCH  32  36
ENDBRANCH  31  32
ENDBRANCH  27  31
ENDBRANCH  26  27
ENDBRANCH  22  26
ENDBRANCH  21  22
ENDBRANCH  20  21
ENDBRANCH   2  20
TORSDOF 13
ENDMDL
MODEL 3
REMARK VINA RESULT:      -6.1      2.069      3.724
REMARK  Name = 
REMARK  14 active torsions:
REMARK  status: ('A' for Active; 'I' for Inactive)
REMARK    1  A    between atoms: C_1  and  C_2
REMARK    2  A    between atoms: C_2  and  C_3
REMARK    3  A    between atoms: C_3  and  O_4
REMARK    4  A    between atoms: O_4  and  P_5
REMARK    5  A    between atoms: P_5  and  O_7
REMARK    6  A    between atoms: P_5  and  O_8
REMARK    7  A    between atoms: O_8  and  P_9
REMARK    8  A    between atoms: P_9  and  O_11
REMARK    9  A    between atoms: P_9  and  O_12
REMARK   10  A    between atoms: O_12  and  P_13
REMARK   11  A    between atoms: P_13  and  O_15
REMARK   12  A    between atoms: P_13  and  O_16
REMARK   13  A    between atoms: C_18  and  N_19
REMARK   14  A    between atoms: C_29  and  O_30
REMARK                            x       y       z     vdW  Elec       q    Type
REMARK                         _______ _______ _______ _____ _____    ______ ____
ROOT
ATOM      1  C   UNL     1       3.610   3.331  20.349  0.00  0.00    +0.000 C 
ATOM      2  C   UNL     1       4.142   4.295  19.267  0.00  0.00    +0.000 C 
ATOM      3  O   UNL     1       3.847   5.650  19.659  0.00  0.00    +0.000 OA
ATOM      4  C   UNL     1       2.487   5.901  19.243  0.00  0.00    +0.000 C 
ATOM      5  C   UNL     1       2.237   5.045  17.995  0.00  0.00    +0.000 C 
ATOM      6  F   UNL     1       1.116   4.288  18.157  0.00  0.00    +0.000 F 
ATOM      7  C   UNL     1       3.440   4.121  17.914  0.00  0.00    +0.000 C 
ENDROOT
BRANCH   4   8
ATOM      8  N   UNL     1       2.219   7.310  19.043  0.00  0.00    +0.000 N 
ATOM      9  C   UNL     1       2.484   7.924  17.835  0.00  0.00    +0.000 A 
ATOM     10  C   UNL     1       2.150   9.198  17.626  0.00  0.00    +0.000 A 
ATOM     11  C   UNL     1       1.456   9.870  18.742  0.00  0.00    +0.000 A 
ATOM     12  N   UNL     1       1.056  11.170  18.613  0.00  0.00    +0.000 N 
ATOM     13  N   UNL     1       1.199   9.284  19.872  0.00  0.00    +0.000 NA
ATOM     14  C   UNL     1       1.555   7.975  20.065  0.00  0.00    +0.000 A 
ATOM     15  O   UNL     1       1.293   7.401  21.118  0.00  0.00    +0.000 OA
ATOM     16  H   UNL     1       1.616  11.775  18.025  0.00  0.00    +0.000 HD
ATOM     17  H   UNL     1       0.805  11.584  19.500  0.00  0.00    +0.000 HD
ENDBRANCH   4   8
BRANCH   7  18
ATOM     18  O   UNL     1       3.065   2.775  17.633  0.00  0.00    +0.000 OA
ATOM     19  H   UNL     1       3.889   2.276  17.456  0.00  0.00    +0.000 HD
ENDBRANCH   7  18
BRANCH   2  20
ATOM     20  C   UNL     1       5.659   4.083  19.175  0.00  0.00    +0.000 C 
BRANCH  20  21
ATOM     21  O   UNL     1       6.388   5.235  18.716  0.00  0.00    +0.000 OA
BRANCH  21  22
ATOM     22  P   UNL     1       7.036   5.115  17.117  0.00  0.00    +0.000 P 
ATOM     23  O   UNL     1       7.681   6.497  17.210  0.00  0.00    +0.000 OA
BRANCH  22  24
ATOM     24  O   UNL     1       8.094   4.062  17.765  0.00  0.00    +0.000 OA
ATOM     25  H   UNL     1       8.939   3.950  17.285  0.00  0.00    +0.000 HD
ENDBRANCH  22  24
BRANCH  22  26
ATOM     26  O   UNL     1       7.685   4.996  15.517  0.00  0.00    +0.000 OA
BRANCH  26  27
ATOM     27  P   UNL     1       6.420   4.588  14.411  0.00  0.00    +0.000 P 
ATOM     28  O   UNL     1       5.955   3.470  15.347  0.00  0.00    +0.000 OA
BRANCH  27  29
ATOM     29  O   UNL     1       5.627   5.941  14.865  0.00  0.00    +0.000 OA
ATOM     30  H   UNL     1       5.036   5.749  15.612  0.00  0.00    +0.000 HD
ENDBRANCH  27  29
BRANCH  27  31
ATOM     31  O   UNL     1       5.154   4.179  13.304  0.00  0.00    +0.000 OA
BRANCH  31  32
ATOM     32  P   UNL     1       5.801   3.225  12.015  0.00  0.00    +0.000 P 
ATOM     33  O   UNL     1       7.123   3.986  12.010  0.00  0.00    +0.000 OA
BRANCH  32  34
ATOM     34  O   UNL     1       6.080   1.969  13.013  0.00  0.00    +0.000 OA
ATOM     35  H   UNL     1       7.036   1.971  13.235  0.00  0.00    +0.000 HD
ENDBRANCH  32  34
BRANCH  32  36
ATOM     36  O   UNL     1       6.448   2.270  10.725  0.00  0.00    +0.000 OA
ATOM     37  H   UNL     1       5.863   1.481  10.724  0.00  0.00    +0.000 HD
ENDBRANCH  32  36
ENDBRANCH  31  32
ENDBRANCH  27  31
ENDBRANCH  26  27
ENDBRANCH  22  26
ENDBRANCH  21  22
ENDBRANCH  20  21
ENDBRANCH   2  20
TORSDOF 13
ENDMDL
MODEL 4
REMARK VINA RESULT:      -6.1      4.552      6.609
REMARK  Name = 
REMARK  14 active torsions:
REMARK  status: ('A' for Active; 'I' for Inactive)
REMARK    1  A    between atoms: C_1  and  C_2
REMARK    2  A    between atoms: C_2  and  C_3
REMARK    3  A    between atoms: C_3  and  O_4
REMARK    4  A    between atoms: O_4  and  P_5
REMARK    5  A    between atoms: P_5  and  O_7
REMARK    6  A    between atoms: P_5  and  O_8
REMARK    7  A    between atoms: O_8  and  P_9
REMARK    8  A    between atoms: P_9  and  O_11
REMARK    9  A    between atoms: P_9  and  O_12
REMARK   10  A    between atoms: O_12  and  P_13
REMARK   11  A    between atoms: P_13  and  O_15
REMARK   12  A    between atoms: P_13  and  O_16
REMARK   13  A    between atoms: C_18  and  N_19
REMARK   14  A    between atoms: C_29  and  O_30
REMARK                            x       y       z     vdW  Elec       q    Type
REMARK                         _______ _______ _______ _____ _____    ______ ____
ROOT
ATOM      1  C   UNL     1       1.780  11.022  18.339  0.00  0.00    +0.000 C 
ATOM      2  C   UNL     1       0.659  10.381  19.185  0.00  0.00    +0.000 C 
ATOM      3  O   UNL     1      -0.558  10.362  18.414  0.00  0.00    +0.000 OA
ATOM      4  C   UNL     1      -1.156  11.667  18.575  0.00  0.00    +0.000 C 
ATOM      5  C   UNL     1      -0.749  12.175  19.965  0.00  0.00    +0.000 C 
ATOM      6  F   UNL     1      -0.189  13.414  19.871  0.00  0.00    +0.000 F 
ATOM      7  C   UNL     1       0.314  11.197  20.437  0.00  0.00    +0.000 C 
ENDROOT
BRANCH   4   8
ATOM      8  N   UNL     1      -2.587  11.653  18.360  0.00  0.00    +0.000 N 
ATOM      9  C   UNL     1      -3.465  12.021  19.361  0.00  0.00    +0.000 A 
ATOM     10  C   UNL     1      -4.776  12.094  19.130  0.00  0.00    +0.000 A 
ATOM     11  C   UNL     1      -5.200  11.802  17.747  0.00  0.00    +0.000 A 
ATOM     12  N   UNL     1      -6.523  11.873  17.409  0.00  0.00    +0.000 N 
ATOM     13  N   UNL     1      -4.369  11.467  16.806  0.00  0.00    +0.000 NA
ATOM     14  C   UNL     1      -3.027  11.394  17.069  0.00  0.00    +0.000 A 
ATOM     15  O   UNL     1      -2.227  11.108  16.182  0.00  0.00    +0.000 OA
ATOM     16  H   UNL     1      -7.201  11.647  18.126  0.00  0.00    +0.000 HD
ATOM     17  H   UNL     1      -6.715  11.438  16.517  0.00  0.00    +0.000 HD
ENDBRANCH   4   8
BRANCH   7  18
ATOM     18  O   UNL     1       1.434  11.860  21.016  0.00  0.00    +0.000 OA
ATOM     19  H   UNL     1       1.465  11.605  21.961  0.00  0.00    +0.000 HD
ENDBRANCH   7  18
BRANCH   2  20
ATOM     20  C   UNL     1       1.103   8.950  19.519  0.00  0.00    +0.000 C 
BRANCH  20  21
ATOM     21  O   UNL     1       2.319   8.544  18.866  0.00  0.00    +0.000 OA
BRANCH  21  22
ATOM     22  P   UNL     1       2.419   6.866  18.462  0.00  0.00    +0.000 P 
ATOM     23  O   UNL     1       3.764   7.053  17.761  0.00  0.00    +0.000 OA
BRANCH  22  24
ATOM     24  O   UNL     1       2.743   6.639  20.041  0.00  0.00    +0.000 OA
ATOM     25  H   UNL     1       3.149   5.781  20.278  0.00  0.00    +0.000 HD
ENDBRANCH  22  24
BRANCH  22  26
ATOM     26  O   UNL     1       2.521   5.186  18.057  0.00  0.00    +0.000 OA
BRANCH  26  27
ATOM     27  P   UNL     1       4.177   4.688  18.075  0.00  0.00    +0.000 P 
ATOM     28  O   UNL     1       4.040   4.268  19.540  0.00  0.00    +0.000 OA
BRANCH  27  29
ATOM     29  O   UNL     1       3.766   3.390  17.174  0.00  0.00    +0.000 OA
ATOM     30  H   UNL     1       3.887   2.573  17.687  0.00  0.00    +0.000 HD
ENDBRANCH  27  29
BRANCH  27  31
ATOM     31  O   UNL     1       5.834   4.190  18.093  0.00  0.00    +0.000 OA
BRANCH  31  32
ATOM     32  P   UNL     1       6.626   4.769  16.668  0.00  0.00    +0.000 P 
ATOM     33  O   UNL     1       8.014   4.456  17.218  0.00  0.00    +0.000 OA
BRANCH  32  34
ATOM     34  O   UNL     1       6.226   3.427  15.837  0.00  0.00    +0.000 OA
ATOM     35  H   UNL     1       6.839   2.712  16.112  0.00  0.00    +0.000 HD
ENDBRANCH  32  34
BRANCH  32  36
ATOM     36  O   UNL     1       7.417   5.348  15.243  0.00  0.00    +0.000 OA
ATOM     37  H   UNL     1       7.763   6.222  15.526  0.00  0.00    +0.000 HD
ENDBRANCH  32  36
ENDBRANCH  31  32
ENDBRANCH  27  31
ENDBRANCH  26  27
ENDBRANCH  22  26
ENDBRANCH  21  22
ENDBRANCH  20  21
ENDBRANCH   2  20
TORSDOF 13
ENDMDL
MODEL 5
REMARK VINA RESULT:      -6.1      4.913      7.625
REMARK  Name = 
REMARK  14 active torsions:
REMARK  status: ('A' for Active; 'I' for Inactive)
REMARK    1  A    between atoms: C_1  and  C_2
REMARK    2  A    between atoms: C_2  and  C_3
REMARK    3  A    between atoms: C_3  and  O_4
REMARK    4  A    between atoms: O_4  and  P_5
REMARK    5  A    between atoms: P_5  and  O_7
REMARK    6  A    between atoms: P_5  and  O_8
REMARK    7  A    between atoms: O_8  and  P_9
REMARK    8  A    between atoms: P_9  and  O_11
REMARK    9  A    between atoms: P_9  and  O_12
REMARK   10  A    between atoms: O_12  and  P_13
REMARK   11  A    between atoms: P_13  and  O_15
REMARK   12  A    between atoms: P_13  and  O_16
REMARK   13  A    between atoms: C_18  and  N_19
REMARK   14  A    between atoms: C_29  and  O_30
REMARK                            x       y       z     vdW  Elec       q    Type
REMARK                         _______ _______ _______ _____ _____    ______ ____
ROOT
ATOM      1  C   UNL     1       1.363   4.672  18.981  0.00  0.00    +0.000 C 
ATOM      2  C   UNL     1       2.580   5.620  19.013  0.00  0.00    +0.000 C 
ATOM      3  O   UNL     1       3.193   5.641  17.710  0.00  0.00    +0.000 OA
ATOM      4  C   UNL     1       4.066   4.491  17.657  0.00  0.00    +0.000 C 
ATOM      5  C   UNL     1       4.550   4.233  19.090  0.00  0.00    +0.000 C 
ATOM      6  F   UNL     1       4.316   2.938  19.443  0.00  0.00    +0.000 F 
ATOM      7  C   UNL     1       3.689   5.137  19.957  0.00  0.00    +0.000 C 
ENDROOT
BRANCH   4   8
ATOM      8  N   UNL     1       5.141   4.653  16.702  0.00  0.00    +0.000 N 
ATOM      9  C   UNL     1       5.404   3.687  15.750  0.00  0.00    +0.000 A 
ATOM     10  C   UNL     1       6.335   3.881  14.816  0.00  0.00    +0.000 A 
ATOM     11  C   UNL     1       7.014   5.191  14.850  0.00  0.00    +0.000 A 
ATOM     12  N   UNL     1       7.968   5.490  13.919  0.00  0.00    +0.000 N 
ATOM     13  N   UNL     1       6.755   6.101  15.740  0.00  0.00    +0.000 NA
ATOM     14  C   UNL     1       5.797   5.876  16.694  0.00  0.00    +0.000 A 
ATOM     15  O   UNL     1       5.521   6.739  17.524  0.00  0.00    +0.000 OA
ATOM     16  H   UNL     1       8.523   4.725  13.556  0.00  0.00    +0.000 HD
ATOM     17  H   UNL     1       8.513   6.302  14.175  0.00  0.00    +0.000 HD
ENDBRANCH   4   8
BRANCH   7  18
ATOM     18  O   UNL     1       3.203   4.464  21.115  0.00  0.00    +0.000 OA
ATOM     19  H   UNL     1       2.664   5.107  21.619  0.00  0.00    +0.000 HD
ENDBRANCH   7  18
BRANCH   2  20
ATOM     20  C   UNL     1       2.060   7.015  19.384  0.00  0.00    +0.000 C 
BRANCH  20  21
ATOM     21  O   UNL     1       1.411   7.080  20.666  0.00  0.00    +0.000 OA
BRANCH  21  22
ATOM     22  P   UNL     1       1.284   8.662  21.354  0.00  0.00    +0.000 P 
ATOM     23  O   UNL     1       1.321   9.327  19.979  0.00  0.00    +0.000 OA
BRANCH  22  24
ATOM     24  O   UNL     1      -0.269   8.270  21.642  0.00  0.00    +0.000 OA
ATOM     25  H   UNL     1      -0.717   8.778  22.348  0.00  0.00    +0.000 HD
ENDBRANCH  22  24
BRANCH  22  26
ATOM     26  O   UNL     1       1.157  10.245  22.041  0.00  0.00    +0.000 OA
BRANCH  26  27
ATOM     27  P   UNL     1      -0.258  11.029  21.425  0.00  0.00    +0.000 P 
ATOM     28  O   UNL     1      -1.027  10.647  22.692  0.00  0.00    +0.000 OA
BRANCH  27  29
ATOM     29  O   UNL     1       0.449  12.470  21.720  0.00  0.00    +0.000 OA
ATOM     30  H   UNL     1       1.410  12.361  21.813  0.00  0.00    +0.000 HD
ENDBRANCH  27  29
BRANCH  27  31
ATOM     31  O   UNL     1      -1.672  11.812  20.809  0.00  0.00    +0.000 OA
BRANCH  31  32
ATOM     32  P   UNL     1      -1.408  12.267  19.161  0.00  0.00    +0.000 P 
ATOM     33  O   UNL     1      -1.129  13.722  19.525  0.00  0.00    +0.000 OA
BRANCH  32  34
ATOM     34  O   UNL     1       0.068  11.579  19.152  0.00  0.00    +0.000 OA
ATOM     35  H   UNL     1       0.709  12.252  18.837  0.00  0.00    +0.000 HD
ENDBRANCH  32  34
BRANCH  32  36
ATOM     36  O   UNL     1      -1.145  12.721  17.512  0.00  0.00    +0.000 OA
ATOM     37  H   UNL     1      -2.055  12.885  17.183  0.00  0.00    +0.000 HD
ENDBRANCH  32  36
ENDBRANCH  31  32
ENDBRANCH  27  31
ENDBRANCH  26  27
ENDBRANCH  22  26
ENDBRANCH  21  22
ENDBRANCH  20  21
ENDBRANCH   2  20
TORSDOF 13
ENDMDL
MODEL 6
REMARK VINA RESULT:      -6.0      5.050      7.014
REMARK  Name = 
REMARK  14 active torsions:
REMARK  status: ('A' for Active; 'I' for Inactive)
REMARK    1  A    between atoms: C_1  and  C_2
REMARK    2  A    between atoms: C_2  and  C_3
REMARK    3  A    between atoms: C_3  and  O_4
REMARK    4  A    between atoms: O_4  and  P_5
REMARK    5  A    between atoms: P_5  and  O_7
REMARK    6  A    between atoms: P_5  and  O_8
REMARK    7  A    between atoms: O_8  and  P_9
REMARK    8  A    between atoms: P_9  and  O_11
REMARK    9  A    between atoms: P_9  and  O_12
REMARK   10  A    between atoms: O_12  and  P_13
REMARK   11  A    between atoms: P_13  and  O_15
REMARK   12  A    between atoms: P_13  and  O_16
REMARK   13  A    between atoms: C_18  and  N_19
REMARK   14  A    between atoms: C_29  and  O_30
REMARK                            x       y       z     vdW  Elec       q    Type
REMARK                         _______ _______ _______ _____ _____    ______ ____
ROOT
ATOM      1  C   UNL     1       7.533   4.714  16.884  0.00  0.00    +0.000 C 
ATOM      2  C   UNL     1       6.694   5.665  17.764  0.00  0.00    +0.000 C 
ATOM      3  O   UNL     1       6.175   4.929  18.888  0.00  0.00    +0.000 OA
ATOM      4  C   UNL     1       4.976   4.273  18.420  0.00  0.00    +0.000 C 
ATOM      5  C   UNL     1       4.377   5.168  17.327  0.00  0.00    +0.000 C 
ATOM      6  F   UNL     1       4.158   4.447  16.192  0.00  0.00    +0.000 F 
ATOM      7  C   UNL     1       5.451   6.204  17.045  0.00  0.00    +0.000 C 
ENDROOT
BRANCH   4   8
ATOM      8  N   UNL     1       4.053   3.971  19.493  0.00  0.00    +0.000 N 
ATOM      9  C   UNL     1       3.033   4.841  19.826  0.00  0.00    +0.000 A 
ATOM     10  C   UNL     1       2.131   4.517  20.752  0.00  0.00    +0.000 A 
ATOM     11  C   UNL     1       2.277   3.174  21.348  0.00  0.00    +0.000 A 
ATOM     12  N   UNL     1       1.386   2.745  22.291  0.00  0.00    +0.000 N 
ATOM     13  N   UNL     1       3.231   2.355  21.023  0.00  0.00    +0.000 NA
ATOM     14  C   UNL     1       4.150   2.712  20.071  0.00  0.00    +0.000 A 
ATOM     15  O   UNL     1       5.040   1.936  19.733  0.00  0.00    +0.000 OA
ATOM     16  H   UNL     1       0.974   3.443  22.896  0.00  0.00    +0.000 HD
ATOM     17  H   UNL     1       1.713   1.923  22.781  0.00  0.00    +0.000 HD
ENDBRANCH   4   8
BRANCH   7  18
ATOM     18  O   UNL     1       5.642   6.412  15.648  0.00  0.00    +0.000 OA
ATOM     19  H   UNL     1       6.598   6.576  15.508  0.00  0.00    +0.000 HD
ENDBRANCH   7  18
BRANCH   2  20
ATOM     20  C   UNL     1       7.629   6.784  18.243  0.00  0.00    +0.000 C 
BRANCH  20  21
ATOM     21  O   UNL     1       7.267   8.095  17.772  0.00  0.00    +0.000 OA
BRANCH  21  22
ATOM     22  P   UNL     1       8.544   9.261  17.769  0.00  0.00    +0.000 P 
ATOM     23  O   UNL     1       7.565  10.422  17.934  0.00  0.00    +0.000 OA
BRANCH  22  24
ATOM     24  O   UNL     1       8.873   8.711  19.265  0.00  0.00    +0.000 OA
ATOM     25  H   UNL     1       8.105   8.417  19.794  0.00  0.00    +0.000 HD
ENDBRANCH  22  24
BRANCH  22  26
ATOM     26  O   UNL     1       9.821  10.429  17.766  0.00  0.00    +0.000 OA
BRANCH  26  27
ATOM     27  P   UNL     1       9.293  11.862  18.578  0.00  0.00    +0.000 P 
ATOM     28  O   UNL     1      10.149  11.496  19.792  0.00  0.00    +0.000 OA
BRANCH  27  29
ATOM     29  O   UNL     1      10.243  12.740  17.581  0.00  0.00    +0.000 OA
ATOM     30  H   UNL     1      10.483  13.583  18.002  0.00  0.00    +0.000 HD
ENDBRANCH  27  29
BRANCH  27  31
ATOM     31  O   UNL     1       8.765  13.296  19.389  0.00  0.00    +0.000 OA
BRANCH  31  32
ATOM     32  P   UNL     1       8.899  14.648  18.318  0.00  0.00    +0.000 P 
ATOM     33  O   UNL     1       7.731  15.381  18.971  0.00  0.00    +0.000 OA
BRANCH  32  34
ATOM     34  O   UNL     1      10.204  15.214  19.110  0.00  0.00    +0.000 OA
ATOM     35  H   UNL     1      10.802  14.455  19.281  0.00  0.00    +0.000 HD
ENDBRANCH  32  34
BRANCH  32  36
ATOM     36  O   UNL     1       9.033  15.999  17.246  0.00  0.00    +0.000 OA
ATOM     37  H   UNL     1       9.466  15.609  16.456  0.00  0.00    +0.000 HD
ENDBRANCH  32  36
ENDBRANCH  31  32
ENDBRANCH  27  31
ENDBRANCH  26  27
ENDBRANCH  22  26
ENDBRANCH  21  22
ENDBRANCH  20  21
ENDBRANCH   2  20
TORSDOF 13
ENDMDL
MODEL 7
REMARK VINA RESULT:      -6.0      0.843      1.124
REMARK  Name = 
REMARK  14 active torsions:
REMARK  status: ('A' for Active; 'I' for Inactive)
REMARK    1  A    between atoms: C_1  and  C_2
REMARK    2  A    between atoms: C_2  and  C_3
REMARK    3  A    between atoms: C_3  and  O_4
REMARK    4  A    between atoms: O_4  and  P_5
REMARK    5  A    between atoms: P_5  and  O_7
REMARK    6  A    between atoms: P_5  and  O_8
REMARK    7  A    between atoms: O_8  and  P_9
REMARK    8  A    between atoms: P_9  and  O_11
REMARK    9  A    between atoms: P_9  and  O_12
REMARK   10  A    between atoms: O_12  and  P_13
REMARK   11  A    between atoms: P_13  and  O_15
REMARK   12  A    between atoms: P_13  and  O_16
REMARK   13  A    between atoms: C_18  and  N_19
REMARK   14  A    between atoms: C_29  and  O_30
REMARK                            x       y       z     vdW  Elec       q    Type
REMARK                         _______ _______ _______ _____ _____    ______ ____
ROOT
ATOM      1  C   UNL     1       3.522   2.912  20.835  0.00  0.00    +0.000 C 
ATOM      2  C   UNL     1       3.204   3.423  19.413  0.00  0.00    +0.000 C 
ATOM      3  O   UNL     1       3.546   4.820  19.329  0.00  0.00    +0.000 OA
ATOM      4  C   UNL     1       2.415   5.543  19.864  0.00  0.00    +0.000 C 
ATOM      5  C   UNL     1       1.167   4.702  19.565  0.00  0.00    +0.000 C 
ATOM      6  F   UNL     1       0.452   4.493  20.706  0.00  0.00    +0.000 F 
ATOM      7  C   UNL     1       1.708   3.368  19.079  0.00  0.00    +0.000 C 
ENDROOT
BRANCH   4   8
ATOM      8  N   UNL     1       2.335   6.899  19.362  0.00  0.00    +0.000 N 
ATOM      9  C   UNL     1       2.775   7.219  18.093  0.00  0.00    +0.000 A 
ATOM     10  C   UNL     1       2.615   8.448  17.602  0.00  0.00    +0.000 A 
ATOM     11  C   UNL     1       1.911   9.403  18.481  0.00  0.00    +0.000 A 
ATOM     12  N   UNL     1       1.681  10.681  18.055  0.00  0.00    +0.000 N 
ATOM     13  N   UNL     1       1.489   9.093  19.670  0.00  0.00    +0.000 NA
ATOM     14  C   UNL     1       1.669   7.824  20.154  0.00  0.00    +0.000 A 
ATOM     15  O   UNL     1       1.249   7.510  21.265  0.00  0.00    +0.000 OA
ATOM     16  H   UNL     1       2.358  11.092  17.425  0.00  0.00    +0.000 HD
ATOM     17  H   UNL     1       1.405  11.293  18.811  0.00  0.00    +0.000 HD
ENDBRANCH   4   8
BRANCH   7  18
ATOM     18  O   UNL     1       1.028   2.266  19.673  0.00  0.00    +0.000 OA
ATOM     19  H   UNL     1       1.422   2.127  20.559  0.00  0.00    +0.000 HD
ENDBRANCH   7  18
BRANCH   2  20
ATOM     20  C   UNL     1       4.056   2.604  18.434  0.00  0.00    +0.000 C 
BRANCH  20  21
ATOM     21  O   UNL     1       3.642   2.713  17.060  0.00  0.00    +0.000 OA
BRANCH  21  22
ATOM     22  P   UNL     1       4.768   3.496  16.007  0.00  0.00    +0.000 P 
ATOM     23  O   UNL     1       5.521   4.122  17.179  0.00  0.00    +0.000 OA
BRANCH  22  24
ATOM     24  O   UNL     1       5.397   2.011  15.787  0.00  0.00    +0.000 OA
ATOM     25  H   UNL     1       6.261   1.842  16.214  0.00  0.00    +0.000 HD
ENDBRANCH  22  24
BRANCH  22  26
ATOM     26  O   UNL     1       5.895   4.280  14.954  0.00  0.00    +0.000 OA
BRANCH  26  27
ATOM     27  P   UNL     1       6.797   5.456  15.847  0.00  0.00    +0.000 P 
ATOM     28  O   UNL     1       7.751   5.630  14.664  0.00  0.00    +0.000 OA
BRANCH  27  29
ATOM     29  O   UNL     1       5.575   6.517  15.625  0.00  0.00    +0.000 OA
ATOM     30  H   UNL     1       4.888   6.125  15.060  0.00  0.00    +0.000 HD
ENDBRANCH  27  29
BRANCH  27  31
ATOM     31  O   UNL     1       7.698   6.632  16.740  0.00  0.00    +0.000 OA
BRANCH  31  32
ATOM     32  P   UNL     1       7.769   6.163  18.404  0.00  0.00    +0.000 P 
ATOM     33  O   UNL     1       8.375   7.495  18.835  0.00  0.00    +0.000 OA
BRANCH  32  34
ATOM     34  O   UNL     1       6.167   6.387  18.590  0.00  0.00    +0.000 OA
ATOM     35  H   UNL     1       5.735   5.507  18.549  0.00  0.00    +0.000 HD
ENDBRANCH  32  34
BRANCH  32  36
ATOM     36  O   UNL     1       7.839   5.692  20.067  0.00  0.00    +0.000 OA
ATOM     37  H   UNL     1       7.731   4.718  20.023  0.00  0.00    +0.000 HD
ENDBRANCH  32  36
ENDBRANCH  31  32
ENDBRANCH  27  31
ENDBRANCH  26  27
ENDBRANCH  22  26
ENDBRANCH  21  22
ENDBRANCH  20  21
ENDBRANCH   2  20
TORSDOF 13
ENDMDL
MODEL 8
REMARK VINA RESULT:      -6.0      4.216      6.246
REMARK  Name = 
REMARK  14 active torsions:
REMARK  status: ('A' for Active; 'I' for Inactive)
REMARK    1  A    between atoms: C_1  and  C_2
REMARK    2  A    between atoms: C_2  and  C_3
REMARK    3  A    between atoms: C_3  and  O_4
REMARK    4  A    between atoms: O_4  and  P_5
REMARK    5  A    between atoms: P_5  and  O_7
REMARK    6  A    between atoms: P_5  and  O_8
REMARK    7  A    between atoms: O_8  and  P_9
REMARK    8  A    between atoms: P_9  and  O_11
REMARK    9  A    between atoms: P_9  and  O_12
REMARK   10  A    between atoms: O_12  and  P_13
REMARK   11  A    between atoms: P_13  and  O_15
REMARK   12  A    between atoms: P_13  and  O_16
REMARK   13  A    between atoms: C_18  and  N_19
REMARK   14  A    between atoms: C_29  and  O_30
REMARK                            x       y       z     vdW  Elec       q    Type
REMARK                         _______ _______ _______ _____ _____    ______ ____
ROOT
ATOM      1  C   UNL     1       0.342   9.383  17.545  0.00  0.00    +0.000 C 
ATOM      2  C   UNL     1       0.887   9.758  18.940  0.00  0.00    +0.000 C 
ATOM      3  O   UNL     1      -0.214   9.858  19.863  0.00  0.00    +0.000 OA
ATOM      4  C   UNL     1      -0.759  11.186  19.697  0.00  0.00    +0.000 C 
ATOM      5  C   UNL     1       0.405  12.095  19.279  0.00  0.00    +0.000 C 
ATOM      6  F   UNL     1       0.088  12.777  18.143  0.00  0.00    +0.000 F 
ATOM      7  C   UNL     1       1.548  11.143  18.971  0.00  0.00    +0.000 C 
ENDROOT
BRANCH   4   8
ATOM      8  N   UNL     1      -1.462  11.649  20.874  0.00  0.00    +0.000 N 
ATOM      9  C   UNL     1      -0.904  11.534  22.133  0.00  0.00    +0.000 A 
ATOM     10  C   UNL     1      -1.516  12.045  23.202  0.00  0.00    +0.000 A 
ATOM     11  C   UNL     1      -2.779  12.760  22.938  0.00  0.00    +0.000 A 
ATOM     12  N   UNL     1      -3.466  13.336  23.969  0.00  0.00    +0.000 N 
ATOM     13  N   UNL     1      -3.294  12.875  21.751  0.00  0.00    +0.000 NA
ATOM     14  C   UNL     1      -2.650  12.338  20.667  0.00  0.00    +0.000 A 
ATOM     15  O   UNL     1      -3.110  12.464  19.536  0.00  0.00    +0.000 OA
ATOM     16  H   UNL     1      -3.402  12.894  24.878  0.00  0.00    +0.000 HD
ATOM     17  H   UNL     1      -4.409  13.591  23.707  0.00  0.00    +0.000 HD
ENDBRANCH   4   8
BRANCH   7  18
ATOM     18  O   UNL     1       2.219  11.484  17.762  0.00  0.00    +0.000 OA
ATOM     19  H   UNL     1       1.619  11.255  17.022  0.00  0.00    +0.000 HD
ENDBRANCH   7  18
BRANCH   2  20
ATOM     20  C   UNL     1       1.846   8.640  19.369  0.00  0.00    +0.000 C 
BRANCH  20  21
ATOM     21  O   UNL     1       2.033   7.613  18.378  0.00  0.00    +0.000 OA
BRANCH  21  22
ATOM     22  P   UNL     1       3.015   6.277  18.871  0.00  0.00    +0.000 P 
ATOM     23  O   UNL     1       2.220   5.298  18.007  0.00  0.00    +0.000 OA
BRANCH  22  24
ATOM     24  O   UNL     1       4.155   6.928  17.910  0.00  0.00    +0.000 OA
ATOM     25  H   UNL     1       3.837   7.548  17.223  0.00  0.00    +0.000 HD
ENDBRANCH  22  24
BRANCH  22  26
ATOM     26  O   UNL     1       3.996   4.939  19.363  0.00  0.00    +0.000 OA
BRANCH  26  27
ATOM     27  P   UNL     1       5.453   4.920  18.431  0.00  0.00    +0.000 P 
ATOM     28  O   UNL     1       6.273   5.171  19.698  0.00  0.00    +0.000 OA
BRANCH  27  29
ATOM     29  O   UNL     1       5.302   3.301  18.283  0.00  0.00    +0.000 OA
ATOM     30  H   UNL     1       4.502   3.083  17.776  0.00  0.00    +0.000 HD
ENDBRANCH  27  29
BRANCH  27  31
ATOM     31  O   UNL     1       6.911   4.901  17.499  0.00  0.00    +0.000 OA
BRANCH  31  32
ATOM     32  P   UNL     1       6.558   4.379  15.887  0.00  0.00    +0.000 P 
ATOM     33  O   UNL     1       5.182   5.038  15.892  0.00  0.00    +0.000 OA
BRANCH  32  34
ATOM     34  O   UNL     1       7.530   5.518  15.249  0.00  0.00    +0.000 OA
ATOM     35  H   UNL     1       7.268   6.383  15.630  0.00  0.00    +0.000 HD
ENDBRANCH  32  34
BRANCH  32  36
ATOM     36  O   UNL     1       6.206   3.857  14.276  0.00  0.00    +0.000 OA
ATOM     37  H   UNL     1       5.916   4.686  13.837  0.00  0.00    +0.000 HD
ENDBRANCH  32  36
ENDBRANCH  31  32
ENDBRANCH  27  31
ENDBRANCH  26  27
ENDBRANCH  22  26
ENDBRANCH  21  22
ENDBRANCH  20  21
ENDBRANCH   2  20
TORSDOF 13
ENDMDL
MODEL 9
REMARK VINA RESULT:      -5.9      3.583      5.493
REMARK  Name = 
REMARK  14 active torsions:
REMARK  status: ('A' for Active; 'I' for Inactive)
REMARK    1  A    between atoms: C_1  and  C_2
REMARK    2  A    between atoms: C_2  and  C_3
REMARK    3  A    between atoms: C_3  and  O_4
REMARK    4  A    between atoms: O_4  and  P_5
REMARK    5  A    between atoms: P_5  and  O_7
REMARK    6  A    between atoms: P_5  and  O_8
REMARK    7  A    between atoms: O_8  and  P_9
REMARK    8  A    between atoms: P_9  and  O_11
REMARK    9  A    between atoms: P_9  and  O_12
REMARK   10  A    between atoms: O_12  and  P_13
REMARK   11  A    between atoms: P_13  and  O_15
REMARK   12  A    between atoms: P_13  and  O_16
REMARK   13  A    between atoms: C_18  and  N_19
REMARK   14  A    between atoms: C_29  and  O_30
REMARK                            x       y       z     vdW  Elec       q    Type
REMARK                         _______ _______ _______ _____ _____    ______ ____
ROOT
ATOM      1  C   UNL     1       1.881   8.945  22.426  0.00  0.00    +0.000 C 
ATOM      2  C   UNL     1       1.139   9.069  21.078  0.00  0.00    +0.000 C 
ATOM      3  O   UNL     1       1.422  10.359  20.503  0.00  0.00    +0.000 OA
ATOM      4  C   UNL     1       0.500  11.285  21.119  0.00  0.00    +0.000 C 
ATOM      5  C   UNL     1      -0.770  10.492  21.454  0.00  0.00    +0.000 C 
ATOM      6  F   UNL     1      -1.100  10.659  22.766  0.00  0.00    +0.000 F 
ATOM      7  C   UNL     1      -0.387   9.038  21.232  0.00  0.00    +0.000 C 
ENDROOT
BRANCH   4   8
ATOM      8  N   UNL     1       0.254  12.452  20.299  0.00  0.00    +0.000 N 
ATOM      9  C   UNL     1      -0.581  12.392  19.201  0.00  0.00    +0.000 A 
ATOM     10  C   UNL     1      -0.876  13.490  18.504  0.00  0.00    +0.000 A 
ATOM     11  C   UNL     1      -0.291  14.747  19.009  0.00  0.00    +0.000 A 
ATOM     12  N   UNL     1      -0.555  15.928  18.373  0.00  0.00    +0.000 N 
ATOM     13  N   UNL     1       0.485  14.800  20.050  0.00  0.00    +0.000 NA
ATOM     14  C   UNL     1       0.778  13.658  20.748  0.00  0.00    +0.000 A 
ATOM     15  O   UNL     1       1.486  13.697  21.750  0.00  0.00    +0.000 OA
ATOM     16  H   UNL     1      -0.710  15.895  17.373  0.00  0.00    +0.000 HD
ATOM     17  H   UNL     1       0.070  16.668  18.663  0.00  0.00    +0.000 HD
ENDBRANCH   4   8
BRANCH   7  18
ATOM     18  O   UNL     1      -0.840   8.196  22.288  0.00  0.00    +0.000 OA
ATOM     19  H   UNL     1      -0.110   8.129  22.938  0.00  0.00    +0.000 HD
ENDBRANCH   7  18
BRANCH   2  20
ATOM     20  C   UNL     1       1.661   7.950  20.167  0.00  0.00    +0.000 C 
BRANCH  20  21
ATOM     21  O   UNL     1       1.610   6.639  20.757  0.00  0.00    +0.000 OA
BRANCH  21  22
ATOM     22  P   UNL     1       2.380   5.386  19.847  0.00  0.00    +0.000 P 
ATOM     23  O   UNL     1       1.099   4.555  19.794  0.00  0.00    +0.000 OA
BRANCH  22  24
ATOM     24  O   UNL     1       2.312   6.429  18.600  0.00  0.00    +0.000 OA
ATOM     25  H   UNL     1       1.748   7.218  18.729  0.00  0.00    +0.000 HD
ENDBRANCH  22  24
BRANCH  22  26
ATOM     26  O   UNL     1       3.149   4.131  18.936  0.00  0.00    +0.000 OA
BRANCH  26  27
ATOM     27  P   UNL     1       4.843   4.463  18.814  0.00  0.00    +0.000 P 
ATOM     28  O   UNL     1       4.729   5.483  19.949  0.00  0.00    +0.000 OA
BRANCH  27  29
ATOM     29  O   UNL     1       5.146   3.018  19.510  0.00  0.00    +0.000 OA
ATOM     30  H   UNL     1       4.655   2.315  19.052  0.00  0.00    +0.000 HD
ENDBRANCH  27  29
BRANCH  27  31
ATOM     31  O   UNL     1       6.536   4.795  18.692  0.00  0.00    +0.000 OA
BRANCH  31  32
ATOM     32  P   UNL     1       7.004   4.804  17.027  0.00  0.00    +0.000 P 
ATOM     33  O   UNL     1       8.325   4.097  17.313  0.00  0.00    +0.000 OA
BRANCH  32  34
ATOM     34  O   UNL     1       5.980   3.587  16.678  0.00  0.00    +0.000 OA
ATOM     35  H   UNL     1       6.151   2.861  17.315  0.00  0.00    +0.000 HD
ENDBRANCH  32  34
BRANCH  32  36
ATOM     36  O   UNL     1       7.471   4.814  15.361  0.00  0.00    +0.000 OA
ATOM     37  H   UNL     1       6.670   4.471  14.908  0.00  0.00    +0.000 HD
ENDBRANCH  32  36
ENDBRANCH  31  32
ENDBRANCH  27  31
ENDBRANCH  26  27
ENDBRANCH  22  26
ENDBRANCH  21  22
ENDBRANCH  20  21
ENDBRANCH   2  20
TORSDOF 13
ENDMDL
