MODEL 1
REMARK VINA RESULT:      -7.7      0.000      0.000
REMARK  Name = 
REMARK  14 active torsions:
REMARK  status: ('A' for Active; 'I' for Inactive)
REMARK    1  A    between atoms: C_1  and  C_2
REMARK    2  A    between atoms: C_2  and  C_3
REMARK    3  A    between atoms: C_3  and  C_4
REMARK    4  A    between atoms: C_4  and  C_5
REMARK    5  A    between atoms: C_5  and  C_6
REMARK    6  A    between atoms: C_6  and  O_7
REMARK    7  A    between atoms: O_7  and  C_8
REMARK    8  A    between atoms: C_9  and  O_10
REMARK    9  A    between atoms: O_10  and  C_11
REMARK   10  A    between atoms: C_13  and  C_14
REMARK   11  A    between atoms: C_14  and  C_15
REMARK   12  A    between atoms: C_21  and  N_22
REMARK   13  A    between atoms: C_24  and  O_25
REMARK   14  A    between atoms: O_25  and  C_26
REMARK                            x       y       z     vdW  Elec       q    Type
REMARK                         _______ _______ _______ _____ _____    ______ ____
ROOT
ATOM      1  C   UNL     1       5.765   6.399  16.705  0.00  0.00    +0.000 A 
ATOM      2  C   UNL     1       4.484   6.492  17.320  0.00  0.00    +0.000 A 
ATOM      3  C   UNL     1       3.710   5.340  17.500  0.00  0.00    +0.000 A 
ATOM      4  C   UNL     1       4.134   4.093  17.056  0.00  0.00    +0.000 A 
ATOM      5  C   UNL     1       5.342   4.012  16.364  0.00  0.00    +0.000 A 
ATOM      6  C   UNL     1       6.174   5.137  16.199  0.00  0.00    +0.000 A 
ENDROOT
BRANCH   2   7
ATOM      7  O   UNL     1       4.046   7.672  17.873  0.00  0.00    +0.000 OA
ATOM      8  C   UNL     1       2.639   7.848  18.024  0.00  0.00    +0.000 C 
ENDBRANCH   2   7
BRANCH   6   9
ATOM      9  O   UNL     1       7.316   4.801  15.523  0.00  0.00    +0.000 OA
ATOM     10  C   UNL     1       7.330   4.851  14.108  0.00  0.00    +0.000 C 
ENDBRANCH   6   9
BRANCH   1  11
ATOM     11  O   UNL     1       6.649   7.452  16.547  0.00  0.00    +0.000 OA
BRANCH  11  12
ATOM     12  C   UNL     1       7.596   7.675  17.593  0.00  0.00    +0.000 C 
BRANCH  12  13
ATOM     13  C   UNL     1       7.939   9.150  17.757  0.00  0.00    +0.000 C 
BRANCH  13  14
ATOM     14  C   UNL     1       8.941   9.373  18.884  0.00  0.00    +0.000 C 
BRANCH  14  15
ATOM     15  C   UNL     1       9.398  10.830  18.933  0.00  0.00    +0.000 C 
BRANCH  15  17
ATOM     16  C   UNL     1       9.077  11.814  21.224  0.00  0.00    +0.000 C 
ATOM     17  C   UNL     1      10.051  11.139  20.276  0.00  0.00    +0.000 C 
ENDBRANCH  15  17
ENDBRANCH  14  15
ENDBRANCH  13  14
ENDBRANCH  12  13
ENDBRANCH  11  12
ENDBRANCH   1  11
BRANCH   4  18
ATOM     18  C   UNL     1       3.323   2.874  17.410  0.00  0.00    +0.000 C 
BRANCH  18  19
ATOM     19  C   UNL     1       2.763   2.833  18.798  0.00  0.00    +0.000 A 
ATOM     20  C   UNL     1       1.417   3.045  19.010  0.00  0.00    +0.000 A 
ATOM     21  N   UNL     1       0.816   2.944  20.207  0.00  0.00    +0.000 NA
ATOM     22  C   UNL     1       1.609   2.653  21.237  0.00  0.00    +0.000 A 
ATOM     23  N   UNL     1       1.002   2.464  22.462  0.00  0.00    +0.000 N 
ATOM     24  N   UNL     1       2.927   2.450  21.157  0.00  0.00    +0.000 NA
ATOM     25  C   UNL     1       3.488   2.551  19.942  0.00  0.00    +0.000 A 
ATOM     26  H   UNL     1       0.033   2.218  22.314  0.00  0.00    +0.000 HD
ATOM     27  H   UNL     1       1.556   1.829  23.020  0.00  0.00    +0.000 HD
BRANCH  25  28
ATOM     28  N   UNL     1       4.871   2.362  19.924  0.00  0.00    +0.000 N 
ATOM     29  H   UNL     1       5.039   1.415  20.258  0.00  0.00    +0.000 HD
ATOM     30  H   UNL     1       5.270   2.505  19.004  0.00  0.00    +0.000 HD
ENDBRANCH  25  28
ENDBRANCH  18  19
ENDBRANCH   4  18
TORSDOF 11
ENDMDL
MODEL 2
REMARK VINA RESULT:      -7.1      1.541      2.581
REMARK  Name = 
REMARK  14 active torsions:
REMARK  status: ('A' for Active; 'I' for Inactive)
REMARK    1  A    between atoms: C_1  and  C_2
REMARK    2  A    between atoms: C_2  and  C_3
REMARK    3  A    between atoms: C_3  and  C_4
REMARK    4  A    between atoms: C_4  and  C_5
REMARK    5  A    between atoms: C_5  and  C_6
REMARK    6  A    between atoms: C_6  and  O_7
REMARK    7  A    between atoms: O_7  and  C_8
REMARK    8  A    between atoms: C_9  and  O_10
REMARK    9  A    between atoms: O_10  and  C_11
REMARK   10  A    between atoms: C_13  and  C_14
REMARK   11  A    between atoms: C_14  and  C_15
REMARK   12  A    between atoms: C_21  and  N_22
REMARK   13  A    between atoms: C_24  and  O_25
REMARK   14  A    between atoms: O_25  and  C_26
REMARK                            x       y       z     vdW  Elec       q    Type
REMARK                         _______ _______ _______ _____ _____    ______ ____
ROOT
ATOM      1  C   UNL     1       6.922   5.868  16.885  0.00  0.00    +0.000 A 
ATOM      2  C   UNL     1       6.361   5.165  15.780  0.00  0.00    +0.000 A 
ATOM      3  C   UNL     1       5.374   4.196  15.998  0.00  0.00    +0.000 A 
ATOM      4  C   UNL     1       4.943   3.859  17.274  0.00  0.00    +0.000 A 
ATOM      5  C   UNL     1       5.560   4.472  18.365  0.00  0.00    +0.000 A 
ATOM      6  C   UNL     1       6.525   5.484  18.193  0.00  0.00    +0.000 A 
ENDROOT
BRANCH   2   7
ATOM      7  O   UNL     1       6.665   5.517  14.487  0.00  0.00    +0.000 OA
ATOM      8  C   UNL     1       6.675   4.482  13.506  0.00  0.00    +0.000 C 
ENDBRANCH   2   7
BRANCH   6   9
ATOM      9  O   UNL     1       6.955   5.955  19.405  0.00  0.00    +0.000 OA
ATOM     10  C   UNL     1       8.143   5.436  19.975  0.00  0.00    +0.000 C 
ENDBRANCH   6   9
BRANCH   1  11
ATOM     11  O   UNL     1       7.842   6.897  16.787  0.00  0.00    +0.000 OA
BRANCH  11  12
ATOM     12  C   UNL     1       7.475   8.158  17.349  0.00  0.00    +0.000 C 
BRANCH  12  13
ATOM     13  C   UNL     1       8.537   8.699  18.299  0.00  0.00    +0.000 C 
BRANCH  13  14
ATOM     14  C   UNL     1       8.670  10.214  18.191  0.00  0.00    +0.000 C 
BRANCH  14  15
ATOM     15  C   UNL     1       9.609  10.760  19.265  0.00  0.00    +0.000 C 
BRANCH  15  17
ATOM     16  C   UNL     1      11.699  11.675  18.208  0.00  0.00    +0.000 C 
ATOM     17  C   UNL     1      10.326  12.009  18.761  0.00  0.00    +0.000 C 
ENDBRANCH  15  17
ENDBRANCH  14  15
ENDBRANCH  13  14
ENDBRANCH  12  13
ENDBRANCH  11  12
ENDBRANCH   1  11
BRANCH   4  18
ATOM     18  C   UNL     1       3.778   2.918  17.431  0.00  0.00    +0.000 C 
BRANCH  18  19
ATOM     19  C   UNL     1       3.123   2.896  18.777  0.00  0.00    +0.000 A 
ATOM     20  C   UNL     1       1.883   3.474  18.955  0.00  0.00    +0.000 A 
ATOM     21  N   UNL     1       1.187   3.427  20.103  0.00  0.00    +0.000 NA
ATOM     22  C   UNL     1       1.778   2.806  21.122  0.00  0.00    +0.000 A 
ATOM     23  N   UNL     1       1.049   2.674  22.286  0.00  0.00    +0.000 N 
ATOM     24  N   UNL     1       2.984   2.230  21.074  0.00  0.00    +0.000 NA
ATOM     25  C   UNL     1       3.643   2.291  19.907  0.00  0.00    +0.000 A 
ATOM     26  H   UNL     1       0.065   2.744  22.066  0.00  0.00    +0.000 HD
ATOM     27  H   UNL     1       1.350   1.847  22.784  0.00  0.00    +0.000 HD
BRANCH  25  28
ATOM     28  N   UNL     1       4.909   1.704  19.925  0.00  0.00    +0.000 N 
ATOM     29  H   UNL     1       5.287   1.855  20.860  0.00  0.00    +0.000 HD
ATOM     30  H   UNL     1       4.884   0.718  19.693  0.00  0.00    +0.000 HD
ENDBRANCH  25  28
ENDBRANCH  18  19
ENDBRANCH   4  18
TORSDOF 11
ENDMDL
MODEL 3
REMARK VINA RESULT:      -6.9      3.706      7.087
REMARK  Name = 
REMARK  14 active torsions:
REMARK  status: ('A' for Active; 'I' for Inactive)
REMARK    1  A    between atoms: C_1  and  C_2
REMARK    2  A    between atoms: C_2  and  C_3
REMARK    3  A    between atoms: C_3  and  C_4
REMARK    4  A    between atoms: C_4  and  C_5
REMARK    5  A    between atoms: C_5  and  C_6
REMARK    6  A    between atoms: C_6  and  O_7
REMARK    7  A    between atoms: O_7  and  C_8
REMARK    8  A    between atoms: C_9  and  O_10
REMARK    9  A    between atoms: O_10  and  C_11
REMARK   10  A    between atoms: C_13  and  C_14
REMARK   11  A    between atoms: C_14  and  C_15
REMARK   12  A    between atoms: C_21  and  N_22
REMARK   13  A    between atoms: C_24  and  O_25
REMARK   14  A    between atoms: O_25  and  C_26
REMARK                            x       y       z     vdW  Elec       q    Type
REMARK                         _______ _______ _______ _____ _____    ______ ____
ROOT
ATOM      1  C   UNL     1       5.193   4.718  16.608  0.00  0.00    +0.000 A 
ATOM      2  C   UNL     1       5.308   6.098  16.943  0.00  0.00    +0.000 A 
ATOM      3  C   UNL     1       4.435   6.665  17.879  0.00  0.00    +0.000 A 
ATOM      4  C   UNL     1       3.417   5.930  18.474  0.00  0.00    +0.000 A 
ATOM      5  C   UNL     1       3.237   4.605  18.075  0.00  0.00    +0.000 A 
ATOM      6  C   UNL     1       4.117   3.981  17.171  0.00  0.00    +0.000 A 
ENDROOT
BRANCH   2   7
ATOM      7  O   UNL     1       6.352   6.858  16.472  0.00  0.00    +0.000 OA
ATOM      8  C   UNL     1       7.444   7.099  17.356  0.00  0.00    +0.000 C 
ENDBRANCH   2   7
BRANCH   6   9
ATOM      9  O   UNL     1       3.758   2.676  16.965  0.00  0.00    +0.000 OA
ATOM     10  C   UNL     1       2.645   2.141  17.657  0.00  0.00    +0.000 C 
ENDBRANCH   6   9
BRANCH   1  11
ATOM     11  O   UNL     1       6.046   4.033  15.761  0.00  0.00    +0.000 OA
BRANCH  11  12
ATOM     12  C   UNL     1       6.284   4.600  14.472  0.00  0.00    +0.000 C 
BRANCH  12  13
ATOM     13  C   UNL     1       6.114   3.581  13.352  0.00  0.00    +0.000 C 
BRANCH  13  14
ATOM     14  C   UNL     1       4.957   3.946  12.429  0.00  0.00    +0.000 C 
BRANCH  14  15
ATOM     15  C   UNL     1       4.732   2.863  11.375  0.00  0.00    +0.000 C 
BRANCH  15  17
ATOM     16  C   UNL     1       3.178   4.183   9.906  0.00  0.00    +0.000 C 
ATOM     17  C   UNL     1       3.324   2.965  10.799  0.00  0.00    +0.000 C 
ENDBRANCH  15  17
ENDBRANCH  14  15
ENDBRANCH  13  14
ENDBRANCH  12  13
ENDBRANCH  11  12
ENDBRANCH   1  11
BRANCH   4  18
ATOM     18  C   UNL     1       2.607   6.557  19.578  0.00  0.00    +0.000 C 
BRANCH  18  19
ATOM     19  C   UNL     1       2.040   7.913  19.292  0.00  0.00    +0.000 A 
ATOM     20  C   UNL     1       2.024   8.402  18.003  0.00  0.00    +0.000 A 
ATOM     21  N   UNL     1       1.461   9.568  17.645  0.00  0.00    +0.000 NA
ATOM     22  C   UNL     1       0.924  10.285  18.630  0.00  0.00    +0.000 A 
ATOM     23  N   UNL     1       0.268  11.446  18.275  0.00  0.00    +0.000 N 
ATOM     24  N   UNL     1       0.900   9.925  19.917  0.00  0.00    +0.000 NA
ATOM     25  C   UNL     1       1.466   8.750  20.232  0.00  0.00    +0.000 A 
ATOM     26  H   UNL     1      -0.014  11.381  17.307  0.00  0.00    +0.000 HD
ATOM     27  H   UNL     1      -0.456  11.647  18.951  0.00  0.00    +0.000 HD
BRANCH  25  28
ATOM     28  N   UNL     1       1.441   8.442  21.593  0.00  0.00    +0.000 N 
ATOM     29  H   UNL     1       0.641   7.827  21.737  0.00  0.00    +0.000 HD
ATOM     30  H   UNL     1       2.301   8.008  21.909  0.00  0.00    +0.000 HD
ENDBRANCH  25  28
ENDBRANCH  18  19
ENDBRANCH   4  18
TORSDOF 11
ENDMDL
MODEL 4
REMARK VINA RESULT:      -6.9      0.839      2.663
REMARK  Name = 
REMARK  14 active torsions:
REMARK  status: ('A' for Active; 'I' for Inactive)
REMARK    1  A    between atoms: C_1  and  C_2
REMARK    2  A    between atoms: C_2  and  C_3
REMARK    3  A    between atoms: C_3  and  C_4
REMARK    4  A    between atoms: C_4  and  C_5
REMARK    5  A    between atoms: C_5  and  C_6
REMARK    6  A    between atoms: C_6  and  O_7
REMARK    7  A    between atoms: O_7  and  C_8
REMARK    8  A    between atoms: C_9  and  O_10
REMARK    9  A    between atoms: O_10  and  C_11
REMARK   10  A    between atoms: C_13  and  C_14
REMARK   11  A    between atoms: C_14  and  C_15
REMARK   12  A    between atoms: C_21  and  N_22
REMARK   13  A    between atoms: C_24  and  O_25
REMARK   14  A    between atoms: O_25  and  C_26
REMARK                            x       y       z     vdW  Elec       q    Type
REMARK                         _______ _______ _______ _____ _____    ______ ____
ROOT
ATOM      1  C   UNL     1       5.958   6.436  16.849  0.00  0.00    +0.000 A 
ATOM      2  C   UNL     1       6.283   5.082  16.551  0.00  0.00    +0.000 A 
ATOM      3  C   UNL     1       5.371   4.063  16.850  0.00  0.00    +0.000 A 
ATOM      4  C   UNL     1       4.157   4.322  17.474  0.00  0.00    +0.000 A 
ATOM      5  C   UNL     1       3.877   5.634  17.858  0.00  0.00    +0.000 A 
ATOM      6  C   UNL     1       4.745   6.696  17.539  0.00  0.00    +0.000 A 
ENDROOT
BRANCH   2   7
ATOM      7  O   UNL     1       7.418   4.763  15.844  0.00  0.00    +0.000 OA
ATOM      8  C   UNL     1       7.331   4.762  14.421  0.00  0.00    +0.000 C 
ENDBRANCH   2   7
BRANCH   6   9
ATOM      9  O   UNL     1       4.239   7.887  17.987  0.00  0.00    +0.000 OA
ATOM     10  C   UNL     1       2.857   8.158  17.842  0.00  0.00    +0.000 C 
ENDBRANCH   6   9
BRANCH   1  11
ATOM     11  O   UNL     1       6.743   7.530  16.529  0.00  0.00    +0.000 OA
BRANCH  11  12
ATOM     12  C   UNL     1       7.718   7.940  17.489  0.00  0.00    +0.000 C 
BRANCH  12  13
ATOM     13  C   UNL     1       7.902   9.452  17.516  0.00  0.00    +0.000 C 
BRANCH  13  14
ATOM     14  C   UNL     1       8.872   9.883  18.610  0.00  0.00    +0.000 C 
BRANCH  14  15
ATOM     15  C   UNL     1       9.790  11.002  18.121  0.00  0.00    +0.000 C 
BRANCH  15  17
ATOM     16  C   UNL     1      10.039  13.499  18.274  0.00  0.00    +0.000 C 
ATOM     17  C   UNL     1       9.063  12.343  18.164  0.00  0.00    +0.000 C 
ENDBRANCH  15  17
ENDBRANCH  14  15
ENDBRANCH  13  14
ENDBRANCH  12  13
ENDBRANCH  11  12
ENDBRANCH   1  11
BRANCH   4  18
ATOM     18  C   UNL     1       3.160   3.205  17.634  0.00  0.00    +0.000 C 
BRANCH  18  19
ATOM     19  C   UNL     1       2.601   3.011  19.009  0.00  0.00    +0.000 A 
ATOM     20  C   UNL     1       1.279   3.305  19.269  0.00  0.00    +0.000 A 
ATOM     21  N   UNL     1       0.674   3.082  20.448  0.00  0.00    +0.000 NA
ATOM     22  C   UNL     1       1.440   2.577  21.413  0.00  0.00    +0.000 A 
ATOM     23  N   UNL     1       0.822   2.264  22.606  0.00  0.00    +0.000 N 
ATOM     24  N   UNL     1       2.736   2.274  21.284  0.00  0.00    +0.000 NA
ATOM     25  C   UNL     1       3.301   2.504  20.090  0.00  0.00    +0.000 A 
ATOM     26  H   UNL     1      -0.165   2.126  22.438  0.00  0.00    +0.000 HD
ATOM     27  H   UNL     1       1.320   1.509  23.058  0.00  0.00    +0.000 HD
BRANCH  25  28
ATOM     28  N   UNL     1       4.662   2.201  20.024  0.00  0.00    +0.000 N 
ATOM     29  H   UNL     1       4.768   1.258  20.394  0.00  0.00    +0.000 HD
ATOM     30  H   UNL     1       5.030   2.271  19.083  0.00  0.00    +0.000 HD
ENDBRANCH  25  28
ENDBRANCH  18  19
ENDBRANCH   4  18
TORSDOF 11
ENDMDL
MODEL 5
REMARK VINA RESULT:      -6.8      1.598      2.890
REMARK  Name = 
REMARK  14 active torsions:
REMARK  status: ('A' for Active; 'I' for Inactive)
REMARK    1  A    between atoms: C_1  and  C_2
REMARK    2  A    between atoms: C_2  and  C_3
REMARK    3  A    between atoms: C_3  and  C_4
REMARK    4  A    between atoms: C_4  and  C_5
REMARK    5  A    between atoms: C_5  and  C_6
REMARK    6  A    between atoms: C_6  and  O_7
REMARK    7  A    between atoms: O_7  and  C_8
REMARK    8  A    between atoms: C_9  and  O_10
REMARK    9  A    between atoms: O_10  and  C_11
REMARK   10  A    between atoms: C_13  and  C_14
REMARK   11  A    between atoms: C_14  and  C_15
REMARK   12  A    between atoms: C_21  and  N_22
REMARK   13  A    between atoms: C_24  and  O_25
REMARK   14  A    between atoms: O_25  and  C_26
REMARK                            x       y       z     vdW  Elec       q    Type
REMARK                         _______ _______ _______ _____ _____    ______ ____
ROOT
ATOM      1  C   UNL     1       6.987   5.917  16.869  0.00  0.00    +0.000 A 
ATOM      2  C   UNL     1       6.447   5.273  15.719  0.00  0.00    +0.000 A 
ATOM      3  C   UNL     1       5.456   4.296  15.866  0.00  0.00    +0.000 A 
ATOM      4  C   UNL     1       4.999   3.894  17.114  0.00  0.00    +0.000 A 
ATOM      5  C   UNL     1       5.595   4.448  18.247  0.00  0.00    +0.000 A 
ATOM      6  C   UNL     1       6.564   5.466  18.148  0.00  0.00    +0.000 A 
ENDROOT
BRANCH   2   7
ATOM      7  O   UNL     1       6.777   5.692  14.451  0.00  0.00    +0.000 OA
ATOM      8  C   UNL     1       7.125   4.692  13.496  0.00  0.00    +0.000 C 
ENDBRANCH   2   7
BRANCH   6   9
ATOM      9  O   UNL     1       6.970   5.873  19.390  0.00  0.00    +0.000 OA
ATOM     10  C   UNL     1       8.177   5.368  19.931  0.00  0.00    +0.000 C 
ENDBRANCH   6   9
BRANCH   1  11
ATOM     11  O   UNL     1       7.909   6.949  16.844  0.00  0.00    +0.000 OA
BRANCH  11  12
ATOM     12  C   UNL     1       7.521   8.188  17.439  0.00  0.00    +0.000 C 
BRANCH  12  13
ATOM     13  C   UNL     1       8.544   8.688  18.451  0.00  0.00    +0.000 C 
BRANCH  13  14
ATOM     14  C   UNL     1       8.802  10.183  18.300  0.00  0.00    +0.000 C 
BRANCH  14  15
ATOM     15  C   UNL     1       9.505  10.746  19.534  0.00  0.00    +0.000 C 
BRANCH  15  17
ATOM     16  C   UNL     1      10.930  11.695  17.693  0.00  0.00    +0.000 C 
ATOM     17  C   UNL     1      10.480  11.849  19.134  0.00  0.00    +0.000 C 
ENDBRANCH  15  17
ENDBRANCH  14  15
ENDBRANCH  13  14
ENDBRANCH  12  13
ENDBRANCH  11  12
ENDBRANCH   1  11
BRANCH   4  18
ATOM     18  C   UNL     1       3.831   2.947  17.199  0.00  0.00    +0.000 C 
BRANCH  18  19
ATOM     19  C   UNL     1       3.136   2.873  18.523  0.00  0.00    +0.000 A 
ATOM     20  C   UNL     1       3.719   2.202  19.577  0.00  0.00    +0.000 A 
ATOM     21  N   UNL     1       3.207   2.158  20.819  0.00  0.00    +0.000 NA
ATOM     22  C   UNL     1       2.045   2.783  20.995  0.00  0.00    +0.000 A 
ATOM     23  N   UNL     1       1.541   2.820  22.279  0.00  0.00    +0.000 N 
ATOM     24  N   UNL     1       1.377   3.444  20.045  0.00  0.00    +0.000 NA
ATOM     25  C   UNL     1       1.925   3.473  18.821  0.00  0.00    +0.000 A 
ATOM     26  H   UNL     1       2.300   2.688  22.934  0.00  0.00    +0.000 HD
ATOM     27  H   UNL     1       0.972   3.647  22.397  0.00  0.00    +0.000 HD
BRANCH  25  28
ATOM     28  N   UNL     1       1.168   4.148  17.862  0.00  0.00    +0.000 N 
ATOM     29  H   UNL     1       1.371   5.140  17.978  0.00  0.00    +0.000 HD
ATOM     30  H   UNL     1       1.371   3.839  16.919  0.00  0.00    +0.000 HD
ENDBRANCH  25  28
ENDBRANCH  18  19
ENDBRANCH   4  18
TORSDOF 11
ENDMDL
MODEL 6
REMARK VINA RESULT:      -6.8      3.494      6.825
REMARK  Name = 
REMARK  14 active torsions:
REMARK  status: ('A' for Active; 'I' for Inactive)
REMARK    1  A    between atoms: C_1  and  C_2
REMARK    2  A    between atoms: C_2  and  C_3
REMARK    3  A    between atoms: C_3  and  C_4
REMARK    4  A    between atoms: C_4  and  C_5
REMARK    5  A    between atoms: C_5  and  C_6
REMARK    6  A    between atoms: C_6  and  O_7
REMARK    7  A    between atoms: O_7  and  C_8
REMARK    8  A    between atoms: C_9  and  O_10
REMARK    9  A    between atoms: O_10  and  C_11
REMARK   10  A    between atoms: C_13  and  C_14
REMARK   11  A    between atoms: C_14  and  C_15
REMARK   12  A    between atoms: C_21  and  N_22
REMARK   13  A    between atoms: C_24  and  O_25
REMARK   14  A    between atoms: O_25  and  C_26
REMARK                            x       y       z     vdW  Elec       q    Type
REMARK                         _______ _______ _______ _____ _____    ______ ____
ROOT
ATOM      1  C   UNL     1       4.507   5.498  17.581  0.00  0.00    +0.000 A 
ATOM      2  C   UNL     1       4.867   6.781  17.077  0.00  0.00    +0.000 A 
ATOM      3  C   UNL     1       3.987   7.860  17.220  0.00  0.00    +0.000 A 
ATOM      4  C   UNL     1       2.737   7.716  17.809  0.00  0.00    +0.000 A 
ATOM      5  C   UNL     1       2.338   6.442  18.214  0.00  0.00    +0.000 A 
ATOM      6  C   UNL     1       3.207   5.337  18.130  0.00  0.00    +0.000 A 
ENDROOT
BRANCH   2   7
ATOM      7  O   UNL     1       6.125   7.019  16.576  0.00  0.00    +0.000 OA
ATOM      8  C   UNL     1       7.188   7.183  17.512  0.00  0.00    +0.000 C 
ENDBRANCH   2   7
BRANCH   6   9
ATOM      9  O   UNL     1       2.606   4.209  18.621  0.00  0.00    +0.000 OA
ATOM     10  C   UNL     1       1.244   3.958  18.324  0.00  0.00    +0.000 C 
ENDBRANCH   6   9
BRANCH   1  11
ATOM     11  O   UNL     1       5.324   4.382  17.569  0.00  0.00    +0.000 OA
BRANCH  11  12
ATOM     12  C   UNL     1       5.191   3.485  16.465  0.00  0.00    +0.000 C 
BRANCH  12  13
ATOM     13  C   UNL     1       6.214   3.761  15.371  0.00  0.00    +0.000 C 
BRANCH  13  14
ATOM     14  C   UNL     1       5.544   4.175  14.065  0.00  0.00    +0.000 C 
BRANCH  14  15
ATOM     15  C   UNL     1       6.433   3.852  12.865  0.00  0.00    +0.000 C 
BRANCH  15  17
ATOM     16  C   UNL     1       4.374   3.310  11.529  0.00  0.00    +0.000 C 
ATOM     17  C   UNL     1       5.751   2.835  11.956  0.00  0.00    +0.000 C 
ENDBRANCH  15  17
ENDBRANCH  14  15
ENDBRANCH  13  14
ENDBRANCH  12  13
ENDBRANCH  11  12
ENDBRANCH   1  11
BRANCH   4  18
ATOM     18  C   UNL     1       1.900   8.942  18.064  0.00  0.00    +0.000 C 
BRANCH  18  19
ATOM     19  C   UNL     1       1.215   9.009  19.394  0.00  0.00    +0.000 A 
ATOM     20  C   UNL     1       1.707   8.294  20.465  0.00  0.00    +0.000 A 
ATOM     21  N   UNL     1       1.207   8.361  21.710  0.00  0.00    +0.000 NA
ATOM     22  C   UNL     1       0.149   9.152  21.874  0.00  0.00    +0.000 A 
ATOM     23  N   UNL     1      -0.331   9.300  23.160  0.00  0.00    +0.000 N 
ATOM     24  N   UNL     1      -0.427   9.874  20.908  0.00  0.00    +0.000 NA
ATOM     25  C   UNL     1       0.107   9.786  19.680  0.00  0.00    +0.000 A 
ATOM     26  H   UNL     1       0.408   9.080  23.813  0.00  0.00    +0.000 HD
ATOM     27  H   UNL     1      -0.773  10.205  23.255  0.00  0.00    +0.000 HD
BRANCH  25  28
ATOM     28  N   UNL     1      -0.555  10.534  18.705  0.00  0.00    +0.000 N 
ATOM     29  H   UNL     1      -1.485  10.732  19.072  0.00  0.00    +0.000 HD
ATOM     30  H   UNL     1      -0.062  11.387  18.469  0.00  0.00    +0.000 HD
ENDBRANCH  25  28
ENDBRANCH  18  19
ENDBRANCH   4  18
TORSDOF 11
ENDMDL
MODEL 7
REMARK VINA RESULT:      -6.7      3.586      6.747
REMARK  Name = 
REMARK  14 active torsions:
REMARK  status: ('A' for Active; 'I' for Inactive)
REMARK    1  A    between atoms: C_1  and  C_2
REMARK    2  A    between atoms: C_2  and  C_3
REMARK    3  A    between atoms: C_3  and  C_4
REMARK    4  A    between atoms: C_4  and  C_5
REMARK    5  A    between atoms: C_5  and  C_6
REMARK    6  A    between atoms: C_6  and  O_7
REMARK    7  A    between atoms: O_7  and  C_8
REMARK    8  A    between atoms: C_9  and  O_10
REMARK    9  A    between atoms: O_10  and  C_11
REMARK   10  A    between atoms: C_13  and  C_14
REMARK   11  A    between atoms: C_14  and  C_15
REMARK   12  A    between atoms: C_21  and  N_22
REMARK   13  A    between atoms: C_24  and  O_25
REMARK   14  A    between atoms: O_25  and  C_26
REMARK                            x       y       z     vdW  Elec       q    Type
REMARK                         _______ _______ _______ _____ _____    ______ ____
ROOT
ATOM      1  C   UNL     1       4.554   5.360  17.382  0.00  0.00    +0.000 A 
ATOM      2  C   UNL     1       3.224   5.169  17.853  0.00  0.00    +0.000 A 
ATOM      3  C   UNL     1       2.375   6.271  18.012  0.00  0.00    +0.000 A 
ATOM      4  C   UNL     1       2.800   7.569  17.762  0.00  0.00    +0.000 A 
ATOM      5  C   UNL     1       4.131   7.771  17.397  0.00  0.00    +0.000 A 
ATOM      6  C   UNL     1       5.009   6.690  17.182  0.00  0.00    +0.000 A 
ENDROOT
BRANCH   2   7
ATOM      7  O   UNL     1       2.704   3.908  18.022  0.00  0.00    +0.000 OA
ATOM      8  C   UNL     1       1.706   3.734  19.025  0.00  0.00    +0.000 C 
ENDBRANCH   2   7
BRANCH   6   9
ATOM      9  O   UNL     1       6.244   7.137  16.796  0.00  0.00    +0.000 OA
ATOM     10  C   UNL     1       7.315   7.115  17.722  0.00  0.00    +0.000 C 
ENDBRANCH   6   9
BRANCH   1  11
ATOM     11  O   UNL     1       5.454   4.344  17.111  0.00  0.00    +0.000 OA
BRANCH  11  12
ATOM     12  C   UNL     1       5.502   3.852  15.770  0.00  0.00    +0.000 C 
BRANCH  12  13
ATOM     13  C   UNL     1       6.777   4.270  15.047  0.00  0.00    +0.000 C 
BRANCH  13  14
ATOM     14  C   UNL     1       6.618   4.189  13.533  0.00  0.00    +0.000 C 
BRANCH  14  15
ATOM     15  C   UNL     1       5.226   3.687  13.153  0.00  0.00    +0.000 C 
BRANCH  15  17
ATOM     16  C   UNL     1       3.874   3.190  11.092  0.00  0.00    +0.000 C 
ATOM     17  C   UNL     1       5.239   3.093  11.749  0.00  0.00    +0.000 C 
ENDBRANCH  15  17
ENDBRANCH  14  15
ENDBRANCH  13  14
ENDBRANCH  12  13
ENDBRANCH  11  12
ENDBRANCH   1  11
BRANCH   4  18
ATOM     18  C   UNL     1       1.798   8.693  17.811  0.00  0.00    +0.000 C 
BRANCH  18  19
ATOM     19  C   UNL     1       1.228   9.011  19.158  0.00  0.00    +0.000 A 
ATOM     20  C   UNL     1       1.612   8.283  20.265  0.00  0.00    +0.000 A 
ATOM     21  N   UNL     1       1.217   8.553  21.520  0.00  0.00    +0.000 NA
ATOM     22  C   UNL     1       0.374   9.574  21.661  0.00  0.00    +0.000 A 
ATOM     23  N   UNL     1       0.018   9.921  22.948  0.00  0.00    +0.000 N 
ATOM     24  N   UNL     1      -0.085  10.335  20.662  0.00  0.00    +0.000 NA
ATOM     25  C   UNL     1       0.340  10.038  19.425  0.00  0.00    +0.000 A 
ATOM     26  H   UNL     1       0.728   9.588  23.586  0.00  0.00    +0.000 HD
ATOM     27  H   UNL     1      -0.205  10.907  22.985  0.00  0.00    +0.000 HD
BRANCH  25  28
ATOM     28  N   UNL     1      -0.197  10.843  18.418  0.00  0.00    +0.000 N 
ATOM     29  H   UNL     1      -0.074  11.808  18.722  0.00  0.00    +0.000 HD
ATOM     30  H   UNL     1       0.239  10.681  17.518  0.00  0.00    +0.000 HD
ENDBRANCH  25  28
ENDBRANCH  18  19
ENDBRANCH   4  18
TORSDOF 11
ENDMDL
MODEL 8
REMARK VINA RESULT:      -6.7      3.694      7.061
REMARK  Name = 
REMARK  14 active torsions:
REMARK  status: ('A' for Active; 'I' for Inactive)
REMARK    1  A    between atoms: C_1  and  C_2
REMARK    2  A    between atoms: C_2  and  C_3
REMARK    3  A    between atoms: C_3  and  C_4
REMARK    4  A    between atoms: C_4  and  C_5
REMARK    5  A    between atoms: C_5  and  C_6
REMARK    6  A    between atoms: C_6  and  O_7
REMARK    7  A    between atoms: O_7  and  C_8
REMARK    8  A    between atoms: C_9  and  O_10
REMARK    9  A    between atoms: O_10  and  C_11
REMARK   10  A    between atoms: C_13  and  C_14
REMARK   11  A    between atoms: C_14  and  C_15
REMARK   12  A    between atoms: C_21  and  N_22
REMARK   13  A    between atoms: C_24  and  O_25
REMARK   14  A    between atoms: O_25  and  C_26
REMARK                            x       y       z     vdW  Elec       q    Type
REMARK                         _______ _______ _______ _____ _____    ______ ____
ROOT
ATOM      1  C   UNL     1       5.345   4.785  16.759  0.00  0.00    +0.000 A 
ATOM      2  C   UNL     1       4.383   3.951  17.397  0.00  0.00    +0.000 A 
ATOM      3  C   UNL     1       3.469   4.505  18.302  0.00  0.00    +0.000 A 
ATOM      4  C   UNL     1       3.492   5.853  18.637  0.00  0.00    +0.000 A 
ATOM      5  C   UNL     1       4.495   6.654  18.092  0.00  0.00    +0.000 A 
ATOM      6  C   UNL     1       5.407   6.151  17.145  0.00  0.00    +0.000 A 
ENDROOT
BRANCH   2   7
ATOM      7  O   UNL     1       4.237   2.632  17.038  0.00  0.00    +0.000 OA
ATOM      8  C   UNL     1       3.466   1.796  17.897  0.00  0.00    +0.000 C 
ENDBRANCH   2   7
BRANCH   6   9
ATOM      9  O   UNL     1       6.268   7.132  16.730  0.00  0.00    +0.000 OA
ATOM     10  C   UNL     1       7.463   7.363  17.454  0.00  0.00    +0.000 C 
ENDBRANCH   6   9
BRANCH   1  11
ATOM     11  O   UNL     1       6.243   4.367  15.792  0.00  0.00    +0.000 OA
BRANCH  11  12
ATOM     12  C   UNL     1       5.878   4.574  14.427  0.00  0.00    +0.000 C 
BRANCH  12  13
ATOM     13  C   UNL     1       6.077   3.323  13.580  0.00  0.00    +0.000 C 
BRANCH  13  14
ATOM     14  C   UNL     1       5.660   3.552  12.131  0.00  0.00    +0.000 C 
BRANCH  14  15
ATOM     15  C   UNL     1       4.140   3.524  11.986  0.00  0.00    +0.000 C 
BRANCH  15  17
ATOM     16  C   UNL     1       3.011   4.143   9.826  0.00  0.00    +0.000 C 
ATOM     17  C   UNL     1       3.747   3.056  10.588  0.00  0.00    +0.000 C 
ENDBRANCH  15  17
ENDBRANCH  14  15
ENDBRANCH  13  14
ENDBRANCH  12  13
ENDBRANCH  11  12
ENDBRANCH   1  11
BRANCH   4  18
ATOM     18  C   UNL     1       2.393   6.412  19.501  0.00  0.00    +0.000 C 
BRANCH  18  19
ATOM     19  C   UNL     1       2.002   7.833  19.235  0.00  0.00    +0.000 A 
ATOM     20  C   UNL     1       2.080   8.348  17.958  0.00  0.00    +0.000 A 
ATOM     21  N   UNL     1       1.672   9.581  17.615  0.00  0.00    +0.000 NA
ATOM     22  C   UNL     1       1.201  10.338  18.605  0.00  0.00    +0.000 A 
ATOM     23  N   UNL     1       0.701  11.578  18.263  0.00  0.00    +0.000 N 
ATOM     24  N   UNL     1       1.100   9.956  19.882  0.00  0.00    +0.000 NA
ATOM     25  C   UNL     1       1.510   8.715  20.182  0.00  0.00    +0.000 A 
ATOM     26  H   UNL     1       0.438  11.568  17.287  0.00  0.00    +0.000 HD
ATOM     27  H   UNL     1      -0.010  11.851  18.927  0.00  0.00    +0.000 HD
BRANCH  25  28
ATOM     28  N   UNL     1       1.413   8.382  21.534  0.00  0.00    +0.000 N 
ATOM     29  H   UNL     1       1.208   9.248  22.031  0.00  0.00    +0.000 HD
ATOM     30  H   UNL     1       0.707   7.679  21.712  0.00  0.00    +0.000 HD
ENDBRANCH  25  28
ENDBRANCH  18  19
ENDBRANCH   4  18
TORSDOF 11
ENDMDL
MODEL 9
REMARK VINA RESULT:      -6.7      0.731      1.488
REMARK  Name = 
REMARK  14 active torsions:
REMARK  status: ('A' for Active; 'I' for Inactive)
REMARK    1  A    between atoms: C_1  and  C_2
REMARK    2  A    between atoms: C_2  and  C_3
REMARK    3  A    between atoms: C_3  and  C_4
REMARK    4  A    between atoms: C_4  and  C_5
REMARK    5  A    between atoms: C_5  and  C_6
REMARK    6  A    between atoms: C_6  and  O_7
REMARK    7  A    between atoms: O_7  and  C_8
REMARK    8  A    between atoms: C_9  and  O_10
REMARK    9  A    between atoms: O_10  and  C_11
REMARK   10  A    between atoms: C_13  and  C_14
REMARK   11  A    between atoms: C_14  and  C_15
REMARK   12  A    between atoms: C_21  and  N_22
REMARK   13  A    between atoms: C_24  and  O_25
REMARK   14  A    between atoms: O_25  and  C_26
REMARK                            x       y       z     vdW  Elec       q    Type
REMARK                         _______ _______ _______ _____ _____    ______ ____
ROOT
ATOM      1  C   UNL     1       5.917   6.454  16.729  0.00  0.00    +0.000 A 
ATOM      2  C   UNL     1       4.626   6.484  17.330  0.00  0.00    +0.000 A 
ATOM      3  C   UNL     1       3.885   5.303  17.452  0.00  0.00    +0.000 A 
ATOM      4  C   UNL     1       4.350   4.089  16.964  0.00  0.00    +0.000 A 
ATOM      5  C   UNL     1       5.568   4.072  16.284  0.00  0.00    +0.000 A 
ATOM      6  C   UNL     1       6.368   5.226  16.176  0.00  0.00    +0.000 A 
ENDROOT
BRANCH   2   7
ATOM      7  O   UNL     1       4.147   7.627  17.926  0.00  0.00    +0.000 OA
ATOM      8  C   UNL     1       2.735   7.750  18.076  0.00  0.00    +0.000 C 
ENDBRANCH   2   7
BRANCH   6   9
ATOM      9  O   UNL     1       7.528   4.952  15.502  0.00  0.00    +0.000 OA
ATOM     10  C   UNL     1       7.533   4.968  14.086  0.00  0.00    +0.000 C 
ENDBRANCH   6   9
BRANCH   1  11
ATOM     11  O   UNL     1       6.771   7.538  16.626  0.00  0.00    +0.000 OA
BRANCH  11  12
ATOM     12  C   UNL     1       7.668   7.770  17.713  0.00  0.00    +0.000 C 
BRANCH  12  13
ATOM     13  C   UNL     1       7.968   9.251  17.908  0.00  0.00    +0.000 C 
BRANCH  13  14
ATOM     14  C   UNL     1       9.266   9.466  18.679  0.00  0.00    +0.000 C 
BRANCH  14  15
ATOM     15  C   UNL     1       9.250  10.804  19.417  0.00  0.00    +0.000 C 
BRANCH  15  17
ATOM     16  C   UNL     1      10.782  12.641  18.640  0.00  0.00    +0.000 C 
ATOM     17  C   UNL     1      10.658  11.388  19.488  0.00  0.00    +0.000 C 
ENDBRANCH  15  17
ENDBRANCH  14  15
ENDBRANCH  13  14
ENDBRANCH  12  13
ENDBRANCH  11  12
ENDBRANCH   1  11
BRANCH   4  18
ATOM     18  C   UNL     1       3.573   2.833  17.256  0.00  0.00    +0.000 C 
BRANCH  18  19
ATOM     19  C   UNL     1       2.937   2.749  18.609  0.00  0.00    +0.000 A 
ATOM     20  C   UNL     1       3.671   2.319  19.695  0.00  0.00    +0.000 A 
ATOM     21  N   UNL     1       3.208   2.294  20.956  0.00  0.00    +0.000 NA
ATOM     22  C   UNL     1       1.945   2.683  21.124  0.00  0.00    +0.000 A 
ATOM     23  N   UNL     1       1.474   2.743  22.419  0.00  0.00    +0.000 N 
ATOM     24  N   UNL     1       1.133   3.097  20.146  0.00  0.00    +0.000 NA
ATOM     25  C   UNL     1       1.636   3.116  18.903  0.00  0.00    +0.000 A 
ATOM     26  H   UNL     1       2.258   2.834  23.050  0.00  0.00    +0.000 HD
ATOM     27  H   UNL     1       0.749   3.445  22.485  0.00  0.00    +0.000 HD
BRANCH  25  28
ATOM     28  N   UNL     1       0.734   3.525  17.919  0.00  0.00    +0.000 N 
ATOM     29  H   UNL     1       0.698   4.542  17.962  0.00  0.00    +0.000 HD
ATOM     30  H   UNL     1       0.996   3.204  16.994  0.00  0.00    +0.000 HD
ENDBRANCH  25  28
ENDBRANCH  18  19
ENDBRANCH   4  18
TORSDOF 11
ENDMDL
