MODEL 1
REMARK VINA RESULT:      -8.2      0.000      0.000
REMARK  Name = 
REMARK  2 active torsions:
REMARK  status: ('A' for Active; 'I' for Inactive)
REMARK    1  A    between atoms: C_3  and  C_4
REMARK    2  A    between atoms: C_6  and  C_7
REMARK                            x       y       z     vdW  Elec       q    Type
REMARK                         _______ _______ _______ _____ _____    ______ ____
ROOT
ATOM      1  O   UNL     1       3.111   5.293  20.272  0.00  0.00    +0.000 OA
ATOM      2  C   UNL     1       3.008   6.239  19.500  0.00  0.00    +0.000 A 
ATOM      3  C   UNL     1       3.762   6.312  18.226  0.00  0.00    +0.000 A 
ATOM      4  C   UNL     1       3.564   7.386  17.452  0.00  0.00    +0.000 A 
ATOM      5  O   UNL     1       2.740   8.454  17.718  0.00  0.00    +0.000 OA
ATOM      6  C   UNL     1       2.017   8.419  18.880  0.00  0.00    +0.000 A 
ATOM      7  C   UNL     1       1.165   9.495  19.126  0.00  0.00    +0.000 A 
ATOM      8  C   UNL     1       0.397   9.519  20.293  0.00  0.00    +0.000 A 
ATOM      9  C   UNL     1       0.483   8.470  21.209  0.00  0.00    +0.000 A 
ATOM     10  C   UNL     1       1.339   7.394  20.964  0.00  0.00    +0.000 A 
ATOM     11  C   UNL     1       2.106   7.371  19.795  0.00  0.00    +0.000 A 
ENDROOT
BRANCH   3  12
ATOM     12  C   UNL     1       4.639   5.144  17.869  0.00  0.00    +0.000 C 
ATOM     13  N   UNL     1       4.809   5.073  16.394  0.00  0.00    +0.000 NA
ATOM     14  C   UNL     1       6.020   4.795  16.029  0.00  0.00    +0.000 C 
ATOM     15  S   UNL     1       7.318   4.644  17.210  0.00  0.00    +0.000 S 
ATOM     16  S   UNL     1       6.201   5.260  18.787  0.00  0.00    +0.000 S 
BRANCH  14  17
ATOM     17  C   UNL     1       6.363   4.603  14.598  0.00  0.00    +0.000 A 
ATOM     18  C   UNL     1       5.636   3.674  13.837  0.00  0.00    +0.000 A 
ATOM     19  C   UNL     1       5.990   3.428  12.508  0.00  0.00    +0.000 A 
ATOM     20  C   UNL     1       7.072   4.098  11.937  0.00  0.00    +0.000 A 
ATOM     21  C   UNL     1       7.794   5.025  12.684  0.00  0.00    +0.000 A 
ATOM     22  C   UNL     1       7.440   5.279  14.011  0.00  0.00    +0.000 A 
ENDBRANCH  14  17
ENDBRANCH   3  12
TORSDOF 2
ENDMDL
MODEL 2
REMARK VINA RESULT:      -8.1      0.213      1.053
REMARK  Name = 
REMARK  2 active torsions:
REMARK  status: ('A' for Active; 'I' for Inactive)
REMARK    1  A    between atoms: C_3  and  C_4
REMARK    2  A    between atoms: C_6  and  C_7
REMARK                            x       y       z     vdW  Elec       q    Type
REMARK                         _______ _______ _______ _____ _____    ______ ____
ROOT
ATOM      1  O   UNL     1       3.061   5.512  20.209  0.00  0.00    +0.000 OA
ATOM      2  C   UNL     1       2.963   6.410  19.380  0.00  0.00    +0.000 A 
ATOM      3  C   UNL     1       3.708   6.395  18.099  0.00  0.00    +0.000 A 
ATOM      4  C   UNL     1       3.516   7.422  17.261  0.00  0.00    +0.000 A 
ATOM      5  O   UNL     1       2.708   8.514  17.466  0.00  0.00    +0.000 OA
ATOM      6  C   UNL     1       1.994   8.560  18.634  0.00  0.00    +0.000 A 
ATOM      7  C   UNL     1       1.156   9.659  18.820  0.00  0.00    +0.000 A 
ATOM      8  C   UNL     1       0.398   9.765  19.988  0.00  0.00    +0.000 A 
ATOM      9  C   UNL     1       0.479   8.774  20.967  0.00  0.00    +0.000 A 
ATOM     10  C   UNL     1       1.320   7.674  20.782  0.00  0.00    +0.000 A 
ATOM     11  C   UNL     1       2.078   7.569  19.612  0.00  0.00    +0.000 A 
ENDROOT
BRANCH   3  12
ATOM     12  C   UNL     1       4.567   5.196  17.808  0.00  0.00    +0.000 C 
ATOM     13  N   UNL     1       4.786   5.076  16.342  0.00  0.00    +0.000 NA
ATOM     14  C   UNL     1       6.002   4.759  16.029  0.00  0.00    +0.000 C 
ATOM     15  S   UNL     1       7.255   4.614  17.259  0.00  0.00    +0.000 S 
ATOM     16  S   UNL     1       6.099   5.304  18.776  0.00  0.00    +0.000 S 
BRANCH  14  17
ATOM     17  C   UNL     1       6.390   4.515  14.617  0.00  0.00    +0.000 A 
ATOM     18  C   UNL     1       7.449   5.247  14.060  0.00  0.00    +0.000 A 
ATOM     19  C   UNL     1       7.782   5.083  12.713  0.00  0.00    +0.000 A 
ATOM     20  C   UNL     1       7.057   4.197  11.917  0.00  0.00    +0.000 A 
ATOM     21  C   UNL     1       6.008   3.463  12.464  0.00  0.00    +0.000 A 
ATOM     22  C   UNL     1       5.675   3.619  13.811  0.00  0.00    +0.000 A 
ENDBRANCH  14  17
ENDBRANCH   3  12
TORSDOF 2
ENDMDL
MODEL 3
REMARK VINA RESULT:      -7.7      2.072      7.666
REMARK  Name = 
REMARK  2 active torsions:
REMARK  status: ('A' for Active; 'I' for Inactive)
REMARK    1  A    between atoms: C_3  and  C_4
REMARK    2  A    between atoms: C_6  and  C_7
REMARK                            x       y       z     vdW  Elec       q    Type
REMARK                         _______ _______ _______ _____ _____    ______ ____
ROOT
ATOM      1  O   UNL     1       7.293   6.302  16.379  0.00  0.00    +0.000 OA
ATOM      2  C   UNL     1       6.574   5.437  15.892  0.00  0.00    +0.000 A 
ATOM      3  C   UNL     1       5.453   4.820  16.640  0.00  0.00    +0.000 A 
ATOM      4  C   UNL     1       4.724   3.893  16.005  0.00  0.00    +0.000 A 
ATOM      5  O   UNL     1       4.912   3.430  14.725  0.00  0.00    +0.000 OA
ATOM      6  C   UNL     1       5.931   3.984  13.997  0.00  0.00    +0.000 A 
ATOM      7  C   UNL     1       6.095   3.525  12.690  0.00  0.00    +0.000 A 
ATOM      8  C   UNL     1       7.114   4.051  11.893  0.00  0.00    +0.000 A 
ATOM      9  C   UNL     1       7.966   5.032  12.403  0.00  0.00    +0.000 A 
ATOM     10  C   UNL     1       7.803   5.489  13.712  0.00  0.00    +0.000 A 
ATOM     11  C   UNL     1       6.782   4.962  14.509  0.00  0.00    +0.000 A 
ENDROOT
BRANCH   3  12
ATOM     12  C   UNL     1       5.179   5.330  18.027  0.00  0.00    +0.000 C 
ATOM     13  N   UNL     1       4.253   6.492  17.964  0.00  0.00    +0.000 NA
ATOM     14  C   UNL     1       3.341   6.473  18.883  0.00  0.00    +0.000 C 
ATOM     15  S   UNL     1       3.194   5.116  19.997  0.00  0.00    +0.000 S 
ATOM     16  S   UNL     1       4.580   3.966  19.063  0.00  0.00    +0.000 S 
BRANCH  14  17
ATOM     17  C   UNL     1       2.377   7.592  19.028  0.00  0.00    +0.000 A 
ATOM     18  C   UNL     1       2.084   8.393  17.913  0.00  0.00    +0.000 A 
ATOM     19  C   UNL     1       1.234   9.494  18.047  0.00  0.00    +0.000 A 
ATOM     20  C   UNL     1       0.682   9.805  19.289  0.00  0.00    +0.000 A 
ATOM     21  C   UNL     1       0.963   9.011  20.397  0.00  0.00    +0.000 A 
ATOM     22  C   UNL     1       1.807   7.906  20.268  0.00  0.00    +0.000 A 
ENDBRANCH  14  17
ENDBRANCH   3  12
TORSDOF 2
ENDMDL
MODEL 4
REMARK VINA RESULT:      -7.6      2.045      7.555
REMARK  Name = 
REMARK  2 active torsions:
REMARK  status: ('A' for Active; 'I' for Inactive)
REMARK    1  A    between atoms: C_3  and  C_4
REMARK    2  A    between atoms: C_6  and  C_7
REMARK                            x       y       z     vdW  Elec       q    Type
REMARK                         _______ _______ _______ _____ _____    ______ ____
ROOT
ATOM      1  O   UNL     1       4.082   3.958  16.034  0.00  0.00    +0.000 OA
ATOM      2  C   UNL     1       5.172   4.457  15.775  0.00  0.00    +0.000 A 
ATOM      3  C   UNL     1       5.940   5.246  16.766  0.00  0.00    +0.000 A 
ATOM      4  C   UNL     1       7.126   5.735  16.380  0.00  0.00    +0.000 A 
ATOM      5  O   UNL     1       7.712   5.598  15.145  0.00  0.00    +0.000 OA
ATOM      6  C   UNL     1       7.038   4.865  14.204  0.00  0.00    +0.000 A 
ATOM      7  C   UNL     1       7.655   4.710  12.963  0.00  0.00    +0.000 A 
ATOM      8  C   UNL     1       7.022   3.970  11.961  0.00  0.00    +0.000 A 
ATOM      9  C   UNL     1       5.776   3.389  12.201  0.00  0.00    +0.000 A 
ATOM     10  C   UNL     1       5.158   3.547  13.443  0.00  0.00    +0.000 A 
ATOM     11  C   UNL     1       5.793   4.286  14.446  0.00  0.00    +0.000 A 
ENDROOT
BRANCH   3  12
ATOM     12  C   UNL     1       5.361   5.382  18.147  0.00  0.00    +0.000 C 
ATOM     13  N   UNL     1       4.471   6.572  18.206  0.00  0.00    +0.000 NA
ATOM     14  C   UNL     1       3.377   6.362  18.866  0.00  0.00    +0.000 C 
ATOM     15  S   UNL     1       2.988   4.768  19.507  0.00  0.00    +0.000 S 
ATOM     16  S   UNL     1       4.549   3.829  18.616  0.00  0.00    +0.000 S 
BRANCH  14  17
ATOM     17  C   UNL     1       2.402   7.457  19.100  0.00  0.00    +0.000 A 
ATOM     18  C   UNL     1       2.113   8.351  18.058  0.00  0.00    +0.000 A 
ATOM     19  C   UNL     1       1.253   9.430  18.280  0.00  0.00    +0.000 A 
ATOM     20  C   UNL     1       0.687   9.625  19.539  0.00  0.00    +0.000 A 
ATOM     21  C   UNL     1       0.965   8.738  20.576  0.00  0.00    +0.000 A 
ATOM     22  C   UNL     1       1.819   7.655  20.357  0.00  0.00    +0.000 A 
ENDBRANCH  14  17
ENDBRANCH   3  12
TORSDOF 2
ENDMDL
MODEL 5
REMARK VINA RESULT:      -7.6      2.080      7.663
REMARK  Name = 
REMARK  2 active torsions:
REMARK  status: ('A' for Active; 'I' for Inactive)
REMARK    1  A    between atoms: C_3  and  C_4
REMARK    2  A    between atoms: C_6  and  C_7
REMARK                            x       y       z     vdW  Elec       q    Type
REMARK                         _______ _______ _______ _____ _____    ______ ____
ROOT
ATOM      1  O   UNL     1       7.282   6.295  16.380  0.00  0.00    +0.000 OA
ATOM      2  C   UNL     1       6.554   5.441  15.886  0.00  0.00    +0.000 A 
ATOM      3  C   UNL     1       5.420   4.838  16.624  0.00  0.00    +0.000 A 
ATOM      4  C   UNL     1       4.683   3.922  15.983  0.00  0.00    +0.000 A 
ATOM      5  O   UNL     1       4.873   3.460  14.703  0.00  0.00    +0.000 OA
ATOM      6  C   UNL     1       5.904   4.001  13.983  0.00  0.00    +0.000 A 
ATOM      7  C   UNL     1       6.071   3.544  12.676  0.00  0.00    +0.000 A 
ATOM      8  C   UNL     1       7.102   4.058  11.887  0.00  0.00    +0.000 A 
ATOM      9  C   UNL     1       7.964   5.026  12.405  0.00  0.00    +0.000 A 
ATOM     10  C   UNL     1       7.798   5.482  13.714  0.00  0.00    +0.000 A 
ATOM     11  C   UNL     1       6.765   4.967  14.503  0.00  0.00    +0.000 A 
ENDROOT
BRANCH   3  12
ATOM     12  C   UNL     1       5.143   5.348  18.011  0.00  0.00    +0.000 C 
ATOM     13  N   UNL     1       4.256   6.539  17.943  0.00  0.00    +0.000 NA
ATOM     14  C   UNL     1       3.332   6.543  18.850  0.00  0.00    +0.000 C 
ATOM     15  S   UNL     1       3.127   5.185  19.953  0.00  0.00    +0.000 S 
ATOM     16  S   UNL     1       4.488   3.997  19.031  0.00  0.00    +0.000 S 
BRANCH  14  17
ATOM     17  C   UNL     1       2.401   7.692  18.989  0.00  0.00    +0.000 A 
ATOM     18  C   UNL     1       1.804   7.944  20.234  0.00  0.00    +0.000 A 
ATOM     19  C   UNL     1       0.872   8.976  20.368  0.00  0.00    +0.000 A 
ATOM     20  C   UNL     1       0.526   9.752  19.262  0.00  0.00    +0.000 A 
ATOM     21  C   UNL     1       1.118   9.511  18.025  0.00  0.00    +0.000 A 
ATOM     22  C   UNL     1       2.055   8.485  17.888  0.00  0.00    +0.000 A 
ENDBRANCH  14  17
ENDBRANCH   3  12
TORSDOF 2
ENDMDL
MODEL 6
REMARK VINA RESULT:      -7.5      4.544      8.636
REMARK  Name = 
REMARK  2 active torsions:
REMARK  status: ('A' for Active; 'I' for Inactive)
REMARK    1  A    between atoms: C_3  and  C_4
REMARK    2  A    between atoms: C_6  and  C_7
REMARK                            x       y       z     vdW  Elec       q    Type
REMARK                         _______ _______ _______ _____ _____    ______ ____
ROOT
ATOM      1  O   UNL     1       2.500   8.617  17.328  0.00  0.00    +0.000 OA
ATOM      2  C   UNL     1       2.228   8.108  18.410  0.00  0.00    +0.000 A 
ATOM      3  C   UNL     1       1.496   8.839  19.471  0.00  0.00    +0.000 A 
ATOM      4  C   UNL     1       1.240   8.182  20.609  0.00  0.00    +0.000 A 
ATOM      5  O   UNL     1       1.599   6.892  20.916  0.00  0.00    +0.000 OA
ATOM      6  C   UNL     1       2.268   6.178  19.956  0.00  0.00    +0.000 A 
ATOM      7  C   UNL     1       2.604   4.861  20.268  0.00  0.00    +0.000 A 
ATOM      8  C   UNL     1       3.283   4.078  19.332  0.00  0.00    +0.000 A 
ATOM      9  C   UNL     1       3.625   4.612  18.089  0.00  0.00    +0.000 A 
ATOM     10  C   UNL     1       3.290   5.932  17.778  0.00  0.00    +0.000 A 
ATOM     11  C   UNL     1       2.609   6.715  18.715  0.00  0.00    +0.000 A 
ENDROOT
BRANCH   3  12
ATOM     12  C   UNL     1       1.039  10.238  19.163  0.00  0.00    +0.000 C 
ATOM     13  N   UNL     1      -0.224  10.195  18.379  0.00  0.00    +0.000 NA
ATOM     14  C   UNL     1      -1.093  11.078  18.756  0.00  0.00    +0.000 C 
ATOM     15  S   UNL     1      -0.794  12.120  20.144  0.00  0.00    +0.000 S 
ATOM     16  S   UNL     1       0.916  11.186  20.706  0.00  0.00    +0.000 S 
BRANCH  14  17
ATOM     17  C   UNL     1      -2.382  11.239  18.037  0.00  0.00    +0.000 A 
ATOM     18  C   UNL     1      -3.478  11.799  18.710  0.00  0.00    +0.000 A 
ATOM     19  C   UNL     1      -4.718  11.894  18.073  0.00  0.00    +0.000 A 
ATOM     20  C   UNL     1      -4.871  11.424  16.770  0.00  0.00    +0.000 A 
ATOM     21  C   UNL     1      -3.787  10.872  16.093  0.00  0.00    +0.000 A 
ATOM     22  C   UNL     1      -2.544  10.781  16.723  0.00  0.00    +0.000 A 
ENDBRANCH  14  17
ENDBRANCH   3  12
TORSDOF 2
ENDMDL
MODEL 7
REMARK VINA RESULT:      -7.5      4.266      8.250
REMARK  Name = 
REMARK  2 active torsions:
REMARK  status: ('A' for Active; 'I' for Inactive)
REMARK    1  A    between atoms: C_3  and  C_4
REMARK    2  A    between atoms: C_6  and  C_7
REMARK                            x       y       z     vdW  Elec       q    Type
REMARK                         _______ _______ _______ _____ _____    ______ ____
ROOT
ATOM      1  O   UNL     1       2.850   8.257  17.470  0.00  0.00    +0.000 OA
ATOM      2  C   UNL     1       2.545   7.642  18.486  0.00  0.00    +0.000 A 
ATOM      3  C   UNL     1       1.725   8.243  19.564  0.00  0.00    +0.000 A 
ATOM      4  C   UNL     1       1.441   7.475  20.624  0.00  0.00    +0.000 A 
ATOM      5  O   UNL     1       1.845   6.179  20.836  0.00  0.00    +0.000 OA
ATOM      6  C   UNL     1       2.595   5.584  19.857  0.00  0.00    +0.000 A 
ATOM      7  C   UNL     1       2.976   4.260  20.071  0.00  0.00    +0.000 A 
ATOM      8  C   UNL     1       3.740   3.593  19.110  0.00  0.00    +0.000 A 
ATOM      9  C   UNL     1       4.121   4.252  17.939  0.00  0.00    +0.000 A 
ATOM     10  C   UNL     1       3.741   5.578  17.727  0.00  0.00    +0.000 A 
ATOM     11  C   UNL     1       2.976   6.244  18.689  0.00  0.00    +0.000 A 
ENDROOT
BRANCH   3  12
ATOM     12  C   UNL     1       1.219   9.643  19.355  0.00  0.00    +0.000 C 
ATOM     13  N   UNL     1       0.080   9.630  18.398  0.00  0.00    +0.000 NA
ATOM     14  C   UNL     1      -0.890  10.414  18.745  0.00  0.00    +0.000 C 
ATOM     15  S   UNL     1      -0.854  11.294  20.271  0.00  0.00    +0.000 S 
ATOM     16  S   UNL     1       0.825  10.388  20.961  0.00  0.00    +0.000 S 
BRANCH  14  17
ATOM     17  C   UNL     1      -2.077  10.595  17.872  0.00  0.00    +0.000 A 
ATOM     18  C   UNL     1      -2.108   9.966  16.618  0.00  0.00    +0.000 A 
ATOM     19  C   UNL     1      -3.184  10.181  15.753  0.00  0.00    +0.000 A 
ATOM     20  C   UNL     1      -4.226  11.028  16.130  0.00  0.00    +0.000 A 
ATOM     21  C   UNL     1      -4.204  11.651  17.376  0.00  0.00    +0.000 A 
ATOM     22  C   UNL     1      -3.134  11.435  18.246  0.00  0.00    +0.000 A 
ENDBRANCH  14  17
ENDBRANCH   3  12
TORSDOF 2
ENDMDL
MODEL 8
REMARK VINA RESULT:      -7.4      2.062      7.558
REMARK  Name = 
REMARK  2 active torsions:
REMARK  status: ('A' for Active; 'I' for Inactive)
REMARK    1  A    between atoms: C_3  and  C_4
REMARK    2  A    between atoms: C_6  and  C_7
REMARK                            x       y       z     vdW  Elec       q    Type
REMARK                         _______ _______ _______ _____ _____    ______ ____
ROOT
ATOM      1  O   UNL     1       4.034   3.998  16.001  0.00  0.00    +0.000 OA
ATOM      2  C   UNL     1       5.130   4.489  15.756  0.00  0.00    +0.000 A 
ATOM      3  C   UNL     1       5.883   5.290  16.749  0.00  0.00    +0.000 A 
ATOM      4  C   UNL     1       7.078   5.769  16.378  0.00  0.00    +0.000 A 
ATOM      5  O   UNL     1       7.686   5.613  15.156  0.00  0.00    +0.000 OA
ATOM      6  C   UNL     1       7.026   4.869  14.214  0.00  0.00    +0.000 A 
ATOM      7  C   UNL     1       7.665   4.695  12.986  0.00  0.00    +0.000 A 
ATOM      8  C   UNL     1       7.048   3.944  11.983  0.00  0.00    +0.000 A 
ATOM      9  C   UNL     1       5.796   3.371  12.209  0.00  0.00    +0.000 A 
ATOM     10  C   UNL     1       5.156   3.547  13.437  0.00  0.00    +0.000 A 
ATOM     11  C   UNL     1       5.775   4.298  14.441  0.00  0.00    +0.000 A 
ENDROOT
BRANCH   3  12
ATOM     12  C   UNL     1       5.280   5.447  18.117  0.00  0.00    +0.000 C 
ATOM     13  N   UNL     1       4.435   6.670  18.159  0.00  0.00    +0.000 NA
ATOM     14  C   UNL     1       3.319   6.502  18.794  0.00  0.00    +0.000 C 
ATOM     15  S   UNL     1       2.855   4.924  19.423  0.00  0.00    +0.000 S 
ATOM     16  S   UNL     1       4.398   3.926  18.566  0.00  0.00    +0.000 S 
BRANCH  14  17
ATOM     17  C   UNL     1       2.383   7.634  19.008  0.00  0.00    +0.000 A 
ATOM     18  C   UNL     1       1.813   7.822  20.277  0.00  0.00    +0.000 A 
ATOM     19  C   UNL     1       0.876   8.838  20.480  0.00  0.00    +0.000 A 
ATOM     20  C   UNL     1       0.497   9.662  19.421  0.00  0.00    +0.000 A 
ATOM     21  C   UNL     1       1.062   9.484  18.161  0.00  0.00    +0.000 A 
ATOM     22  C   UNL     1       2.004   8.475  17.954  0.00  0.00    +0.000 A 
ENDBRANCH  14  17
ENDBRANCH   3  12
TORSDOF 2
ENDMDL
MODEL 9
REMARK VINA RESULT:      -7.4      4.680      9.004
REMARK  Name = 
REMARK  2 active torsions:
REMARK  status: ('A' for Active; 'I' for Inactive)
REMARK    1  A    between atoms: C_3  and  C_4
REMARK    2  A    between atoms: C_6  and  C_7
REMARK                            x       y       z     vdW  Elec       q    Type
REMARK                         _______ _______ _______ _____ _____    ______ ____
ROOT
ATOM      1  O   UNL     1       2.305   9.104  17.344  0.00  0.00    +0.000 OA
ATOM      2  C   UNL     1       2.046   8.578  18.421  0.00  0.00    +0.000 A 
ATOM      3  C   UNL     1       1.259   9.264  19.472  0.00  0.00    +0.000 A 
ATOM      4  C   UNL     1       1.026   8.591  20.606  0.00  0.00    +0.000 A 
ATOM      5  O   UNL     1       1.454   7.322  20.916  0.00  0.00    +0.000 OA
ATOM      6  C   UNL     1       2.175   6.650  19.964  0.00  0.00    +0.000 A 
ATOM      7  C   UNL     1       2.581   5.354  20.279  0.00  0.00    +0.000 A 
ATOM      8  C   UNL     1       3.316   4.612  19.352  0.00  0.00    +0.000 A 
ATOM      9  C   UNL     1       3.645   5.168  18.114  0.00  0.00    +0.000 A 
ATOM     10  C   UNL     1       3.240   6.467  17.801  0.00  0.00    +0.000 A 
ATOM     11  C   UNL     1       2.503   7.208  18.729  0.00  0.00    +0.000 A 
ENDROOT
BRANCH   3  12
ATOM     12  C   UNL     1       0.728  10.635  19.160  0.00  0.00    +0.000 C 
ATOM     13  N   UNL     1      -0.615  10.525  18.531  0.00  0.00    +0.000 NA
ATOM     14  C   UNL     1      -1.461  11.402  18.968  0.00  0.00    +0.000 C 
ATOM     15  S   UNL     1      -1.035  12.514  20.266  0.00  0.00    +0.000 S 
ATOM     16  S   UNL     1       0.756  11.650  20.664  0.00  0.00    +0.000 S 
BRANCH  14  17
ATOM     17  C   UNL     1      -2.828  11.497  18.398  0.00  0.00    +0.000 A 
ATOM     18  C   UNL     1      -3.043  11.111  17.066  0.00  0.00    +0.000 A 
ATOM     19  C   UNL     1      -4.307  11.261  16.489  0.00  0.00    +0.000 A 
ATOM     20  C   UNL     1      -5.355  11.802  17.233  0.00  0.00    +0.000 A 
ATOM     21  C   UNL     1      -5.150  12.182  18.557  0.00  0.00    +0.000 A 
ATOM     22  C   UNL     1      -3.890  12.029  19.139  0.00  0.00    +0.000 A 
ENDBRANCH  14  17
ENDBRANCH   3  12
TORSDOF 2
ENDMDL
