MODEL 1
REMARK VINA RESULT:      -9.2      0.000      0.000
REMARK  Name = 
REMARK  9 active torsions:
REMARK  status: ('A' for Active; 'I' for Inactive)
REMARK    1  A    between atoms: C_2  and  C_3
REMARK    2  A    between atoms: C_3  and  C_4
REMARK    3  A    between atoms: C_6  and  C_7
REMARK    4  A    between atoms: C_7  and  C_8
REMARK    5  A    between atoms: C_7  and  C_9
REMARK    6  A    between atoms: C_9  and  C_10
REMARK    7  A    between atoms: C_13  and  O_14
REMARK    8  A    between atoms: O_14  and  C_15
REMARK    9  A    between atoms: C_16  and  N_17
REMARK                            x       y       z     vdW  Elec       q    Type
REMARK                         _______ _______ _______ _____ _____    ______ ____
ROOT
ATOM      1  C   UNL     1       2.610   5.287  18.027  0.00  0.00    +0.000 C 
ATOM      2  C   UNL     1       1.370   4.421  17.755  0.00  0.00    +0.000 C 
ENDROOT
BRANCH   1   5
ATOM      3  C   UNL     1       5.770   5.173  15.811  0.00  0.00    +0.000 C 
ATOM      4  C   UNL     1       4.647   5.659  16.697  0.00  0.00    +0.000 C 
ATOM      5  C   UNL     1       4.078   4.671  17.747  0.00  0.00    +0.000 C 
ATOM      6  O   UNL     1       3.815   3.289  17.454  0.00  0.00    +0.000 OA
ATOM      7  C   UNL     1       4.054   2.626  18.738  0.00  0.00    +0.000 C 
ATOM      8  O   UNL     1       5.031   3.349  19.500  0.00  0.00    +0.000 OA
ATOM      9  C   UNL     1       5.306   4.357  18.590  0.00  0.00    +0.000 C 
ATOM     10  C   UNL     1       6.587   4.430  18.156  0.00  0.00    +0.000 C 
ATOM     11  C   UNL     1       6.914   4.811  16.739  0.00  0.00    +0.000 C 
ATOM     12  O   UNL     1       8.083   4.773  16.342  0.00  0.00    +0.000 OA
BRANCH   3  13
ATOM     13  C   UNL     1       5.374   4.028  14.867  0.00  0.00    +0.000 C 
BRANCH  13  15
ATOM     14  C   UNL     1       5.722   3.321  12.383  0.00  0.00    +0.000 C 
ATOM     15  C   UNL     1       6.120   3.819  13.563  0.00  0.00    +0.000 C 
ENDBRANCH  13  15
ENDBRANCH   3  13
ENDBRANCH   1   5
BRANCH   1  16
ATOM     16  C   UNL     1       2.485   6.111  19.322  0.00  0.00    +0.000 C 
BRANCH  16  17
ATOM     17  C   UNL     1       2.100   7.587  19.262  0.00  0.00    +0.000 A 
ATOM     18  C   UNL     1       2.443   8.250  18.084  0.00  0.00    +0.000 A 
ATOM     19  C   UNL     1       2.046   9.561  17.855  0.00  0.00    +0.000 A 
ATOM     20  C   UNL     1       1.282  10.264  18.798  0.00  0.00    +0.000 A 
ATOM     21  C   UNL     1       0.979   9.676  20.051  0.00  0.00    +0.000 A 
ATOM     22  C   UNL     1       1.374   8.308  20.231  0.00  0.00    +0.000 A 
BRANCH  21  23
ATOM     23  N   UNL     1       0.412  10.359  21.134  0.00  0.00    +0.000 N 
ATOM     24  C   UNL     1       0.188   9.678  22.425  0.00  0.00    +0.000 C 
ATOM     25  C   UNL     1      -0.991  10.366  23.140  0.00  0.00    +0.000 C 
ATOM     26  O   UNL     1      -0.742  11.768  23.343  0.00  0.00    +0.000 OA
ATOM     27  C   UNL     1      -0.521  12.422  22.080  0.00  0.00    +0.000 C 
ATOM     28  C   UNL     1       0.664  11.801  21.309  0.00  0.00    +0.000 C 
ENDBRANCH  21  23
BRANCH  20  29
ATOM     29  O   UNL     1       0.792  11.525  18.518  0.00  0.00    +0.000 OA
ATOM     30  C   UNL     1       1.766  12.520  18.214  0.00  0.00    +0.000 C 
ENDBRANCH  20  29
ENDBRANCH  16  17
ENDBRANCH   1  16
TORSDOF 7
ENDMDL
MODEL 2
REMARK VINA RESULT:      -9.1      2.230      4.400
REMARK  Name = 
REMARK  9 active torsions:
REMARK  status: ('A' for Active; 'I' for Inactive)
REMARK    1  A    between atoms: C_2  and  C_3
REMARK    2  A    between atoms: C_3  and  C_4
REMARK    3  A    between atoms: C_6  and  C_7
REMARK    4  A    between atoms: C_7  and  C_8
REMARK    5  A    between atoms: C_7  and  C_9
REMARK    6  A    between atoms: C_9  and  C_10
REMARK    7  A    between atoms: C_13  and  O_14
REMARK    8  A    between atoms: O_14  and  C_15
REMARK    9  A    between atoms: C_16  and  N_17
REMARK                            x       y       z     vdW  Elec       q    Type
REMARK                         _______ _______ _______ _____ _____    ______ ____
ROOT
ATOM      1  C   UNL     1       3.661   6.844  17.862  0.00  0.00    +0.000 C 
ATOM      2  C   UNL     1       4.738   7.208  16.827  0.00  0.00    +0.000 C 
ENDROOT
BRANCH   1   5
ATOM      3  C   UNL     1       1.255   3.903  18.553  0.00  0.00    +0.000 C 
ATOM      4  C   UNL     1       1.979   5.047  17.881  0.00  0.00    +0.000 C 
ATOM      5  C   UNL     1       3.458   5.293  18.273  0.00  0.00    +0.000 C 
ATOM      6  O   UNL     1       3.923   5.240  19.633  0.00  0.00    +0.000 OA
ATOM      7  C   UNL     1       5.302   4.765  19.493  0.00  0.00    +0.000 C 
ATOM      8  O   UNL     1       5.430   3.938  18.327  0.00  0.00    +0.000 OA
ATOM      9  C   UNL     1       4.114   3.972  17.897  0.00  0.00    +0.000 C 
ATOM     10  C   UNL     1       3.478   2.778  17.839  0.00  0.00    +0.000 C 
ATOM     11  C   UNL     1       2.022   2.646  18.186  0.00  0.00    +0.000 C 
ATOM     12  O   UNL     1       1.492   1.531  18.222  0.00  0.00    +0.000 OA
BRANCH   3  13
ATOM     13  C   UNL     1       1.071   4.078  20.067  0.00  0.00    +0.000 C 
BRANCH  13  15
ATOM     14  C   UNL     1       2.444   2.725  21.819  0.00  0.00    +0.000 C 
ATOM     15  C   UNL     1       1.393   2.939  21.014  0.00  0.00    +0.000 C 
ENDBRANCH  13  15
ENDBRANCH   3  13
ENDBRANCH   1   5
BRANCH   1  16
ATOM     16  C   UNL     1       2.360   7.645  17.672  0.00  0.00    +0.000 C 
BRANCH  16  17
ATOM     17  C   UNL     1       1.763   8.432  18.835  0.00  0.00    +0.000 A 
ATOM     18  C   UNL     1       1.758   7.776  20.066  0.00  0.00    +0.000 A 
ATOM     19  C   UNL     1       1.353   8.423  21.225  0.00  0.00    +0.000 A 
ATOM     20  C   UNL     1       0.936   9.762  21.200  0.00  0.00    +0.000 A 
ATOM     21  C   UNL     1       0.833  10.454  19.969  0.00  0.00    +0.000 A 
ATOM     22  C   UNL     1       1.298   9.762  18.802  0.00  0.00    +0.000 A 
BRANCH  21  23
ATOM     23  N   UNL     1       0.233  11.710  19.809  0.00  0.00    +0.000 N 
ATOM     24  C   UNL     1       0.900  12.775  19.034  0.00  0.00    +0.000 C 
ATOM     25  C   UNL     1       0.424  14.139  19.569  0.00  0.00    +0.000 C 
ATOM     26  O   UNL     1      -1.006  14.271  19.485  0.00  0.00    +0.000 OA
ATOM     27  C   UNL     1      -1.647  13.226  20.240  0.00  0.00    +0.000 C 
ATOM     28  C   UNL     1      -1.236  11.822  19.747  0.00  0.00    +0.000 C 
ENDBRANCH  21  23
BRANCH  20  29
ATOM     29  O   UNL     1       0.643  10.437  22.371  0.00  0.00    +0.000 OA
ATOM     30  C   UNL     1      -0.437   9.916  23.138  0.00  0.00    +0.000 C 
ENDBRANCH  20  29
ENDBRANCH  16  17
ENDBRANCH   1  16
TORSDOF 7
ENDMDL
MODEL 3
REMARK VINA RESULT:      -8.9      1.104      1.252
REMARK  Name = 
REMARK  9 active torsions:
REMARK  status: ('A' for Active; 'I' for Inactive)
REMARK    1  A    between atoms: C_2  and  C_3
REMARK    2  A    between atoms: C_3  and  C_4
REMARK    3  A    between atoms: C_6  and  C_7
REMARK    4  A    between atoms: C_7  and  C_8
REMARK    5  A    between atoms: C_7  and  C_9
REMARK    6  A    between atoms: C_9  and  C_10
REMARK    7  A    between atoms: C_13  and  O_14
REMARK    8  A    between atoms: O_14  and  C_15
REMARK    9  A    between atoms: C_16  and  N_17
REMARK                            x       y       z     vdW  Elec       q    Type
REMARK                         _______ _______ _______ _____ _____    ______ ____
ROOT
ATOM      1  C   UNL     1       2.593   5.599  18.702  0.00  0.00    +0.000 C 
ATOM      2  C   UNL     1       1.658   4.388  18.844  0.00  0.00    +0.000 C 
ENDROOT
BRANCH   1   5
ATOM      3  C   UNL     1       5.524   6.693  16.439  0.00  0.00    +0.000 C 
ATOM      4  C   UNL     1       4.417   6.697  17.468  0.00  0.00    +0.000 C 
ATOM      5  C   UNL     1       4.113   5.367  18.202  0.00  0.00    +0.000 C 
ATOM      6  O   UNL     1       4.057   4.099  17.528  0.00  0.00    +0.000 OA
ATOM      7  C   UNL     1       4.513   3.157  18.553  0.00  0.00    +0.000 C 
ATOM      8  O   UNL     1       5.419   3.803  19.459  0.00  0.00    +0.000 OA
ATOM      9  C   UNL     1       5.444   5.059  18.874  0.00  0.00    +0.000 C 
ATOM     10  C   UNL     1       6.653   5.485  18.435  0.00  0.00    +0.000 C 
ATOM     11  C   UNL     1       6.788   6.302  17.181  0.00  0.00    +0.000 C 
ATOM     12  O   UNL     1       7.909   6.592  16.749  0.00  0.00    +0.000 OA
BRANCH   3  13
ATOM     13  C   UNL     1       5.243   5.808  15.216  0.00  0.00    +0.000 C 
BRANCH  13  15
ATOM     14  C   UNL     1       6.206   3.833  13.817  0.00  0.00    +0.000 C 
ATOM     15  C   UNL     1       6.260   4.777  14.768  0.00  0.00    +0.000 C 
ENDBRANCH  13  15
ENDBRANCH   3  13
ENDBRANCH   1   5
BRANCH   1  16
ATOM     16  C   UNL     1       2.431   6.611  19.851  0.00  0.00    +0.000 C 
BRANCH  16  17
ATOM     17  C   UNL     1       1.774   7.965  19.599  0.00  0.00    +0.000 A 
ATOM     18  C   UNL     1       1.769   8.394  18.271  0.00  0.00    +0.000 A 
ATOM     19  C   UNL     1       1.101   9.549  17.890  0.00  0.00    +0.000 A 
ATOM     20  C   UNL     1       0.402  10.326  18.826  0.00  0.00    +0.000 A 
ATOM     21  C   UNL     1       0.445   9.993  20.202  0.00  0.00    +0.000 A 
ATOM     22  C   UNL     1       1.114   8.771  20.547  0.00  0.00    +0.000 A 
BRANCH  21  23
ATOM     23  N   UNL     1      -0.035  10.810  21.234  0.00  0.00    +0.000 N 
ATOM     24  C   UNL     1      -0.415  10.236  22.539  0.00  0.00    +0.000 C 
ATOM     25  C   UNL     1      -1.484  11.144  23.178  0.00  0.00    +0.000 C 
ATOM     26  O   UNL     1      -1.007  12.492  23.337  0.00  0.00    +0.000 OA
ATOM     27  C   UNL     1      -0.635  13.041  22.059  0.00  0.00    +0.000 C 
ATOM     28  C   UNL     1       0.453  12.196  21.363  0.00  0.00    +0.000 C 
ENDBRANCH  21  23
BRANCH  20  29
ATOM     29  O   UNL     1      -0.356  11.410  18.426  0.00  0.00    +0.000 OA
ATOM     30  C   UNL     1      -1.722  11.138  18.122  0.00  0.00    +0.000 C 
ENDBRANCH  20  29
ENDBRANCH  16  17
ENDBRANCH   1  16
TORSDOF 7
ENDMDL
MODEL 4
REMARK VINA RESULT:      -8.4      2.113      3.943
REMARK  Name = 
REMARK  9 active torsions:
REMARK  status: ('A' for Active; 'I' for Inactive)
REMARK    1  A    between atoms: C_2  and  C_3
REMARK    2  A    between atoms: C_3  and  C_4
REMARK    3  A    between atoms: C_6  and  C_7
REMARK    4  A    between atoms: C_7  and  C_8
REMARK    5  A    between atoms: C_7  and  C_9
REMARK    6  A    between atoms: C_9  and  C_10
REMARK    7  A    between atoms: C_13  and  O_14
REMARK    8  A    between atoms: O_14  and  C_15
REMARK    9  A    between atoms: C_16  and  N_17
REMARK                            x       y       z     vdW  Elec       q    Type
REMARK                         _______ _______ _______ _____ _____    ______ ____
ROOT
ATOM      1  C   UNL     1       3.603   6.925  17.778  0.00  0.00    +0.000 C 
ATOM      2  C   UNL     1       4.722   7.288  16.789  0.00  0.00    +0.000 C 
ENDROOT
BRANCH   1   5
ATOM      3  C   UNL     1       1.259   3.973  18.618  0.00  0.00    +0.000 C 
ATOM      4  C   UNL     1       1.950   5.105  17.893  0.00  0.00    +0.000 C 
ATOM      5  C   UNL     1       3.433   5.386  18.245  0.00  0.00    +0.000 C 
ATOM      6  O   UNL     1       3.928   5.385  19.594  0.00  0.00    +0.000 OA
ATOM      7  C   UNL     1       5.311   4.927  19.440  0.00  0.00    +0.000 C 
ATOM      8  O   UNL     1       5.427   4.064  18.299  0.00  0.00    +0.000 OA
ATOM      9  C   UNL     1       4.101   4.063  17.897  0.00  0.00    +0.000 C 
ATOM     10  C   UNL     1       3.484   2.858  17.893  0.00  0.00    +0.000 C 
ATOM     11  C   UNL     1       2.038   2.716  18.277  0.00  0.00    +0.000 C 
ATOM     12  O   UNL     1       1.526   1.595  18.361  0.00  0.00    +0.000 OA
BRANCH   3  13
ATOM     13  C   UNL     1       1.105   4.195  20.129  0.00  0.00    +0.000 C 
BRANCH  13  15
ATOM     14  C   UNL     1       2.421   2.739  21.843  0.00  0.00    +0.000 C 
ATOM     15  C   UNL     1       1.350   3.057  21.100  0.00  0.00    +0.000 C 
ENDBRANCH  13  15
ENDBRANCH   3  13
ENDBRANCH   1   5
BRANCH   1  16
ATOM     16  C   UNL     1       2.286   7.666  17.481  0.00  0.00    +0.000 C 
BRANCH  16  17
ATOM     17  C   UNL     1       1.967   8.981  18.186  0.00  0.00    +0.000 A 
ATOM     18  C   UNL     1       2.547  10.120  17.627  0.00  0.00    +0.000 A 
ATOM     19  C   UNL     1       2.242  11.389  18.100  0.00  0.00    +0.000 A 
ATOM     20  C   UNL     1       1.337  11.573  19.155  0.00  0.00    +0.000 A 
ATOM     21  C   UNL     1       0.785  10.452  19.823  0.00  0.00    +0.000 A 
ATOM     22  C   UNL     1       1.095   9.162  19.279  0.00  0.00    +0.000 A 
BRANCH  21  23
ATOM     23  N   UNL     1       0.045  10.519  21.011  0.00  0.00    +0.000 N 
ATOM     24  C   UNL     1      -1.099  11.442  21.140  0.00  0.00    +0.000 C 
ATOM     25  C   UNL     1      -1.265  11.809  22.627  0.00  0.00    +0.000 C 
ATOM     26  O   UNL     1      -1.462  10.640  23.442  0.00  0.00    +0.000 OA
ATOM     27  C   UNL     1      -0.343   9.744  23.306  0.00  0.00    +0.000 C 
ATOM     28  C   UNL     1      -0.125   9.312  21.841  0.00  0.00    +0.000 C 
ENDBRANCH  21  23
BRANCH  20  29
ATOM     29  O   UNL     1       0.949  12.840  19.547  0.00  0.00    +0.000 OA
ATOM     30  C   UNL     1       1.915  13.590  20.278  0.00  0.00    +0.000 C 
ENDBRANCH  20  29
ENDBRANCH  16  17
ENDBRANCH   1  16
TORSDOF 7
ENDMDL
MODEL 5
REMARK VINA RESULT:      -8.4      1.996      2.949
REMARK  Name = 
REMARK  9 active torsions:
REMARK  status: ('A' for Active; 'I' for Inactive)
REMARK    1  A    between atoms: C_2  and  C_3
REMARK    2  A    between atoms: C_3  and  C_4
REMARK    3  A    between atoms: C_6  and  C_7
REMARK    4  A    between atoms: C_7  and  C_8
REMARK    5  A    between atoms: C_7  and  C_9
REMARK    6  A    between atoms: C_9  and  C_10
REMARK    7  A    between atoms: C_13  and  O_14
REMARK    8  A    between atoms: O_14  and  C_15
REMARK    9  A    between atoms: C_16  and  N_17
REMARK                            x       y       z     vdW  Elec       q    Type
REMARK                         _______ _______ _______ _____ _____    ______ ____
ROOT
ATOM      1  C   UNL     1       2.546   7.169  18.507  0.00  0.00    +0.000 C 
ATOM      2  C   UNL     1       2.132   7.391  19.971  0.00  0.00    +0.000 C 
ENDROOT
BRANCH   1   5
ATOM      3  C   UNL     1       5.833   6.395  16.635  0.00  0.00    +0.000 C 
ATOM      4  C   UNL     1       4.801   7.040  17.531  0.00  0.00    +0.000 C 
ATOM      5  C   UNL     1       3.733   6.122  18.175  0.00  0.00    +0.000 C 
ATOM      6  O   UNL     1       3.066   5.073  17.452  0.00  0.00    +0.000 OA
ATOM      7  C   UNL     1       2.806   4.069  18.486  0.00  0.00    +0.000 C 
ATOM      8  O   UNL     1       3.807   4.137  19.512  0.00  0.00    +0.000 OA
ATOM      9  C   UNL     1       4.586   5.153  18.981  0.00  0.00    +0.000 C 
ATOM     10  C   UNL     1       5.870   4.828  18.699  0.00  0.00    +0.000 C 
ATOM     11  C   UNL     1       6.577   5.395  17.500  0.00  0.00    +0.000 C 
ATOM     12  O   UNL     1       7.713   5.006  17.209  0.00  0.00    +0.000 OA
BRANCH   3  13
ATOM     13  C   UNL     1       5.255   5.773  15.356  0.00  0.00    +0.000 C 
BRANCH  13  15
ATOM     14  C   UNL     1       6.253   3.849  13.910  0.00  0.00    +0.000 C 
ATOM     15  C   UNL     1       5.603   4.349  14.972  0.00  0.00    +0.000 C 
ENDBRANCH  13  15
ENDBRANCH   3  13
ENDBRANCH   1   5
BRANCH   1  16
ATOM     16  C   UNL     1       2.584   8.477  17.696  0.00  0.00    +0.000 C 
BRANCH  16  17
ATOM     17  C   UNL     1       1.607   9.606  18.011  0.00  0.00    +0.000 A 
ATOM     18  C   UNL     1       0.261   9.319  17.781  0.00  0.00    +0.000 A 
ATOM     19  C   UNL     1      -0.737  10.216  18.136  0.00  0.00    +0.000 A 
ATOM     20  C   UNL     1      -0.429  11.443  18.742  0.00  0.00    +0.000 A 
ATOM     21  C   UNL     1       0.922  11.831  18.919  0.00  0.00    +0.000 A 
ATOM     22  C   UNL     1       1.920  10.859  18.575  0.00  0.00    +0.000 A 
BRANCH  21  23
ATOM     23  N   UNL     1       1.338  13.108  19.315  0.00  0.00    +0.000 N 
ATOM     24  C   UNL     1       1.651  13.399  20.728  0.00  0.00    +0.000 C 
ATOM     25  C   UNL     1       1.403  14.898  20.984  0.00  0.00    +0.000 C 
ATOM     26  O   UNL     1       2.194  15.722  20.110  0.00  0.00    +0.000 OA
ATOM     27  C   UNL     1       1.884  15.429  18.734  0.00  0.00    +0.000 C 
ATOM     28  C   UNL     1       2.129  13.943  18.393  0.00  0.00    +0.000 C 
ENDBRANCH  21  23
BRANCH  20  29
ATOM     29  O   UNL     1      -1.428  12.281  19.199  0.00  0.00    +0.000 OA
ATOM     30  C   UNL     1      -2.762  11.888  18.891  0.00  0.00    +0.000 C 
ENDBRANCH  20  29
ENDBRANCH  16  17
ENDBRANCH   1  16
TORSDOF 7
ENDMDL
MODEL 6
REMARK VINA RESULT:      -8.4      1.312      2.711
REMARK  Name = 
REMARK  9 active torsions:
REMARK  status: ('A' for Active; 'I' for Inactive)
REMARK    1  A    between atoms: C_2  and  C_3
REMARK    2  A    between atoms: C_3  and  C_4
REMARK    3  A    between atoms: C_6  and  C_7
REMARK    4  A    between atoms: C_7  and  C_8
REMARK    5  A    between atoms: C_7  and  C_9
REMARK    6  A    between atoms: C_9  and  C_10
REMARK    7  A    between atoms: C_13  and  O_14
REMARK    8  A    between atoms: O_14  and  C_15
REMARK    9  A    between atoms: C_16  and  N_17
REMARK                            x       y       z     vdW  Elec       q    Type
REMARK                         _______ _______ _______ _____ _____    ______ ____
ROOT
ATOM      1  C   UNL     1       3.014   5.938  18.057  0.00  0.00    +0.000 C 
ATOM      2  C   UNL     1       1.649   5.252  17.887  0.00  0.00    +0.000 C 
ENDROOT
BRANCH   1   5
ATOM      3  C   UNL     1       5.628   5.400  15.266  0.00  0.00    +0.000 C 
ATOM      4  C   UNL     1       4.751   6.041  16.317  0.00  0.00    +0.000 C 
ATOM      5  C   UNL     1       4.346   5.181  17.540  0.00  0.00    +0.000 C 
ATOM      6  O   UNL     1       3.932   3.809  17.425  0.00  0.00    +0.000 OA
ATOM      7  C   UNL     1       4.386   3.218  18.686  0.00  0.00    +0.000 C 
ATOM      8  O   UNL     1       5.548   3.907  19.171  0.00  0.00    +0.000 OA
ATOM      9  C   UNL     1       5.697   4.822  18.142  0.00  0.00    +0.000 C 
ATOM     10  C   UNL     1       6.862   4.756  17.453  0.00  0.00    +0.000 C 
ATOM     11  C   UNL     1       6.913   5.008  15.972  0.00  0.00    +0.000 C 
ATOM     12  O   UNL     1       7.968   4.843  15.352  0.00  0.00    +0.000 OA
BRANCH   3  13
ATOM     13  C   UNL     1       4.967   4.231  14.523  0.00  0.00    +0.000 C 
BRANCH  13  15
ATOM     14  C   UNL     1       6.308   3.364  12.464  0.00  0.00    +0.000 C 
ATOM     15  C   UNL     1       5.277   3.982  13.060  0.00  0.00    +0.000 C 
ENDBRANCH  13  15
ENDBRANCH   3  13
ENDBRANCH   1   5
BRANCH   1  16
ATOM     16  C   UNL     1       3.154   6.649  19.415  0.00  0.00    +0.000 C 
BRANCH  16  17
ATOM     17  C   UNL     1       2.062   7.596  19.905  0.00  0.00    +0.000 A 
ATOM     18  C   UNL     1       1.448   7.236  21.105  0.00  0.00    +0.000 A 
ATOM     19  C   UNL     1       0.523   8.070  21.719  0.00  0.00    +0.000 A 
ATOM     20  C   UNL     1       0.176   9.307  21.157  0.00  0.00    +0.000 A 
ATOM     21  C   UNL     1       0.696   9.688  19.895  0.00  0.00    +0.000 A 
ATOM     22  C   UNL     1       1.676   8.816  19.315  0.00  0.00    +0.000 A 
BRANCH  21  23
ATOM     23  N   UNL     1       0.256  10.791  19.153  0.00  0.00    +0.000 N 
ATOM     24  C   UNL     1       1.178  11.894  18.818  0.00  0.00    +0.000 C 
ATOM     25  C   UNL     1       0.353  13.184  18.647  0.00  0.00    +0.000 C 
ATOM     26  O   UNL     1      -0.654  13.038  17.630  0.00  0.00    +0.000 OA
ATOM     27  C   UNL     1      -1.545  11.957  17.964  0.00  0.00    +0.000 C 
ATOM     28  C   UNL     1      -0.792  10.620  18.131  0.00  0.00    +0.000 C 
ENDBRANCH  21  23
BRANCH  20  29
ATOM     29  O   UNL     1      -0.656  10.184  21.827  0.00  0.00    +0.000 OA
ATOM     30  C   UNL     1      -0.685  10.057  23.246  0.00  0.00    +0.000 C 
ENDBRANCH  20  29
ENDBRANCH  16  17
ENDBRANCH   1  16
TORSDOF 7
ENDMDL
MODEL 7
REMARK VINA RESULT:      -8.4      2.431      8.484
REMARK  Name = 
REMARK  9 active torsions:
REMARK  status: ('A' for Active; 'I' for Inactive)
REMARK    1  A    between atoms: C_2  and  C_3
REMARK    2  A    between atoms: C_3  and  C_4
REMARK    3  A    between atoms: C_6  and  C_7
REMARK    4  A    between atoms: C_7  and  C_8
REMARK    5  A    between atoms: C_7  and  C_9
REMARK    6  A    between atoms: C_9  and  C_10
REMARK    7  A    between atoms: C_13  and  O_14
REMARK    8  A    between atoms: O_14  and  C_15
REMARK    9  A    between atoms: C_16  and  N_17
REMARK                            x       y       z     vdW  Elec       q    Type
REMARK                         _______ _______ _______ _____ _____    ______ ____
ROOT
ATOM      1  C   UNL     1       1.439   8.673  20.723  0.00  0.00    +0.000 C 
ATOM      2  C   UNL     1       1.455   9.081  22.204  0.00  0.00    +0.000 C 
ENDROOT
BRANCH   1   5
ATOM      3  C   UNL     1      -1.408  10.921  19.399  0.00  0.00    +0.000 C 
ATOM      4  C   UNL     1      -0.363  10.293  20.292  0.00  0.00    +0.000 C 
ATOM      5  C   UNL     1       0.916   9.733  19.620  0.00  0.00    +0.000 C 
ATOM      6  O   UNL     1       0.886   8.968  18.403  0.00  0.00    +0.000 OA
ATOM      7  C   UNL     1       2.160   9.309  17.765  0.00  0.00    +0.000 C 
ATOM      8  O   UNL     1       2.569  10.632  18.139  0.00  0.00    +0.000 OA
ATOM      9  C   UNL     1       1.490  10.969  18.940  0.00  0.00    +0.000 C 
ATOM     10  C   UNL     1       0.766  12.042  18.539  0.00  0.00    +0.000 C 
ATOM     11  C   UNL     1      -0.726  12.089  18.709  0.00  0.00    +0.000 C 
ATOM     12  O   UNL     1      -1.373  13.034  18.245  0.00  0.00    +0.000 OA
BRANCH   3  13
ATOM     13  C   UNL     1      -2.067   9.942  18.418  0.00  0.00    +0.000 C 
BRANCH  13  15
ATOM     14  C   UNL     1      -2.807   9.939  15.920  0.00  0.00    +0.000 C 
ATOM     15  C   UNL     1      -1.943  10.157  16.922  0.00  0.00    +0.000 C 
ENDBRANCH  13  15
ENDBRANCH   3  13
ENDBRANCH   1   5
BRANCH   1  16
ATOM     16  C   UNL     1       0.964   7.224  20.512  0.00  0.00    +0.000 C 
BRANCH  16  17
ATOM     17  C   UNL     1       1.974   6.115  20.230  0.00  0.00    +0.000 A 
ATOM     18  C   UNL     1       1.727   4.900  20.870  0.00  0.00    +0.000 A 
ATOM     19  C   UNL     1       2.501   3.778  20.606  0.00  0.00    +0.000 A 
ATOM     20  C   UNL     1       3.558   3.825  19.685  0.00  0.00    +0.000 A 
ATOM     21  C   UNL     1       3.914   5.051  19.072  0.00  0.00    +0.000 A 
ATOM     22  C   UNL     1       3.065   6.175  19.341  0.00  0.00    +0.000 A 
BRANCH  21  23
ATOM     23  N   UNL     1       5.071   5.252  18.307  0.00  0.00    +0.000 N 
ATOM     24  C   UNL     1       5.029   6.045  17.064  0.00  0.00    +0.000 C 
ATOM     25  C   UNL     1       6.154   5.552  16.133  0.00  0.00    +0.000 C 
ATOM     26  O   UNL     1       7.444   5.660  16.759  0.00  0.00    +0.000 OA
ATOM     27  C   UNL     1       7.474   4.887  17.973  0.00  0.00    +0.000 C 
ATOM     28  C   UNL     1       6.386   5.337  18.970  0.00  0.00    +0.000 C 
ENDBRANCH  21  23
BRANCH  20  29
ATOM     29  O   UNL     1       4.252   2.680  19.340  0.00  0.00    +0.000 OA
ATOM     30  C   UNL     1       3.589   1.795  18.442  0.00  0.00    +0.000 C 
ENDBRANCH  20  29
ENDBRANCH  16  17
ENDBRANCH   1  16
TORSDOF 7
ENDMDL
MODEL 8
REMARK VINA RESULT:      -8.3      1.979      3.181
REMARK  Name = 
REMARK  9 active torsions:
REMARK  status: ('A' for Active; 'I' for Inactive)
REMARK    1  A    between atoms: C_2  and  C_3
REMARK    2  A    between atoms: C_3  and  C_4
REMARK    3  A    between atoms: C_6  and  C_7
REMARK    4  A    between atoms: C_7  and  C_8
REMARK    5  A    between atoms: C_7  and  C_9
REMARK    6  A    between atoms: C_9  and  C_10
REMARK    7  A    between atoms: C_13  and  O_14
REMARK    8  A    between atoms: O_14  and  C_15
REMARK    9  A    between atoms: C_16  and  N_17
REMARK                            x       y       z     vdW  Elec       q    Type
REMARK                         _______ _______ _______ _____ _____    ______ ____
ROOT
ATOM      1  C   UNL     1       2.412   7.112  18.525  0.00  0.00    +0.000 C 
ATOM      2  C   UNL     1       2.099   7.499  19.979  0.00  0.00    +0.000 C 
ENDROOT
BRANCH   1   5
ATOM      3  C   UNL     1       5.759   6.488  16.702  0.00  0.00    +0.000 C 
ATOM      4  C   UNL     1       4.683   7.090  17.576  0.00  0.00    +0.000 C 
ATOM      5  C   UNL     1       3.658   6.126  18.223  0.00  0.00    +0.000 C 
ATOM      6  O   UNL     1       3.057   5.031  17.509  0.00  0.00    +0.000 OA
ATOM      7  C   UNL     1       2.839   4.031  18.557  0.00  0.00    +0.000 C 
ATOM      8  O   UNL     1       3.822   4.169  19.593  0.00  0.00    +0.000 OA
ATOM      9  C   UNL     1       4.552   5.217  19.055  0.00  0.00    +0.000 C 
ATOM     10  C   UNL     1       5.855   4.958  18.793  0.00  0.00    +0.000 C 
ATOM     11  C   UNL     1       6.545   5.543  17.593  0.00  0.00    +0.000 C 
ATOM     12  O   UNL     1       7.704   5.212  17.321  0.00  0.00    +0.000 OA
BRANCH   3  13
ATOM     13  C   UNL     1       5.231   5.815  15.427  0.00  0.00    +0.000 C 
BRANCH  13  15
ATOM     14  C   UNL     1       6.283   3.841  14.093  0.00  0.00    +0.000 C 
ATOM     15  C   UNL     1       5.596   4.378  15.112  0.00  0.00    +0.000 C 
ENDBRANCH  13  15
ENDBRANCH   3  13
ENDBRANCH   1   5
BRANCH   1  16
ATOM     16  C   UNL     1       2.267   8.296  17.551  0.00  0.00    +0.000 C 
BRANCH  16  17
ATOM     17  C   UNL     1       1.534   9.563  17.984  0.00  0.00    +0.000 A 
ATOM     18  C   UNL     1       0.142   9.501  17.929  0.00  0.00    +0.000 A 
ATOM     19  C   UNL     1      -0.644  10.541  18.405  0.00  0.00    +0.000 A 
ATOM     20  C   UNL     1      -0.066  11.691  18.963  0.00  0.00    +0.000 A 
ATOM     21  C   UNL     1       1.341  11.853  18.964  0.00  0.00    +0.000 A 
ATOM     22  C   UNL     1       2.116  10.739  18.498  0.00  0.00    +0.000 A 
BRANCH  21  23
ATOM     23  N   UNL     1       2.005  13.040  19.299  0.00  0.00    +0.000 N 
ATOM     24  C   UNL     1       1.887  14.239  18.447  0.00  0.00    +0.000 C 
ATOM     25  C   UNL     1       3.160  15.089  18.623  0.00  0.00    +0.000 C 
ATOM     26  O   UNL     1       3.363  15.461  19.997  0.00  0.00    +0.000 OA
ATOM     27  C   UNL     1       3.473  14.285  20.820  0.00  0.00    +0.000 C 
ATOM     28  C   UNL     1       2.220  13.389  20.715  0.00  0.00    +0.000 C 
ENDBRANCH  21  23
BRANCH  20  29
ATOM     29  O   UNL     1      -0.851  12.673  19.540  0.00  0.00    +0.000 OA
ATOM     30  C   UNL     1      -2.229  12.353  19.707  0.00  0.00    +0.000 C 
ENDBRANCH  20  29
ENDBRANCH  16  17
ENDBRANCH   1  16
TORSDOF 7
ENDMDL
MODEL 9
REMARK VINA RESULT:      -8.3      2.312      4.450
REMARK  Name = 
REMARK  9 active torsions:
REMARK  status: ('A' for Active; 'I' for Inactive)
REMARK    1  A    between atoms: C_2  and  C_3
REMARK    2  A    between atoms: C_3  and  C_4
REMARK    3  A    between atoms: C_6  and  C_7
REMARK    4  A    between atoms: C_7  and  C_8
REMARK    5  A    between atoms: C_7  and  C_9
REMARK    6  A    between atoms: C_9  and  C_10
REMARK    7  A    between atoms: C_13  and  O_14
REMARK    8  A    between atoms: O_14  and  C_15
REMARK    9  A    between atoms: C_16  and  N_17
REMARK                            x       y       z     vdW  Elec       q    Type
REMARK                         _______ _______ _______ _____ _____    ______ ____
ROOT
ATOM      1  C   UNL     1       3.902   7.037  17.883  0.00  0.00    +0.000 C 
ATOM      2  C   UNL     1       5.142   7.518  17.113  0.00  0.00    +0.000 C 
ENDROOT
BRANCH   1   5
ATOM      3  C   UNL     1       1.517   4.018  18.212  0.00  0.00    +0.000 C 
ATOM      4  C   UNL     1       2.250   5.225  17.674  0.00  0.00    +0.000 C 
ATOM      5  C   UNL     1       3.706   5.454  18.150  0.00  0.00    +0.000 C 
ATOM      6  O   UNL     1       4.114   5.289  19.519  0.00  0.00    +0.000 OA
ATOM      7  C   UNL     1       5.505   4.845  19.400  0.00  0.00    +0.000 C 
ATOM      8  O   UNL     1       5.697   4.124  18.174  0.00  0.00    +0.000 OA
ATOM      9  C   UNL     1       4.399   4.179  17.691  0.00  0.00    +0.000 C 
ATOM     10  C   UNL     1       3.786   2.986  17.502  0.00  0.00    +0.000 C 
ATOM     11  C   UNL     1       2.319   2.807  17.773  0.00  0.00    +0.000 C 
ATOM     12  O   UNL     1       1.806   1.686  17.690  0.00  0.00    +0.000 OA
BRANCH   3  13
ATOM     13  C   UNL     1       1.265   4.059  19.726  0.00  0.00    +0.000 C 
BRANCH  13  15
ATOM     14  C   UNL     1       1.611   2.714  21.931  0.00  0.00    +0.000 C 
ATOM     15  C   UNL     1       1.716   2.911  20.608  0.00  0.00    +0.000 C 
ENDBRANCH  13  15
ENDBRANCH   3  13
ENDBRANCH   1   5
BRANCH   1  16
ATOM     16  C   UNL     1       2.623   7.794  17.481  0.00  0.00    +0.000 C 
BRANCH  16  17
ATOM     17  C   UNL     1       1.717   8.398  18.550  0.00  0.00    +0.000 A 
ATOM     18  C   UNL     1       2.034   8.064  19.867  0.00  0.00    +0.000 A 
ATOM     19  C   UNL     1       1.364   8.640  20.937  0.00  0.00    +0.000 A 
ATOM     20  C   UNL     1       0.345   9.582  20.733  0.00  0.00    +0.000 A 
ATOM     21  C   UNL     1      -0.084   9.895  19.420  0.00  0.00    +0.000 A 
ATOM     22  C   UNL     1       0.661   9.308  18.344  0.00  0.00    +0.000 A 
BRANCH  21  23
ATOM     23  N   UNL     1      -1.222  10.653  19.114  0.00  0.00    +0.000 N 
ATOM     24  C   UNL     1      -1.355  12.044  19.588  0.00  0.00    +0.000 C 
ATOM     25  C   UNL     1      -2.854  12.372  19.722  0.00  0.00    +0.000 C 
ATOM     26  O   UNL     1      -3.549  12.193  18.475  0.00  0.00    +0.000 OA
ATOM     27  C   UNL     1      -3.409  10.835  18.018  0.00  0.00    +0.000 C 
ATOM     28  C   UNL     1      -1.929  10.436  17.838  0.00  0.00    +0.000 C 
ENDBRANCH  21  23
BRANCH  20  29
ATOM     29  O   UNL     1      -0.241  10.238  21.800  0.00  0.00    +0.000 OA
ATOM     30  C   UNL     1      -0.484   9.448  22.960  0.00  0.00    +0.000 C 
ENDBRANCH  20  29
ENDBRANCH  16  17
ENDBRANCH   1  16
TORSDOF 7
ENDMDL
