MODEL 1
REMARK VINA RESULT:      -8.4      0.000      0.000
REMARK  Name = 
REMARK  7 active torsions:
REMARK  status: ('A' for Active; 'I' for Inactive)
REMARK    1  A    between atoms: C_4  and  C_5
REMARK    2  A    between atoms: C_9  and  N_10
REMARK    3  A    between atoms: C_11  and  C_12
REMARK    4  A    between atoms: N_14  and  C_15
REMARK    5  A    between atoms: C_15  and  C_16
REMARK    6  A    between atoms: C_16  and  C_17
REMARK    7  A    between atoms: C_20  and  N_21
REMARK                            x       y       z     vdW  Elec       q    Type
REMARK                         _______ _______ _______ _____ _____    ______ ____
ROOT
ATOM      1  C   UNL     1       6.213   6.787  17.244  0.00  0.00    +0.000 C 
ATOM      2  O   UNL     1       6.544   6.641  16.068  0.00  0.00    +0.000 OA
ATOM      3  N   UNL     1       6.755   7.792  18.027  0.00  0.00    +0.000 N 
ATOM      4  H   UNL     1       6.518   7.797  19.011  0.00  0.00    +0.000 HD
ENDROOT
BRANCH   1  11
ATOM      5  N   UNL     1       0.198   3.480  20.048  0.00  0.00    +0.000 N 
ATOM      6  C   UNL     1       1.540   3.718  19.758  0.00  0.00    +0.000 A 
ATOM      7  C   UNL     1       2.492   2.759  20.061  0.00  0.00    +0.000 A 
ATOM      8  C   UNL     1       3.839   2.962  19.726  0.00  0.00    +0.000 A 
ATOM      9  C   UNL     1       4.168   4.175  19.062  0.00  0.00    +0.000 A 
ATOM     10  C   UNL     1       5.394   4.736  18.551  0.00  0.00    +0.000 A 
ATOM     11  C   UNL     1       5.216   5.950  17.901  0.00  0.00    +0.000 A 
ATOM     12  S   UNL     1       3.576   6.444  17.969  0.00  0.00    +0.000 S 
ATOM     13  C   UNL     1       3.109   5.042  18.805  0.00  0.00    +0.000 A 
ATOM     14  N   UNL     1       1.812   4.864  19.126  0.00  0.00    +0.000 NA
ATOM     15  H   UNL     1       0.055   3.208  21.014  0.00  0.00    +0.000 HD
ATOM     16  H   UNL     1      -0.324   4.318  19.805  0.00  0.00    +0.000 HD
BRANCH   8  17
ATOM     17  C   UNL     1       4.848   1.891  20.026  0.00  0.00    +0.000 C 
ATOM     18  F   UNL     1       4.839   1.516  21.337  0.00  0.00    +0.000 F 
ATOM     19  F   UNL     1       4.643   0.741  19.319  0.00  0.00    +0.000 F 
ENDBRANCH   8  17
BRANCH  10  20
ATOM     20  N   UNL     1       6.600   4.120  18.664  0.00  0.00    +0.000 N 
ATOM     21  H   UNL     1       6.663   3.114  18.818  0.00  0.00    +0.000 HD
ATOM     22  H   UNL     1       7.344   4.606  19.176  0.00  0.00    +0.000 HD
ENDBRANCH  10  20
ENDBRANCH   1  11
BRANCH   3  23
ATOM     23  C   UNL     1       7.764   8.709  17.529  0.00  0.00    +0.000 C 
BRANCH  23  24
ATOM     24  C   UNL     1       8.797   9.062  18.602  0.00  0.00    +0.000 C 
BRANCH  24  25
ATOM     25  C   UNL     1       9.177  10.519  18.577  0.00  0.00    +0.000 A 
ATOM     26  C   UNL     1      10.174  11.013  19.421  0.00  0.00    +0.000 A 
ATOM     27  C   UNL     1      10.515  12.372  19.398  0.00  0.00    +0.000 A 
ATOM     28  C   UNL     1       9.881  13.285  18.543  0.00  0.00    +0.000 A 
ATOM     29  C   UNL     1       8.882  12.768  17.707  0.00  0.00    +0.000 A 
ATOM     30  C   UNL     1       8.529  11.412  17.722  0.00  0.00    +0.000 A 
BRANCH  28  31
ATOM     31  N   UNL     1      10.233  14.617  18.529  0.00  0.00    +0.000 N 
ATOM     32  C   UNL     1      11.432  15.127  17.850  0.00  0.00    +0.000 C 
ATOM     33  C   UNL     1      11.046  16.161  16.771  0.00  0.00    +0.000 C 
ATOM     34  N   UNL     1      10.219  17.267  17.296  0.00  0.00    +0.000 NA
ATOM     35  C   UNL     1       9.022  16.704  17.956  0.00  0.00    +0.000 C 
ATOM     36  C   UNL     1       9.338  15.660  19.056  0.00  0.00    +0.000 C 
ATOM     37  H   UNL     1       9.922  17.856  16.520  0.00  0.00    +0.000 HD
ENDBRANCH  28  31
ENDBRANCH  24  25
ENDBRANCH  23  24
ENDBRANCH   3  23
TORSDOF 7
ENDMDL
MODEL 2
REMARK VINA RESULT:      -8.3      0.549      1.073
REMARK  Name = 
REMARK  7 active torsions:
REMARK  status: ('A' for Active; 'I' for Inactive)
REMARK    1  A    between atoms: C_4  and  C_5
REMARK    2  A    between atoms: C_9  and  N_10
REMARK    3  A    between atoms: C_11  and  C_12
REMARK    4  A    between atoms: N_14  and  C_15
REMARK    5  A    between atoms: C_15  and  C_16
REMARK    6  A    between atoms: C_16  and  C_17
REMARK    7  A    between atoms: C_20  and  N_21
REMARK                            x       y       z     vdW  Elec       q    Type
REMARK                         _______ _______ _______ _____ _____    ______ ____
ROOT
ATOM      1  C   UNL     1       6.097   6.773  17.201  0.00  0.00    +0.000 C 
ATOM      2  O   UNL     1       6.220   6.801  15.977  0.00  0.00    +0.000 OA
ATOM      3  N   UNL     1       6.849   7.594  18.022  0.00  0.00    +0.000 N 
ATOM      4  H   UNL     1       6.774   7.452  19.022  0.00  0.00    +0.000 HD
ENDROOT
BRANCH   1  11
ATOM      5  N   UNL     1       0.258   3.310  20.184  0.00  0.00    +0.000 N 
ATOM      6  C   UNL     1       1.583   3.580  19.850  0.00  0.00    +0.000 A 
ATOM      7  C   UNL     1       2.566   2.640  20.110  0.00  0.00    +0.000 A 
ATOM      8  C   UNL     1       3.896   2.875  19.730  0.00  0.00    +0.000 A 
ATOM      9  C   UNL     1       4.175   4.101  19.066  0.00  0.00    +0.000 A 
ATOM     10  C   UNL     1       5.369   4.693  18.517  0.00  0.00    +0.000 A 
ATOM     11  C   UNL     1       5.142   5.908  17.885  0.00  0.00    +0.000 A 
ATOM     12  S   UNL     1       3.495   6.365  18.014  0.00  0.00    +0.000 S 
ATOM     13  C   UNL     1       3.088   4.946  18.854  0.00  0.00    +0.000 A 
ATOM     14  N   UNL     1       1.808   4.737  19.219  0.00  0.00    +0.000 NA
ATOM     15  H   UNL     1       0.155   3.026  21.152  0.00  0.00    +0.000 HD
ATOM     16  H   UNL     1      -0.290   4.138  19.968  0.00  0.00    +0.000 HD
BRANCH   8  17
ATOM     17  C   UNL     1       4.938   1.825  19.985  0.00  0.00    +0.000 C 
ATOM     18  F   UNL     1       5.057   1.515  21.308  0.00  0.00    +0.000 F 
ATOM     19  F   UNL     1       4.677   0.640  19.359  0.00  0.00    +0.000 F 
ENDBRANCH   8  17
BRANCH  10  20
ATOM     20  N   UNL     1       6.591   4.103  18.583  0.00  0.00    +0.000 N 
ATOM     21  H   UNL     1       6.682   3.098  18.726  0.00  0.00    +0.000 HD
ATOM     22  H   UNL     1       7.343   4.602  19.070  0.00  0.00    +0.000 HD
ENDBRANCH  10  20
ENDBRANCH   1  11
BRANCH   3  23
ATOM     23  C   UNL     1       7.849   8.510  17.503  0.00  0.00    +0.000 C 
BRANCH  23  24
ATOM     24  C   UNL     1       8.740   9.074  18.612  0.00  0.00    +0.000 C 
BRANCH  24  25
ATOM     25  C   UNL     1       9.085  10.524  18.392  0.00  0.00    +0.000 A 
ATOM     26  C   UNL     1      10.267  11.064  18.903  0.00  0.00    +0.000 A 
ATOM     27  C   UNL     1      10.574  12.416  18.702  0.00  0.00    +0.000 A 
ATOM     28  C   UNL     1       9.724  13.276  17.992  0.00  0.00    +0.000 A 
ATOM     29  C   UNL     1       8.542  12.714  17.492  0.00  0.00    +0.000 A 
ATOM     30  C   UNL     1       8.220  11.364  17.689  0.00  0.00    +0.000 A 
BRANCH  28  31
ATOM     31  N   UNL     1      10.045  14.603  17.799  0.00  0.00    +0.000 N 
ATOM     32  C   UNL     1       9.150  15.710  18.163  0.00  0.00    +0.000 C 
ATOM     33  C   UNL     1       9.830  16.642  19.188  0.00  0.00    +0.000 C 
ATOM     34  N   UNL     1      11.143  17.144  18.735  0.00  0.00    +0.000 NA
ATOM     35  C   UNL     1      12.008  15.995  18.395  0.00  0.00    +0.000 C 
ATOM     36  C   UNL     1      11.388  15.019  17.365  0.00  0.00    +0.000 C 
ATOM     37  H   UNL     1      11.576  17.671  19.492  0.00  0.00    +0.000 HD
ENDBRANCH  28  31
ENDBRANCH  24  25
ENDBRANCH  23  24
ENDBRANCH   3  23
TORSDOF 7
ENDMDL
MODEL 3
REMARK VINA RESULT:      -8.2      0.635      1.049
REMARK  Name = 
REMARK  7 active torsions:
REMARK  status: ('A' for Active; 'I' for Inactive)
REMARK    1  A    between atoms: C_4  and  C_5
REMARK    2  A    between atoms: C_9  and  N_10
REMARK    3  A    between atoms: C_11  and  C_12
REMARK    4  A    between atoms: N_14  and  C_15
REMARK    5  A    between atoms: C_15  and  C_16
REMARK    6  A    between atoms: C_16  and  C_17
REMARK    7  A    between atoms: C_20  and  N_21
REMARK                            x       y       z     vdW  Elec       q    Type
REMARK                         _______ _______ _______ _____ _____    ______ ____
ROOT
ATOM      1  C   UNL     1       5.997   6.783  17.199  0.00  0.00    +0.000 C 
ATOM      2  O   UNL     1       6.057   6.919  15.977  0.00  0.00    +0.000 OA
ATOM      3  N   UNL     1       6.820   7.502  18.047  0.00  0.00    +0.000 N 
ATOM      4  H   UNL     1       6.791   7.271  19.033  0.00  0.00    +0.000 HD
ENDROOT
BRANCH   1  11
ATOM      5  N   UNL     1       0.176   3.129  19.984  0.00  0.00    +0.000 N 
ATOM      6  C   UNL     1       1.503   3.447  19.701  0.00  0.00    +0.000 A 
ATOM      7  C   UNL     1       2.510   2.549  20.014  0.00  0.00    +0.000 A 
ATOM      8  C   UNL     1       3.844   2.832  19.686  0.00  0.00    +0.000 A 
ATOM      9  C   UNL     1       4.103   4.059  19.018  0.00  0.00    +0.000 A 
ATOM     10  C   UNL     1       5.295   4.692  18.512  0.00  0.00    +0.000 A 
ATOM     11  C   UNL     1       5.048   5.890  17.854  0.00  0.00    +0.000 A 
ATOM     12  S   UNL     1       3.381   6.283  17.909  0.00  0.00    +0.000 S 
ATOM     13  C   UNL     1       2.994   4.859  18.750  0.00  0.00    +0.000 A 
ATOM     14  N   UNL     1       1.709   4.604  19.065  0.00  0.00    +0.000 NA
ATOM     15  H   UNL     1       0.044   2.853  20.950  0.00  0.00    +0.000 HD
ATOM     16  H   UNL     1      -0.394   3.932  19.734  0.00  0.00    +0.000 HD
BRANCH   8  17
ATOM     17  C   UNL     1       4.914   1.826  19.998  0.00  0.00    +0.000 C 
ATOM     18  F   UNL     1       4.990   1.537  21.329  0.00  0.00    +0.000 F 
ATOM     19  F   UNL     1       4.725   0.625  19.378  0.00  0.00    +0.000 F 
ENDBRANCH   8  17
BRANCH  10  20
ATOM     20  N   UNL     1       6.536   4.151  18.635  0.00  0.00    +0.000 N 
ATOM     21  H   UNL     1       6.893   3.860  19.544  0.00  0.00    +0.000 HD
ATOM     22  H   UNL     1       7.292   4.541  18.063  0.00  0.00    +0.000 HD
ENDBRANCH  10  20
ENDBRANCH   1  11
BRANCH   3  23
ATOM     23  C   UNL     1       7.824   8.429  17.558  0.00  0.00    +0.000 C 
BRANCH  23  24
ATOM     24  C   UNL     1       8.823   8.821  18.649  0.00  0.00    +0.000 C 
BRANCH  24  25
ATOM     25  C   UNL     1       8.991  10.313  18.766  0.00  0.00    +0.000 A 
ATOM     26  C   UNL     1       8.647  11.157  17.708  0.00  0.00    +0.000 A 
ATOM     27  C   UNL     1       8.816  12.543  17.822  0.00  0.00    +0.000 A 
ATOM     28  C   UNL     1       9.333  13.138  18.982  0.00  0.00    +0.000 A 
ATOM     29  C   UNL     1       9.675  12.272  20.029  0.00  0.00    +0.000 A 
ATOM     30  C   UNL     1       9.514  10.884  19.928  0.00  0.00    +0.000 A 
BRANCH  28  31
ATOM     31  N   UNL     1       9.487  14.505  19.079  0.00  0.00    +0.000 N 
ATOM     32  C   UNL     1      10.536  15.249  18.369  0.00  0.00    +0.000 C 
ATOM     33  C   UNL     1       9.912  16.306  17.433  0.00  0.00    +0.000 C 
ATOM     34  N   UNL     1       8.984  17.222  18.127  0.00  0.00    +0.000 NA
ATOM     35  C   UNL     1       7.943  16.426  18.812  0.00  0.00    +0.000 C 
ATOM     36  C   UNL     1       8.501  15.348  19.773  0.00  0.00    +0.000 C 
ATOM     37  H   UNL     1       8.539  17.827  17.439  0.00  0.00    +0.000 HD
ENDBRANCH  28  31
ENDBRANCH  24  25
ENDBRANCH  23  24
ENDBRANCH   3  23
TORSDOF 7
ENDMDL
MODEL 4
REMARK VINA RESULT:      -8.2      0.740      1.407
REMARK  Name = 
REMARK  7 active torsions:
REMARK  status: ('A' for Active; 'I' for Inactive)
REMARK    1  A    between atoms: C_4  and  C_5
REMARK    2  A    between atoms: C_9  and  N_10
REMARK    3  A    between atoms: C_11  and  C_12
REMARK    4  A    between atoms: N_14  and  C_15
REMARK    5  A    between atoms: C_15  and  C_16
REMARK    6  A    between atoms: C_16  and  C_17
REMARK    7  A    between atoms: C_20  and  N_21
REMARK                            x       y       z     vdW  Elec       q    Type
REMARK                         _______ _______ _______ _____ _____    ______ ____
ROOT
ATOM      1  C   UNL     1       6.643   6.818  17.349  0.00  0.00    +0.000 C 
ATOM      2  O   UNL     1       7.270   6.461  16.353  0.00  0.00    +0.000 OA
ATOM      3  N   UNL     1       6.896   8.030  17.967  0.00  0.00    +0.000 N 
ATOM      4  H   UNL     1       6.418   8.220  18.839  0.00  0.00    +0.000 HD
ENDROOT
BRANCH   1  11
ATOM      5  N   UNL     1       0.365   3.908  20.017  0.00  0.00    +0.000 N 
ATOM      6  C   UNL     1       1.714   4.019  19.687  0.00  0.00    +0.000 A 
ATOM      7  C   UNL     1       2.546   2.918  19.803  0.00  0.00    +0.000 A 
ATOM      8  C   UNL     1       3.895   3.000  19.424  0.00  0.00    +0.000 A 
ATOM      9  C   UNL     1       4.351   4.245  18.912  0.00  0.00    +0.000 A 
ATOM     10  C   UNL     1       5.618   4.719  18.413  0.00  0.00    +0.000 A 
ATOM     11  C   UNL     1       5.573   6.024  17.943  0.00  0.00    +0.000 A 
ATOM     12  S   UNL     1       4.013   6.700  18.168  0.00  0.00    +0.000 S 
ATOM     13  C   UNL     1       3.402   5.262  18.833  0.00  0.00    +0.000 A 
ATOM     14  N   UNL     1       2.107   5.200  19.200  0.00  0.00    +0.000 NA
ATOM     15  H   UNL     1       0.226   3.522  20.944  0.00  0.00    +0.000 HD
ATOM     16  H   UNL     1      -0.054   4.829  19.918  0.00  0.00    +0.000 HD
BRANCH   8  17
ATOM     17  C   UNL     1       4.768   1.783  19.520  0.00  0.00    +0.000 C 
ATOM     18  F   UNL     1       4.990   1.398  20.810  0.00  0.00    +0.000 F 
ATOM     19  F   UNL     1       4.239   0.686  18.902  0.00  0.00    +0.000 F 
ENDBRANCH   8  17
BRANCH  10  20
ATOM     20  N   UNL     1       6.738   3.950  18.374  0.00  0.00    +0.000 N 
ATOM     21  H   UNL     1       7.507   4.111  19.024  0.00  0.00    +0.000 HD
ATOM     22  H   UNL     1       7.099   3.669  17.457  0.00  0.00    +0.000 HD
ENDBRANCH  10  20
ENDBRANCH   1  11
BRANCH   3  23
ATOM     23  C   UNL     1       7.932   8.937  17.507  0.00  0.00    +0.000 C 
BRANCH  23  24
ATOM     24  C   UNL     1       8.849   9.385  18.647  0.00  0.00    +0.000 C 
BRANCH  24  25
ATOM     25  C   UNL     1       9.321  10.807  18.481  0.00  0.00    +0.000 A 
ATOM     26  C   UNL     1       8.549  11.740  17.785  0.00  0.00    +0.000 A 
ATOM     27  C   UNL     1       9.000  13.057  17.627  0.00  0.00    +0.000 A 
ATOM     28  C   UNL     1      10.227  13.492  18.148  0.00  0.00    +0.000 A 
ATOM     29  C   UNL     1      10.986  12.538  18.839  0.00  0.00    +0.000 A 
ATOM     30  C   UNL     1      10.548  11.217  19.002  0.00  0.00    +0.000 A 
BRANCH  28  31
ATOM     31  N   UNL     1      10.652  14.794  17.988  0.00  0.00    +0.000 N 
ATOM     32  C   UNL     1       9.739  15.911  17.709  0.00  0.00    +0.000 C 
ATOM     33  C   UNL     1       9.838  16.981  18.817  0.00  0.00    +0.000 C 
ATOM     34  N   UNL     1      11.217  17.461  19.041  0.00  0.00    +0.000 NA
ATOM     35  C   UNL     1      12.090  16.303  19.330  0.00  0.00    +0.000 C 
ATOM     36  C   UNL     1      12.044  15.191  18.253  0.00  0.00    +0.000 C 
ATOM     37  H   UNL     1      11.224  18.089  19.843  0.00  0.00    +0.000 HD
ENDBRANCH  28  31
ENDBRANCH  24  25
ENDBRANCH  23  24
ENDBRANCH   3  23
TORSDOF 7
ENDMDL
MODEL 5
REMARK VINA RESULT:      -8.0      7.041      9.652
REMARK  Name = 
REMARK  7 active torsions:
REMARK  status: ('A' for Active; 'I' for Inactive)
REMARK    1  A    between atoms: C_4  and  C_5
REMARK    2  A    between atoms: C_9  and  N_10
REMARK    3  A    between atoms: C_11  and  C_12
REMARK    4  A    between atoms: N_14  and  C_15
REMARK    5  A    between atoms: C_15  and  C_16
REMARK    6  A    between atoms: C_16  and  C_17
REMARK    7  A    between atoms: C_20  and  N_21
REMARK                            x       y       z     vdW  Elec       q    Type
REMARK                         _______ _______ _______ _____ _____    ______ ____
ROOT
ATOM      1  C   UNL     1       1.798   8.420  19.479  0.00  0.00    +0.000 C 
ATOM      2  O   UNL     1       1.355   8.483  20.625  0.00  0.00    +0.000 OA
ATOM      3  N   UNL     1       1.711   9.494  18.610  0.00  0.00    +0.000 N 
ATOM      4  H   UNL     1       2.003   9.346  17.652  0.00  0.00    +0.000 HD
ENDROOT
BRANCH   1  11
ATOM      5  N   UNL     1       5.880   3.360  15.913  0.00  0.00    +0.000 N 
ATOM      6  C   UNL     1       4.961   3.896  16.812  0.00  0.00    +0.000 A 
ATOM      7  C   UNL     1       4.430   3.100  17.814  0.00  0.00    +0.000 A 
ATOM      8  C   UNL     1       3.546   3.639  18.760  0.00  0.00    +0.000 A 
ATOM      9  C   UNL     1       3.237   5.022  18.646  0.00  0.00    +0.000 A 
ATOM     10  C   UNL     1       2.411   5.929  19.403  0.00  0.00    +0.000 A 
ATOM     11  C   UNL     1       2.470   7.240  18.949  0.00  0.00    +0.000 A 
ATOM     12  S   UNL     1       3.472   7.359  17.563  0.00  0.00    +0.000 S 
ATOM     13  C   UNL     1       3.854   5.706  17.601  0.00  0.00    +0.000 A 
ATOM     14  N   UNL     1       4.700   5.200  16.682  0.00  0.00    +0.000 NA
ATOM     15  H   UNL     1       5.540   2.511  15.475  0.00  0.00    +0.000 HD
ATOM     16  H   UNL     1       6.101   4.080  15.231  0.00  0.00    +0.000 HD
BRANCH   8  17
ATOM     17  C   UNL     1       3.015   2.768  19.861  0.00  0.00    +0.000 C 
ATOM     18  F   UNL     1       2.303   1.704  19.391  0.00  0.00    +0.000 F 
ATOM     19  F   UNL     1       3.995   2.229  20.645  0.00  0.00    +0.000 F 
ENDBRANCH   8  17
BRANCH  10  20
ATOM     20  N   UNL     1       1.675   5.545  20.479  0.00  0.00    +0.000 N 
ATOM     21  H   UNL     1       2.115   5.383  21.385  0.00  0.00    +0.000 HD
ATOM     22  H   UNL     1       0.912   4.878  20.329  0.00  0.00    +0.000 HD
ENDBRANCH  10  20
ENDBRANCH   1  11
BRANCH   3  23
ATOM     23  C   UNL     1       1.067  10.742  18.977  0.00  0.00    +0.000 C 
BRANCH  23  24
ATOM     24  C   UNL     1      -0.410  10.765  18.576  0.00  0.00    +0.000 C 
BRANCH  24  25
ATOM     25  C   UNL     1      -1.281  11.404  19.626  0.00  0.00    +0.000 A 
ATOM     26  C   UNL     1      -0.928  11.352  20.977  0.00  0.00    +0.000 A 
ATOM     27  C   UNL     1      -1.749  11.941  21.947  0.00  0.00    +0.000 A 
ATOM     28  C   UNL     1      -2.944  12.595  21.616  0.00  0.00    +0.000 A 
ATOM     29  C   UNL     1      -3.280  12.632  20.256  0.00  0.00    +0.000 A 
ATOM     30  C   UNL     1      -2.469  12.045  19.274  0.00  0.00    +0.000 A 
BRANCH  28  31
ATOM     31  N   UNL     1      -3.737  13.174  22.583  0.00  0.00    +0.000 N 
ATOM     32  C   UNL     1      -5.044  13.781  22.297  0.00  0.00    +0.000 C 
ATOM     33  C   UNL     1      -6.156  13.079  23.104  0.00  0.00    +0.000 C 
ATOM     34  N   UNL     1      -5.889  13.047  24.557  0.00  0.00    +0.000 NA
ATOM     35  C   UNL     1      -4.573  12.417  24.792  0.00  0.00    +0.000 C 
ATOM     36  C   UNL     1      -3.407  13.077  24.014  0.00  0.00    +0.000 C 
ATOM     37  H   UNL     1      -6.609  12.491  25.015  0.00  0.00    +0.000 HD
ENDBRANCH  28  31
ENDBRANCH  24  25
ENDBRANCH  23  24
ENDBRANCH   3  23
TORSDOF 7
ENDMDL
MODEL 6
REMARK VINA RESULT:      -8.0      6.849     10.076
REMARK  Name = 
REMARK  7 active torsions:
REMARK  status: ('A' for Active; 'I' for Inactive)
REMARK    1  A    between atoms: C_4  and  C_5
REMARK    2  A    between atoms: C_9  and  N_10
REMARK    3  A    between atoms: C_11  and  C_12
REMARK    4  A    between atoms: N_14  and  C_15
REMARK    5  A    between atoms: C_15  and  C_16
REMARK    6  A    between atoms: C_16  and  C_17
REMARK    7  A    between atoms: C_20  and  N_21
REMARK                            x       y       z     vdW  Elec       q    Type
REMARK                         _______ _______ _______ _____ _____    ______ ____
ROOT
ATOM      1  C   UNL     1       1.914   7.648  19.625  0.00  0.00    +0.000 C 
ATOM      2  O   UNL     1       1.535   7.231  20.719  0.00  0.00    +0.000 OA
ATOM      3  N   UNL     1       1.568   8.910  19.173  0.00  0.00    +0.000 N 
ATOM      4  H   UNL     1       1.826   9.155  18.226  0.00  0.00    +0.000 HD
ENDROOT
BRANCH   1  11
ATOM      5  N   UNL     1       6.842   5.013  14.751  0.00  0.00    +0.000 N 
ATOM      6  C   UNL     1       5.811   5.021  15.688  0.00  0.00    +0.000 A 
ATOM      7  C   UNL     1       5.344   3.828  16.213  0.00  0.00    +0.000 A 
ATOM      8  C   UNL     1       4.344   3.824  17.197  0.00  0.00    +0.000 A 
ATOM      9  C   UNL     1       3.853   5.086  17.628  0.00  0.00    +0.000 A 
ATOM     10  C   UNL     1       2.871   5.499  18.599  0.00  0.00    +0.000 A 
ATOM     11  C   UNL     1       2.771   6.877  18.732  0.00  0.00    +0.000 A 
ATOM     12  S   UNL     1       3.818   7.673  17.631  0.00  0.00    +0.000 S 
ATOM     13  C   UNL     1       4.424   6.206  17.028  0.00  0.00    +0.000 A 
ATOM     14  N   UNL     1       5.379   6.225  16.078  0.00  0.00    +0.000 NA
ATOM     15  H   UNL     1       6.647   4.396  13.970  0.00  0.00    +0.000 HD
ATOM     16  H   UNL     1       6.996   5.972  14.453  0.00  0.00    +0.000 HD
BRANCH   8  17
ATOM     17  C   UNL     1       3.883   2.520  17.780  0.00  0.00    +0.000 C 
ATOM     18  F   UNL     1       4.081   2.449  19.128  0.00  0.00    +0.000 F 
ATOM     19  F   UNL     1       2.550   2.287  17.598  0.00  0.00    +0.000 F 
ENDBRANCH   8  17
BRANCH  10  20
ATOM     20  N   UNL     1       2.139   4.624  19.338  0.00  0.00    +0.000 N 
ATOM     21  H   UNL     1       1.757   4.893  20.244  0.00  0.00    +0.000 HD
ATOM     22  H   UNL     1       2.432   3.641  19.353  0.00  0.00    +0.000 HD
ENDBRANCH  10  20
ENDBRANCH   1  11
BRANCH   3  23
ATOM     23  C   UNL     1       0.716   9.804  19.936  0.00  0.00    +0.000 C 
BRANCH  23  24
ATOM     24  C   UNL     1       0.375  11.076  19.156  0.00  0.00    +0.000 C 
BRANCH  24  25
ATOM     25  C   UNL     1      -1.096  11.185  18.850  0.00  0.00    +0.000 A 
ATOM     26  C   UNL     1      -1.925  12.014  19.610  0.00  0.00    +0.000 A 
ATOM     27  C   UNL     1      -3.294  12.103  19.324  0.00  0.00    +0.000 A 
ATOM     28  C   UNL     1      -3.886  11.374  18.282  0.00  0.00    +0.000 A 
ATOM     29  C   UNL     1      -3.037  10.546  17.537  0.00  0.00    +0.000 A 
ATOM     30  C   UNL     1      -1.666  10.446  17.813  0.00  0.00    +0.000 A 
BRANCH  28  31
ATOM     31  N   UNL     1      -5.234  11.478  18.012  0.00  0.00    +0.000 N 
ATOM     32  C   UNL     1      -6.274  10.878  18.858  0.00  0.00    +0.000 C 
ATOM     33  C   UNL     1      -7.231  11.965  19.394  0.00  0.00    +0.000 C 
ATOM     34  N   UNL     1      -7.824  12.794  18.325  0.00  0.00    +0.000 NA
ATOM     35  C   UNL     1      -6.739  13.384  17.513  0.00  0.00    +0.000 C 
ATOM     36  C   UNL     1      -5.743  12.346  16.938  0.00  0.00    +0.000 C 
ATOM     37  H   UNL     1      -8.365  13.545  18.750  0.00  0.00    +0.000 HD
ENDBRANCH  28  31
ENDBRANCH  24  25
ENDBRANCH  23  24
ENDBRANCH   3  23
TORSDOF 7
ENDMDL
MODEL 7
REMARK VINA RESULT:      -8.0      4.743     11.797
REMARK  Name = 
REMARK  7 active torsions:
REMARK  status: ('A' for Active; 'I' for Inactive)
REMARK    1  A    between atoms: C_4  and  C_5
REMARK    2  A    between atoms: C_9  and  N_10
REMARK    3  A    between atoms: C_11  and  C_12
REMARK    4  A    between atoms: N_14  and  C_15
REMARK    5  A    between atoms: C_15  and  C_16
REMARK    6  A    between atoms: C_16  and  C_17
REMARK    7  A    between atoms: C_20  and  N_21
REMARK                            x       y       z     vdW  Elec       q    Type
REMARK                         _______ _______ _______ _____ _____    ______ ____
ROOT
ATOM      1  C   UNL     1       9.169  10.821  19.531  0.00  0.00    +0.000 C 
ATOM      2  O   UNL     1       9.233  10.354  20.668  0.00  0.00    +0.000 OA
ATOM      3  N   UNL     1       8.858  10.029  18.440  0.00  0.00    +0.000 N 
ATOM      4  H   UNL     1       8.920  10.451  17.522  0.00  0.00    +0.000 HD
ENDROOT
BRANCH   1  11
ATOM      5  N   UNL     1      10.689  17.524  16.749  0.00  0.00    +0.000 N 
ATOM      6  C   UNL     1      10.287  16.552  17.661  0.00  0.00    +0.000 A 
ATOM      7  C   UNL     1       9.674  16.927  18.845  0.00  0.00    +0.000 A 
ATOM      8  C   UNL     1       9.215  15.957  19.749  0.00  0.00    +0.000 A 
ATOM      9  C   UNL     1       9.398  14.595  19.388  0.00  0.00    +0.000 A 
ATOM     10  C   UNL     1       9.063  13.340  20.014  0.00  0.00    +0.000 A 
ATOM     11  C   UNL     1       9.383  12.234  19.238  0.00  0.00    +0.000 A 
ATOM     12  S   UNL     1      10.152  12.712  17.782  0.00  0.00    +0.000 S 
ATOM     13  C   UNL     1      10.014  14.361  18.161  0.00  0.00    +0.000 A 
ATOM     14  N   UNL     1      10.465  15.281  17.286  0.00  0.00    +0.000 NA
ATOM     15  H   UNL     1      11.270  18.237  17.175  0.00  0.00    +0.000 HD
ATOM     16  H   UNL     1      11.162  17.053  15.983  0.00  0.00    +0.000 HD
BRANCH   8  17
ATOM     17  C   UNL     1       8.517  16.387  21.007  0.00  0.00    +0.000 C 
ATOM     18  F   UNL     1       8.735  17.700  21.306  0.00  0.00    +0.000 F 
ATOM     19  F   UNL     1       7.160  16.251  20.947  0.00  0.00    +0.000 F 
ENDBRANCH   8  17
BRANCH  10  20
ATOM     20  N   UNL     1       8.461  13.250  21.228  0.00  0.00    +0.000 N 
ATOM     21  H   UNL     1       7.445  13.222  21.310  0.00  0.00    +0.000 HD
ATOM     22  H   UNL     1       8.866  13.777  22.009  0.00  0.00    +0.000 HD
ENDBRANCH  10  20
ENDBRANCH   1  11
BRANCH   3  23
ATOM     23  C   UNL     1       8.621   8.601  18.556  0.00  0.00    +0.000 C 
BRANCH  23  24
ATOM     24  C   UNL     1       7.855   8.048  17.353  0.00  0.00    +0.000 C 
BRANCH  24  25
ATOM     25  C   UNL     1       6.828   7.018  17.749  0.00  0.00    +0.000 A 
ATOM     26  C   UNL     1       5.548   7.035  17.192  0.00  0.00    +0.000 A 
ATOM     27  C   UNL     1       4.596   6.079  17.574  0.00  0.00    +0.000 A 
ATOM     28  C   UNL     1       4.879   5.081  18.517  0.00  0.00    +0.000 A 
ATOM     29  C   UNL     1       6.168   5.086  19.065  0.00  0.00    +0.000 A 
ATOM     30  C   UNL     1       7.129   6.038  18.695  0.00  0.00    +0.000 A 
BRANCH  28  31
ATOM     31  N   UNL     1       3.932   4.146  18.876  0.00  0.00    +0.000 N 
ATOM     32  C   UNL     1       2.510   4.262  18.524  0.00  0.00    +0.000 C 
ATOM     33  C   UNL     1       2.060   3.051  17.680  0.00  0.00    +0.000 C 
ATOM     34  N   UNL     1       2.345   1.754  18.327  0.00  0.00    +0.000 NA
ATOM     35  C   UNL     1       3.786   1.681  18.647  0.00  0.00    +0.000 C 
ATOM     36  C   UNL     1       4.305   2.866  19.499  0.00  0.00    +0.000 C 
ATOM     37  H   UNL     1       2.112   1.002  17.680  0.00  0.00    +0.000 HD
ENDBRANCH  28  31
ENDBRANCH  24  25
ENDBRANCH  23  24
ENDBRANCH   3  23
TORSDOF 7
ENDMDL
MODEL 8
REMARK VINA RESULT:      -8.0      7.384      9.437
REMARK  Name = 
REMARK  7 active torsions:
REMARK  status: ('A' for Active; 'I' for Inactive)
REMARK    1  A    between atoms: C_4  and  C_5
REMARK    2  A    between atoms: C_9  and  N_10
REMARK    3  A    between atoms: C_11  and  C_12
REMARK    4  A    between atoms: N_14  and  C_15
REMARK    5  A    between atoms: C_15  and  C_16
REMARK    6  A    between atoms: C_16  and  C_17
REMARK    7  A    between atoms: C_20  and  N_21
REMARK                            x       y       z     vdW  Elec       q    Type
REMARK                         _______ _______ _______ _____ _____    ______ ____
ROOT
ATOM      1  C   UNL     1       1.692   8.592  19.719  0.00  0.00    +0.000 C 
ATOM      2  O   UNL     1       1.257   8.682  20.867  0.00  0.00    +0.000 OA
ATOM      3  N   UNL     1       1.587   9.642  18.823  0.00  0.00    +0.000 N 
ATOM      4  H   UNL     1       1.872   9.471  17.867  0.00  0.00    +0.000 HD
ENDROOT
BRANCH   1  11
ATOM      5  N   UNL     1       5.705   3.459  16.179  0.00  0.00    +0.000 N 
ATOM      6  C   UNL     1       4.833   4.019  17.110  0.00  0.00    +0.000 A 
ATOM      7  C   UNL     1       4.409   3.272  18.196  0.00  0.00    +0.000 A 
ATOM      8  C   UNL     1       3.574   3.840  19.170  0.00  0.00    +0.000 A 
ATOM      9  C   UNL     1       3.202   5.200  18.994  0.00  0.00    +0.000 A 
ATOM     10  C   UNL     1       2.398   6.125  19.753  0.00  0.00    +0.000 A 
ATOM     11  C   UNL     1       2.371   7.404  19.215  0.00  0.00    +0.000 A 
ATOM     12  S   UNL     1       3.263   7.469  17.752  0.00  0.00    +0.000 S 
ATOM     13  C   UNL     1       3.714   5.837  17.865  0.00  0.00    +0.000 A 
ATOM     14  N   UNL     1       4.511   5.303  16.919  0.00  0.00    +0.000 NA
ATOM     15  H   UNL     1       5.369   2.572  15.822  0.00  0.00    +0.000 HD
ATOM     16  H   UNL     1       5.847   4.141  15.439  0.00  0.00    +0.000 HD
BRANCH   8  17
ATOM     17  C   UNL     1       3.161   3.024  20.360  0.00  0.00    +0.000 C 
ATOM     18  F   UNL     1       2.091   2.219  20.098  0.00  0.00    +0.000 F 
ATOM     19  F   UNL     1       4.141   2.187  20.810  0.00  0.00    +0.000 F 
ENDBRANCH   8  17
BRANCH  10  20
ATOM     20  N   UNL     1       1.758   5.786  20.903  0.00  0.00    +0.000 N 
ATOM     21  H   UNL     1       2.255   5.321  21.662  0.00  0.00    +0.000 HD
ATOM     22  H   UNL     1       0.798   5.432  20.835  0.00  0.00    +0.000 HD
ENDBRANCH  10  20
ENDBRANCH   1  11
BRANCH   3  23
ATOM     23  C   UNL     1       0.934  10.893  19.162  0.00  0.00    +0.000 C 
BRANCH  23  24
ATOM     24  C   UNL     1      -0.554  10.879  18.803  0.00  0.00    +0.000 C 
BRANCH  24  25
ATOM     25  C   UNL     1      -1.408  11.520  19.866  0.00  0.00    +0.000 A 
ATOM     26  C   UNL     1      -1.044  11.452  21.213  0.00  0.00    +0.000 A 
ATOM     27  C   UNL     1      -1.850  12.042  22.196  0.00  0.00    +0.000 A 
ATOM     28  C   UNL     1      -3.039  12.715  21.880  0.00  0.00    +0.000 A 
ATOM     29  C   UNL     1      -3.386  12.767  20.524  0.00  0.00    +0.000 A 
ATOM     30  C   UNL     1      -2.591  12.179  19.530  0.00  0.00    +0.000 A 
BRANCH  28  31
ATOM     31  N   UNL     1      -3.816  13.295  22.860  0.00  0.00    +0.000 N 
ATOM     32  C   UNL     1      -3.531  13.166  24.296  0.00  0.00    +0.000 C 
ATOM     33  C   UNL     1      -3.310  14.556  24.931  0.00  0.00    +0.000 C 
ATOM     34  N   UNL     1      -4.430  15.489  24.690  0.00  0.00    +0.000 NA
ATOM     35  C   UNL     1      -4.667  15.593  23.235  0.00  0.00    +0.000 C 
ATOM     36  C   UNL     1      -4.902  14.232  22.533  0.00  0.00    +0.000 C 
ATOM     37  H   UNL     1      -4.179  16.408  25.051  0.00  0.00    +0.000 HD
ENDBRANCH  28  31
ENDBRANCH  24  25
ENDBRANCH  23  24
ENDBRANCH   3  23
TORSDOF 7
ENDMDL
MODEL 9
REMARK VINA RESULT:      -8.0      7.420      9.545
REMARK  Name = 
REMARK  7 active torsions:
REMARK  status: ('A' for Active; 'I' for Inactive)
REMARK    1  A    between atoms: C_4  and  C_5
REMARK    2  A    between atoms: C_9  and  N_10
REMARK    3  A    between atoms: C_11  and  C_12
REMARK    4  A    between atoms: N_14  and  C_15
REMARK    5  A    between atoms: C_15  and  C_16
REMARK    6  A    between atoms: C_16  and  C_17
REMARK    7  A    between atoms: C_20  and  N_21
REMARK                            x       y       z     vdW  Elec       q    Type
REMARK                         _______ _______ _______ _____ _____    ______ ____
ROOT
ATOM      1  C   UNL     1       1.681   8.619  19.765  0.00  0.00    +0.000 C 
ATOM      2  O   UNL     1       1.293   8.715  20.929  0.00  0.00    +0.000 OA
ATOM      3  N   UNL     1       1.532   9.660  18.866  0.00  0.00    +0.000 N 
ATOM      4  H   UNL     1       1.779   9.483  17.900  0.00  0.00    +0.000 HD
ENDROOT
BRANCH   1  11
ATOM      5  N   UNL     1       5.628   3.495  16.140  0.00  0.00    +0.000 N 
ATOM      6  C   UNL     1       4.769   4.051  17.084  0.00  0.00    +0.000 A 
ATOM      7  C   UNL     1       4.354   3.297  18.170  0.00  0.00    +0.000 A 
ATOM      8  C   UNL     1       3.533   3.862  19.158  0.00  0.00    +0.000 A 
ATOM      9  C   UNL     1       3.166   5.225  18.996  0.00  0.00    +0.000 A 
ATOM     10  C   UNL     1       2.375   6.148  19.772  0.00  0.00    +0.000 A 
ATOM     11  C   UNL     1       2.349   7.432  19.244  0.00  0.00    +0.000 A 
ATOM     12  S   UNL     1       3.225   7.504  17.772  0.00  0.00    +0.000 S 
ATOM     13  C   UNL     1       3.669   5.868  17.867  0.00  0.00    +0.000 A 
ATOM     14  N   UNL     1       4.452   5.338  16.907  0.00  0.00    +0.000 NA
ATOM     15  H   UNL     1       5.284   2.612  15.779  0.00  0.00    +0.000 HD
ATOM     16  H   UNL     1       5.765   4.182  15.404  0.00  0.00    +0.000 HD
BRANCH   8  17
ATOM     17  C   UNL     1       3.129   3.038  20.346  0.00  0.00    +0.000 C 
ATOM     18  F   UNL     1       2.046   2.249  20.092  0.00  0.00    +0.000 F 
ATOM     19  F   UNL     1       4.107   2.185  20.771  0.00  0.00    +0.000 F 
ENDBRANCH   8  17
BRANCH  10  20
ATOM     20  N   UNL     1       1.747   5.803  20.926  0.00  0.00    +0.000 N 
ATOM     21  H   UNL     1       1.136   4.988  20.968  0.00  0.00    +0.000 HD
ATOM     22  H   UNL     1       1.379   6.554  21.519  0.00  0.00    +0.000 HD
ENDBRANCH  10  20
ENDBRANCH   1  11
BRANCH   3  23
ATOM     23  C   UNL     1       0.883  10.909  19.220  0.00  0.00    +0.000 C 
BRANCH  23  24
ATOM     24  C   UNL     1      -0.631  10.848  19.012  0.00  0.00    +0.000 C 
BRANCH  24  25
ATOM     25  C   UNL     1      -1.394  11.476  20.150  0.00  0.00    +0.000 A 
ATOM     26  C   UNL     1      -2.546  12.228  19.910  0.00  0.00    +0.000 A 
ATOM     27  C   UNL     1      -3.244  12.816  20.973  0.00  0.00    +0.000 A 
ATOM     28  C   UNL     1      -2.824  12.683  22.304  0.00  0.00    +0.000 A 
ATOM     29  C   UNL     1      -1.663  11.928  22.521  0.00  0.00    +0.000 A 
ATOM     30  C   UNL     1      -0.954  11.337  21.467  0.00  0.00    +0.000 A 
BRANCH  28  31
ATOM     31  N   UNL     1      -3.525  13.264  23.339  0.00  0.00    +0.000 N 
ATOM     32  C   UNL     1      -2.936  14.243  24.263  0.00  0.00    +0.000 C 
ATOM     33  C   UNL     1      -3.708  15.578  24.204  0.00  0.00    +0.000 C 
ATOM     34  N   UNL     1      -5.157  15.422  24.445  0.00  0.00    +0.000 NA
ATOM     35  C   UNL     1      -5.703  14.441  23.483  0.00  0.00    +0.000 C 
ATOM     36  C   UNL     1      -4.976  13.073  23.494  0.00  0.00    +0.000 C 
ATOM     37  H   UNL     1      -5.616  16.320  24.298  0.00  0.00    +0.000 HD
ENDBRANCH  28  31
ENDBRANCH  24  25
ENDBRANCH  23  24
ENDBRANCH   3  23
TORSDOF 7
ENDMDL
