MODEL 1
REMARK VINA RESULT:      -7.1      0.000      0.000
REMARK  Name = 
REMARK  10 active torsions:
REMARK  status: ('A' for Active; 'I' for Inactive)
REMARK    1  A    between atoms: C_1  and  C_2
REMARK    2  A    between atoms: C_2  and  C_3
REMARK    3  A    between atoms: C_3  and  C_4
REMARK    4  A    between atoms: C_4  and  N_5
REMARK    5  A    between atoms: C_7  and  S_8
REMARK    6  A    between atoms: S_8  and  C_11
REMARK    7  A    between atoms: C_23  and  N_24
REMARK    8  A    between atoms: N_27  and  C_28
REMARK    9  A    between atoms: C_28  and  C_29
REMARK   10  A    between atoms: C_29  and  C_30
REMARK                            x       y       z     vdW  Elec       q    Type
REMARK                         _______ _______ _______ _____ _____    ______ ____
ROOT
ATOM      1  N   UNL     1       1.393  11.245  19.337  0.00  0.00    +0.000 N 
ATOM      2  C   UNL     1       0.601  12.090  20.108  0.00  0.00    +0.000 A 
ATOM      3  C   UNL     1      -0.052  11.748  21.231  0.00  0.00    +0.000 A 
ATOM      4  C   UNL     1       0.046  10.353  21.690  0.00  0.00    +0.000 A 
ATOM      5  O   UNL     1      -0.516   9.949  22.698  0.00  0.00    +0.000 OA
ATOM      6  C   UNL     1       0.840   9.420  20.865  0.00  0.00    +0.000 A 
ATOM      7  C   UNL     1       0.898   8.079  21.255  0.00  0.00    +0.000 A 
ATOM      8  C   UNL     1       1.534   7.155  20.438  0.00  0.00    +0.000 A 
ATOM      9  F   UNL     1       1.474   5.869  20.814  0.00  0.00    +0.000 F 
ATOM     10  C   UNL     1       2.149   7.536  19.237  0.00  0.00    +0.000 A 
ATOM     11  C   UNL     1       2.144   8.916  18.933  0.00  0.00    +0.000 A 
ATOM     12  C   UNL     1       1.474   9.880  19.699  0.00  0.00    +0.000 A 
ENDROOT
BRANCH  10  13
ATOM     13  N   UNL     1       2.747   6.662  18.339  0.00  0.00    +0.000 N 
ATOM     14  C   UNL     1       4.174   6.748  17.984  0.00  0.00    +0.000 C 
ATOM     15  C   UNL     1       4.951   5.499  18.453  0.00  0.00    +0.000 C 
ATOM     16  N   UNL     1       4.366   4.209  18.003  0.00  0.00    +0.000 NA
ATOM     17  C   UNL     1       2.977   4.170  18.520  0.00  0.00    +0.000 C 
ATOM     18  C   UNL     1       2.091   5.360  18.082  0.00  0.00    +0.000 C 
BRANCH  16  19
ATOM     19  C   UNL     1       4.367   4.049  16.537  0.00  0.00    +0.000 C 
BRANCH  19  20
ATOM     20  C   UNL     1       5.769   4.083  15.922  0.00  0.00    +0.000 C 
ATOM     21  C   UNL     1       5.698   4.260  14.413  0.00  0.00    +0.000 C 
ENDBRANCH  19  20
ENDBRANCH  16  19
ENDBRANCH  10  13
BRANCH   3  22
ATOM     22  S   UNL     1      -1.059  12.892  22.023  0.00  0.00    +0.000 S 
ATOM     23  O   UNL     1      -1.168  12.552  23.433  0.00  0.00    +0.000 OA
ATOM     24  O   UNL     1      -0.625  14.229  21.651  0.00  0.00    +0.000 OA
BRANCH  22  25
ATOM     25  C   UNL     1      -2.693  12.647  21.352  0.00  0.00    +0.000 A 
ATOM     26  C   UNL     1      -2.837  12.394  19.984  0.00  0.00    +0.000 A 
ATOM     27  C   UNL     1      -4.117  12.283  19.440  0.00  0.00    +0.000 A 
ATOM     28  C   UNL     1      -5.239  12.404  20.261  0.00  0.00    +0.000 A 
ATOM     29  C   UNL     1      -5.088  12.622  21.631  0.00  0.00    +0.000 A 
ATOM     30  C   UNL     1      -3.814  12.743  22.184  0.00  0.00    +0.000 A 
ENDBRANCH  22  25
ENDBRANCH   3  22
BRANCH   1  31
ATOM     31  C   UNL     1       2.019  11.711  18.081  0.00  0.00    +0.000 C 
BRANCH  31  32
ATOM     32  C   UNL     1       1.966  13.240  17.974  0.00  0.00    +0.000 C 
BRANCH  32  34
ATOM     33  C   UNL     1       3.607  15.126  17.648  0.00  0.00    +0.000 C 
ATOM     34  C   UNL     1       3.263  13.888  18.464  0.00  0.00    +0.000 C 
ENDBRANCH  32  34
ENDBRANCH  31  32
ENDBRANCH   1  31
TORSDOF 8
ENDMDL
MODEL 2
REMARK VINA RESULT:      -7.1      1.624      2.255
REMARK  Name = 
REMARK  10 active torsions:
REMARK  status: ('A' for Active; 'I' for Inactive)
REMARK    1  A    between atoms: C_1  and  C_2
REMARK    2  A    between atoms: C_2  and  C_3
REMARK    3  A    between atoms: C_3  and  C_4
REMARK    4  A    between atoms: C_4  and  N_5
REMARK    5  A    between atoms: C_7  and  S_8
REMARK    6  A    between atoms: S_8  and  C_11
REMARK    7  A    between atoms: C_23  and  N_24
REMARK    8  A    between atoms: N_27  and  C_28
REMARK    9  A    between atoms: C_28  and  C_29
REMARK   10  A    between atoms: C_29  and  C_30
REMARK                            x       y       z     vdW  Elec       q    Type
REMARK                         _______ _______ _______ _____ _____    ______ ____
ROOT
ATOM      1  N   UNL     1       1.227  10.836  19.339  0.00  0.00    +0.000 N 
ATOM      2  C   UNL     1       0.387  11.634  20.111  0.00  0.00    +0.000 A 
ATOM      3  C   UNL     1      -0.234  11.259  21.241  0.00  0.00    +0.000 A 
ATOM      4  C   UNL     1      -0.042   9.876  21.709  0.00  0.00    +0.000 A 
ATOM      5  O   UNL     1      -0.569   9.444  22.725  0.00  0.00    +0.000 OA
ATOM      6  C   UNL     1       0.805   8.991  20.885  0.00  0.00    +0.000 A 
ATOM      7  C   UNL     1       0.953   7.659  21.283  0.00  0.00    +0.000 A 
ATOM      8  C   UNL     1       1.643   6.773  20.468  0.00  0.00    +0.000 A 
ATOM      9  F   UNL     1       1.669   5.488  20.853  0.00  0.00    +0.000 F 
ATOM     10  C   UNL     1       2.222   7.184  19.260  0.00  0.00    +0.000 A 
ATOM     11  C   UNL     1       2.125   8.558  18.946  0.00  0.00    +0.000 A 
ATOM     12  C   UNL     1       1.399   9.482  19.711  0.00  0.00    +0.000 A 
ENDROOT
BRANCH  10  13
ATOM     13  N   UNL     1       2.870   6.345  18.363  0.00  0.00    +0.000 N 
ATOM     14  C   UNL     1       4.320   6.419  18.117  0.00  0.00    +0.000 C 
ATOM     15  C   UNL     1       5.040   5.132  18.575  0.00  0.00    +0.000 C 
ATOM     16  N   UNL     1       4.467   3.879  18.018  0.00  0.00    +0.000 NA
ATOM     17  C   UNL     1       3.044   3.842  18.430  0.00  0.00    +0.000 C 
ATOM     18  C   UNL     1       2.213   5.071  17.992  0.00  0.00    +0.000 C 
BRANCH  16  19
ATOM     19  C   UNL     1       4.573   3.793  16.550  0.00  0.00    +0.000 C 
BRANCH  19  20
ATOM     20  C   UNL     1       6.004   3.962  16.032  0.00  0.00    +0.000 C 
ATOM     21  C   UNL     1       6.008   4.444  14.589  0.00  0.00    +0.000 C 
ENDBRANCH  19  20
ENDBRANCH  16  19
ENDBRANCH  10  13
BRANCH   3  22
ATOM     22  S   UNL     1      -1.308  12.340  22.033  0.00  0.00    +0.000 S 
ATOM     23  O   UNL     1      -2.655  12.158  21.514  0.00  0.00    +0.000 OA
ATOM     24  O   UNL     1      -1.086  12.248  23.467  0.00  0.00    +0.000 OA
BRANCH  22  25
ATOM     25  C   UNL     1      -0.821  13.975  21.514  0.00  0.00    +0.000 A 
ATOM     26  C   UNL     1       0.146  14.665  22.252  0.00  0.00    +0.000 A 
ATOM     27  C   UNL     1       0.471  15.975  21.898  0.00  0.00    +0.000 A 
ATOM     28  C   UNL     1      -0.152  16.579  20.806  0.00  0.00    +0.000 A 
ATOM     29  C   UNL     1      -1.092  15.874  20.052  0.00  0.00    +0.000 A 
ATOM     30  C   UNL     1      -1.429  14.567  20.402  0.00  0.00    +0.000 A 
ENDBRANCH  22  25
ENDBRANCH   3  22
BRANCH   1  31
ATOM     31  C   UNL     1       1.812  11.333  18.076  0.00  0.00    +0.000 C 
BRANCH  31  32
ATOM     32  C   UNL     1       1.731  12.863  17.996  0.00  0.00    +0.000 C 
BRANCH  32  34
ATOM     33  C   UNL     1       2.910  14.389  19.619  0.00  0.00    +0.000 C 
ATOM     34  C   UNL     1       3.058  13.522  18.377  0.00  0.00    +0.000 C 
ENDBRANCH  32  34
ENDBRANCH  31  32
ENDBRANCH   1  31
TORSDOF 8
ENDMDL
MODEL 3
REMARK VINA RESULT:      -7.1      3.474      8.778
REMARK  Name = 
REMARK  10 active torsions:
REMARK  status: ('A' for Active; 'I' for Inactive)
REMARK    1  A    between atoms: C_1  and  C_2
REMARK    2  A    between atoms: C_2  and  C_3
REMARK    3  A    between atoms: C_3  and  C_4
REMARK    4  A    between atoms: C_4  and  N_5
REMARK    5  A    between atoms: C_7  and  S_8
REMARK    6  A    between atoms: S_8  and  C_11
REMARK    7  A    between atoms: C_23  and  N_24
REMARK    8  A    between atoms: N_27  and  C_28
REMARK    9  A    between atoms: C_28  and  C_29
REMARK   10  A    between atoms: C_29  and  C_30
REMARK                            x       y       z     vdW  Elec       q    Type
REMARK                         _______ _______ _______ _____ _____    ______ ____
ROOT
ATOM      1  N   UNL     1       1.617   9.342  18.596  0.00  0.00    +0.000 N 
ATOM      2  C   UNL     1       2.371   8.223  18.254  0.00  0.00    +0.000 A 
ATOM      3  C   UNL     1       2.583   7.149  19.032  0.00  0.00    +0.000 A 
ATOM      4  C   UNL     1       1.994   7.147  20.382  0.00  0.00    +0.000 A 
ATOM      5  O   UNL     1       2.135   6.215  21.161  0.00  0.00    +0.000 OA
ATOM      6  C   UNL     1       1.228   8.342  20.791  0.00  0.00    +0.000 A 
ATOM      7  C   UNL     1       0.709   8.380  22.088  0.00  0.00    +0.000 A 
ATOM      8  C   UNL     1       0.089   9.535  22.543  0.00  0.00    +0.000 A 
ATOM      9  F   UNL     1      -0.303   9.549  23.826  0.00  0.00    +0.000 F 
ATOM     10  C   UNL     1      -0.056  10.664  21.725  0.00  0.00    +0.000 A 
ATOM     11  C   UNL     1       0.402  10.543  20.393  0.00  0.00    +0.000 A 
ATOM     12  C   UNL     1       1.077   9.417  19.901  0.00  0.00    +0.000 A 
ENDROOT
BRANCH  10  13
ATOM     13  N   UNL     1      -0.606  11.873  22.128  0.00  0.00    +0.000 N 
ATOM     14  C   UNL     1      -0.263  13.152  21.483  0.00  0.00    +0.000 C 
ATOM     15  C   UNL     1      -1.484  13.773  20.771  0.00  0.00    +0.000 C 
ATOM     16  N   UNL     1      -2.688  13.915  21.631  0.00  0.00    +0.000 NA
ATOM     17  C   UNL     1      -3.020  12.557  22.123  0.00  0.00    +0.000 C 
ATOM     18  C   UNL     1      -1.877  11.849  22.887  0.00  0.00    +0.000 C 
BRANCH  16  19
ATOM     19  C   UNL     1      -2.487  14.832  22.768  0.00  0.00    +0.000 C 
BRANCH  19  20
ATOM     20  C   UNL     1      -3.711  14.949  23.680  0.00  0.00    +0.000 C 
ATOM     21  C   UNL     1      -3.296  15.227  25.117  0.00  0.00    +0.000 C 
ENDBRANCH  19  20
ENDBRANCH  16  19
ENDBRANCH  10  13
BRANCH   3  22
ATOM     22  S   UNL     1       3.612   5.885  18.493  0.00  0.00    +0.000 S 
ATOM     23  O   UNL     1       3.790   5.981  17.052  0.00  0.00    +0.000 OA
ATOM     24  O   UNL     1       4.788   5.846  19.348  0.00  0.00    +0.000 OA
BRANCH  22  25
ATOM     25  C   UNL     1       2.702   4.374  18.754  0.00  0.00    +0.000 A 
ATOM     26  C   UNL     1       1.485   4.187  18.089  0.00  0.00    +0.000 A 
ATOM     27  C   UNL     1       0.730   3.044  18.352  0.00  0.00    +0.000 A 
ATOM     28  C   UNL     1       1.198   2.090  19.256  0.00  0.00    +0.000 A 
ATOM     29  C   UNL     1       2.429   2.264  19.891  0.00  0.00    +0.000 A 
ATOM     30  C   UNL     1       3.188   3.408  19.641  0.00  0.00    +0.000 A 
ENDBRANCH  22  25
ENDBRANCH   3  22
BRANCH   1  31
ATOM     31  C   UNL     1       1.499  10.498  17.682  0.00  0.00    +0.000 C 
BRANCH  31  32
ATOM     32  C   UNL     1       2.634  11.503  17.917  0.00  0.00    +0.000 C 
BRANCH  32  34
ATOM     33  C   UNL     1       3.221  13.920  18.328  0.00  0.00    +0.000 C 
ATOM     34  C   UNL     1       2.098  12.895  18.257  0.00  0.00    +0.000 C 
ENDBRANCH  32  34
ENDBRANCH  31  32
ENDBRANCH   1  31
TORSDOF 8
ENDMDL
MODEL 4
REMARK VINA RESULT:      -7.1      1.856      2.602
REMARK  Name = 
REMARK  10 active torsions:
REMARK  status: ('A' for Active; 'I' for Inactive)
REMARK    1  A    between atoms: C_1  and  C_2
REMARK    2  A    between atoms: C_2  and  C_3
REMARK    3  A    between atoms: C_3  and  C_4
REMARK    4  A    between atoms: C_4  and  N_5
REMARK    5  A    between atoms: C_7  and  S_8
REMARK    6  A    between atoms: S_8  and  C_11
REMARK    7  A    between atoms: C_23  and  N_24
REMARK    8  A    between atoms: N_27  and  C_28
REMARK    9  A    between atoms: C_28  and  C_29
REMARK   10  A    between atoms: C_29  and  C_30
REMARK                            x       y       z     vdW  Elec       q    Type
REMARK                         _______ _______ _______ _____ _____    ______ ____
ROOT
ATOM      1  N   UNL     1      -0.489  11.313  19.702  0.00  0.00    +0.000 N 
ATOM      2  C   UNL     1      -1.274  12.004  20.620  0.00  0.00    +0.000 A 
ATOM      3  C   UNL     1      -1.362  11.742  21.935  0.00  0.00    +0.000 A 
ATOM      4  C   UNL     1      -0.585  10.611  22.467  0.00  0.00    +0.000 A 
ATOM      5  O   UNL     1      -0.604  10.295  23.648  0.00  0.00    +0.000 OA
ATOM      6  C   UNL     1       0.221   9.828  21.508  0.00  0.00    +0.000 A 
ATOM      7  C   UNL     1       0.922   8.717  21.986  0.00  0.00    +0.000 A 
ATOM      8  C   UNL     1       1.590   7.893  21.093  0.00  0.00    +0.000 A 
ATOM      9  F   UNL     1       2.162   6.789  21.596  0.00  0.00    +0.000 F 
ATOM     10  C   UNL     1       1.605   8.159  19.716  0.00  0.00    +0.000 A 
ATOM     11  C   UNL     1       0.961   9.344  19.293  0.00  0.00    +0.000 A 
ATOM     12  C   UNL     1       0.233  10.182  20.149  0.00  0.00    +0.000 A 
ENDROOT
BRANCH  10  13
ATOM     13  N   UNL     1       2.196   7.348  18.756  0.00  0.00    +0.000 N 
ATOM     14  C   UNL     1       3.035   7.888  17.673  0.00  0.00    +0.000 C 
ATOM     15  C   UNL     1       4.498   7.409  17.796  0.00  0.00    +0.000 C 
ATOM     16  N   UNL     1       4.652   5.935  17.906  0.00  0.00    +0.000 NA
ATOM     17  C   UNL     1       3.875   5.515  19.096  0.00  0.00    +0.000 C 
ATOM     18  C   UNL     1       2.381   5.912  19.066  0.00  0.00    +0.000 C 
BRANCH  16  19
ATOM     19  C   UNL     1       4.182   5.209  16.711  0.00  0.00    +0.000 C 
BRANCH  19  20
ATOM     20  C   UNL     1       5.216   4.232  16.147  0.00  0.00    +0.000 C 
ATOM     21  C   UNL     1       6.606   4.535  16.686  0.00  0.00    +0.000 C 
ENDBRANCH  19  20
ENDBRANCH  16  19
ENDBRANCH  10  13
BRANCH   3  22
ATOM     22  S   UNL     1      -2.446  12.637  22.920  0.00  0.00    +0.000 S 
ATOM     23  O   UNL     1      -3.270  11.723  23.697  0.00  0.00    +0.000 OA
ATOM     24  O   UNL     1      -1.697  13.672  23.614  0.00  0.00    +0.000 OA
BRANCH  22  25
ATOM     25  C   UNL     1      -3.571  13.444  21.797  0.00  0.00    +0.000 A 
ATOM     26  C   UNL     1      -3.435  14.817  21.566  0.00  0.00    +0.000 A 
ATOM     27  C   UNL     1      -4.362  15.469  20.751  0.00  0.00    +0.000 A 
ATOM     28  C   UNL     1      -5.402  14.749  20.160  0.00  0.00    +0.000 A 
ATOM     29  C   UNL     1      -5.512  13.373  20.367  0.00  0.00    +0.000 A 
ATOM     30  C   UNL     1      -4.595  12.713  21.185  0.00  0.00    +0.000 A 
ENDBRANCH  22  25
ENDBRANCH   3  22
BRANCH   1  31
ATOM     31  C   UNL     1      -0.514  11.649  18.262  0.00  0.00    +0.000 C 
BRANCH  31  32
ATOM     32  C   UNL     1      -1.903  11.395  17.662  0.00  0.00    +0.000 C 
BRANCH  32  34
ATOM     33  C   UNL     1      -2.759   9.946  15.785  0.00  0.00    +0.000 C 
ATOM     34  C   UNL     1      -2.036   9.969  17.123  0.00  0.00    +0.000 C 
ENDBRANCH  32  34
ENDBRANCH  31  32
ENDBRANCH   1  31
TORSDOF 8
ENDMDL
MODEL 5
REMARK VINA RESULT:      -7.0      4.204      9.832
REMARK  Name = 
REMARK  10 active torsions:
REMARK  status: ('A' for Active; 'I' for Inactive)
REMARK    1  A    between atoms: C_1  and  C_2
REMARK    2  A    between atoms: C_2  and  C_3
REMARK    3  A    between atoms: C_3  and  C_4
REMARK    4  A    between atoms: C_4  and  N_5
REMARK    5  A    between atoms: C_7  and  S_8
REMARK    6  A    between atoms: S_8  and  C_11
REMARK    7  A    between atoms: C_23  and  N_24
REMARK    8  A    between atoms: N_27  and  C_28
REMARK    9  A    between atoms: C_28  and  C_29
REMARK   10  A    between atoms: C_29  and  C_30
REMARK                            x       y       z     vdW  Elec       q    Type
REMARK                         _______ _______ _______ _____ _____    ______ ____
ROOT
ATOM      1  N   UNL     1       2.540   5.944  19.950  0.00  0.00    +0.000 N 
ATOM      2  C   UNL     1       3.657   5.189  19.604  0.00  0.00    +0.000 A 
ATOM      3  C   UNL     1       4.628   5.563  18.755  0.00  0.00    +0.000 A 
ATOM      4  C   UNL     1       4.505   6.877  18.102  0.00  0.00    +0.000 A 
ATOM      5  O   UNL     1       5.338   7.302  17.313  0.00  0.00    +0.000 OA
ATOM      6  C   UNL     1       3.306   7.682  18.412  0.00  0.00    +0.000 A 
ATOM      7  C   UNL     1       3.146   8.907  17.759  0.00  0.00    +0.000 A 
ATOM      8  C   UNL     1       1.976   9.630  17.937  0.00  0.00    +0.000 A 
ATOM      9  F   UNL     1       1.835  10.749  17.210  0.00  0.00    +0.000 F 
ATOM     10  C   UNL     1       0.951   9.176  18.780  0.00  0.00    +0.000 A 
ATOM     11  C   UNL     1       1.200   7.979  19.490  0.00  0.00    +0.000 A 
ATOM     12  C   UNL     1       2.343   7.189  19.308  0.00  0.00    +0.000 A 
ENDROOT
BRANCH  10  13
ATOM     13  N   UNL     1      -0.271   9.810  18.959  0.00  0.00    +0.000 N 
ATOM     14  C   UNL     1      -0.493  10.818  20.009  0.00  0.00    +0.000 C 
ATOM     15  C   UNL     1      -0.789  12.208  19.407  0.00  0.00    +0.000 C 
ATOM     16  N   UNL     1      -1.892  12.223  18.411  0.00  0.00    +0.000 NA
ATOM     17  C   UNL     1      -1.509  11.273  17.340  0.00  0.00    +0.000 C 
ATOM     18  C   UNL     1      -1.223   9.832  17.825  0.00  0.00    +0.000 C 
BRANCH  16  19
ATOM     19  C   UNL     1      -3.197  11.843  18.983  0.00  0.00    +0.000 C 
BRANCH  19  20
ATOM     20  C   UNL     1      -4.291  11.650  17.929  0.00  0.00    +0.000 C 
ATOM     21  C   UNL     1      -5.543  11.044  18.547  0.00  0.00    +0.000 C 
ENDBRANCH  19  20
ENDBRANCH  16  19
ENDBRANCH  10  13
BRANCH   3  22
ATOM     22  S   UNL     1       5.900   4.477  18.368  0.00  0.00    +0.000 S 
ATOM     23  O   UNL     1       7.165   5.019  18.839  0.00  0.00    +0.000 OA
ATOM     24  O   UNL     1       5.509   3.138  18.782  0.00  0.00    +0.000 OA
BRANCH  22  25
ATOM     25  C   UNL     1       6.019   4.481  16.589  0.00  0.00    +0.000 A 
ATOM     26  C   UNL     1       4.915   4.074  15.831  0.00  0.00    +0.000 A 
ATOM     27  C   UNL     1       5.030   3.999  14.443  0.00  0.00    +0.000 A 
ATOM     28  C   UNL     1       6.230   4.344  13.820  0.00  0.00    +0.000 A 
ATOM     29  C   UNL     1       7.317   4.782  14.579  0.00  0.00    +0.000 A 
ATOM     30  C   UNL     1       7.215   4.854  15.968  0.00  0.00    +0.000 A 
ENDBRANCH  22  25
ENDBRANCH   3  22
BRANCH   1  31
ATOM     31  C   UNL     1       1.498   5.408  20.852  0.00  0.00    +0.000 C 
BRANCH  31  32
ATOM     32  C   UNL     1       1.651   3.892  21.029  0.00  0.00    +0.000 C 
BRANCH  32  34
ATOM     33  C   UNL     1       1.094   2.644  18.910  0.00  0.00    +0.000 C 
ATOM     34  C   UNL     1       0.577   3.120  20.260  0.00  0.00    +0.000 C 
ENDBRANCH  32  34
ENDBRANCH  31  32
ENDBRANCH   1  31
TORSDOF 8
ENDMDL
MODEL 6
REMARK VINA RESULT:      -7.0      2.335      3.734
REMARK  Name = 
REMARK  10 active torsions:
REMARK  status: ('A' for Active; 'I' for Inactive)
REMARK    1  A    between atoms: C_1  and  C_2
REMARK    2  A    between atoms: C_2  and  C_3
REMARK    3  A    between atoms: C_3  and  C_4
REMARK    4  A    between atoms: C_4  and  N_5
REMARK    5  A    between atoms: C_7  and  S_8
REMARK    6  A    between atoms: S_8  and  C_11
REMARK    7  A    between atoms: C_23  and  N_24
REMARK    8  A    between atoms: N_27  and  C_28
REMARK    9  A    between atoms: C_28  and  C_29
REMARK   10  A    between atoms: C_29  and  C_30
REMARK                            x       y       z     vdW  Elec       q    Type
REMARK                         _______ _______ _______ _____ _____    ______ ____
ROOT
ATOM      1  N   UNL     1      -1.800  11.399  19.040  0.00  0.00    +0.000 N 
ATOM      2  C   UNL     1      -2.852  12.126  19.587  0.00  0.00    +0.000 A 
ATOM      3  C   UNL     1      -3.030  12.394  20.892  0.00  0.00    +0.000 A 
ATOM      4  C   UNL     1      -2.046  11.858  21.847  0.00  0.00    +0.000 A 
ATOM      5  O   UNL     1      -2.126  12.047  23.052  0.00  0.00    +0.000 OA
ATOM      6  C   UNL     1      -0.944  11.040  21.301  0.00  0.00    +0.000 A 
ATOM      7  C   UNL     1      -0.033  10.476  22.198  0.00  0.00    +0.000 A 
ATOM      8  C   UNL     1       0.942   9.607  21.729  0.00  0.00    +0.000 A 
ATOM      9  F   UNL     1       1.725   9.021  22.647  0.00  0.00    +0.000 F 
ATOM     10  C   UNL     1       1.056   9.296  20.367  0.00  0.00    +0.000 A 
ATOM     11  C   UNL     1       0.172   9.963  19.489  0.00  0.00    +0.000 A 
ATOM     12  C   UNL     1      -0.859  10.811  19.918  0.00  0.00    +0.000 A 
ENDROOT
BRANCH  10  13
ATOM     13  N   UNL     1       1.961   8.389  19.832  0.00  0.00    +0.000 N 
ATOM     14  C   UNL     1       2.184   7.056  20.416  0.00  0.00    +0.000 C 
ATOM     15  C   UNL     1       1.743   5.934  19.452  0.00  0.00    +0.000 C 
ATOM     16  N   UNL     1       2.335   6.026  18.092  0.00  0.00    +0.000 NA
ATOM     17  C   UNL     1       1.945   7.348  17.549  0.00  0.00    +0.000 C 
ATOM     18  C   UNL     1       2.369   8.555  18.418  0.00  0.00    +0.000 C 
BRANCH  16  19
ATOM     19  C   UNL     1       3.803   5.888  18.086  0.00  0.00    +0.000 C 
BRANCH  19  20
ATOM     20  C   UNL     1       4.289   4.575  17.467  0.00  0.00    +0.000 C 
ATOM     21  C   UNL     1       5.079   4.831  16.192  0.00  0.00    +0.000 C 
ENDBRANCH  19  20
ENDBRANCH  16  19
ENDBRANCH  10  13
BRANCH   3  22
ATOM     22  S   UNL     1      -4.431  13.237  21.415  0.00  0.00    +0.000 S 
ATOM     23  O   UNL     1      -5.006  12.561  22.567  0.00  0.00    +0.000 OA
ATOM     24  O   UNL     1      -4.112  14.652  21.515  0.00  0.00    +0.000 OA
BRANCH  22  25
ATOM     25  C   UNL     1      -5.630  13.043  20.109  0.00  0.00    +0.000 A 
ATOM     26  C   UNL     1      -6.173  11.777  19.865  0.00  0.00    +0.000 A 
ATOM     27  C   UNL     1      -7.050  11.604  18.793  0.00  0.00    +0.000 A 
ATOM     28  C   UNL     1      -7.392  12.691  17.987  0.00  0.00    +0.000 A 
ATOM     29  C   UNL     1      -6.874  13.959  18.256  0.00  0.00    +0.000 A 
ATOM     30  C   UNL     1      -5.991  14.141  19.321  0.00  0.00    +0.000 A 
ENDBRANCH  22  25
ENDBRANCH   3  22
BRANCH   1  31
ATOM     31  C   UNL     1      -1.735  11.111  17.591  0.00  0.00    +0.000 C 
BRANCH  31  32
ATOM     32  C   UNL     1      -2.860  10.158  17.169  0.00  0.00    +0.000 C 
BRANCH  32  34
ATOM     33  C   UNL     1      -3.176  10.144  14.668  0.00  0.00    +0.000 C 
ATOM     34  C   UNL     1      -3.663  10.716  15.991  0.00  0.00    +0.000 C 
ENDBRANCH  32  34
ENDBRANCH  31  32
ENDBRANCH   1  31
TORSDOF 8
ENDMDL
MODEL 7
REMARK VINA RESULT:      -6.9      1.773      2.520
REMARK  Name = 
REMARK  10 active torsions:
REMARK  status: ('A' for Active; 'I' for Inactive)
REMARK    1  A    between atoms: C_1  and  C_2
REMARK    2  A    between atoms: C_2  and  C_3
REMARK    3  A    between atoms: C_3  and  C_4
REMARK    4  A    between atoms: C_4  and  N_5
REMARK    5  A    between atoms: C_7  and  S_8
REMARK    6  A    between atoms: S_8  and  C_11
REMARK    7  A    between atoms: C_23  and  N_24
REMARK    8  A    between atoms: N_27  and  C_28
REMARK    9  A    between atoms: C_28  and  C_29
REMARK   10  A    between atoms: C_29  and  C_30
REMARK                            x       y       z     vdW  Elec       q    Type
REMARK                         _______ _______ _______ _____ _____    ______ ____
ROOT
ATOM      1  N   UNL     1       0.716  10.745  19.314  0.00  0.00    +0.000 N 
ATOM      2  C   UNL     1      -0.151  11.467  20.128  0.00  0.00    +0.000 A 
ATOM      3  C   UNL     1      -0.610  11.079  21.330  0.00  0.00    +0.000 A 
ATOM      4  C   UNL     1      -0.188   9.763  21.837  0.00  0.00    +0.000 A 
ATOM      5  O   UNL     1      -0.556   9.324  22.918  0.00  0.00    +0.000 OA
ATOM      6  C   UNL     1       0.694   8.952  20.974  0.00  0.00    +0.000 A 
ATOM      7  C   UNL     1       1.059   7.676  21.415  0.00  0.00    +0.000 A 
ATOM      8  C   UNL     1       1.786   6.844  20.577  0.00  0.00    +0.000 A 
ATOM      9  F   UNL     1       2.023   5.598  21.014  0.00  0.00    +0.000 F 
ATOM     10  C   UNL     1       2.191   7.258  19.300  0.00  0.00    +0.000 A 
ATOM     11  C   UNL     1       1.878   8.587  18.936  0.00  0.00    +0.000 A 
ATOM     12  C   UNL     1       1.105   9.449  19.727  0.00  0.00    +0.000 A 
ENDROOT
BRANCH  10  13
ATOM     13  N   UNL     1       2.864   6.462  18.382  0.00  0.00    +0.000 N 
ATOM     14  C   UNL     1       4.317   6.560  18.165  0.00  0.00    +0.000 C 
ATOM     15  C   UNL     1       5.042   5.263  18.585  0.00  0.00    +0.000 C 
ATOM     16  N   UNL     1       4.493   4.027  17.968  0.00  0.00    +0.000 NA
ATOM     17  C   UNL     1       3.063   3.961  18.353  0.00  0.00    +0.000 C 
ATOM     18  C   UNL     1       2.226   5.197  17.949  0.00  0.00    +0.000 C 
BRANCH  16  19
ATOM     19  C   UNL     1       4.625   4.001  16.500  0.00  0.00    +0.000 C 
BRANCH  19  20
ATOM     20  C   UNL     1       6.077   4.066  16.018  0.00  0.00    +0.000 C 
ATOM     21  C   UNL     1       6.154   3.963  14.502  0.00  0.00    +0.000 C 
ENDBRANCH  19  20
ENDBRANCH  16  19
ENDBRANCH  10  13
BRANCH   3  22
ATOM     22  S   UNL     1      -1.745  12.052  22.174  0.00  0.00    +0.000 S 
ATOM     23  O   UNL     1      -2.812  12.453  21.270  0.00  0.00    +0.000 OA
ATOM     24  O   UNL     1      -2.090  11.388  23.420  0.00  0.00    +0.000 OA
BRANCH  22  25
ATOM     25  C   UNL     1      -0.884  13.559  22.583  0.00  0.00    +0.000 A 
ATOM     26  C   UNL     1      -1.353  14.347  23.639  0.00  0.00    +0.000 A 
ATOM     27  C   UNL     1      -0.732  15.566  23.911  0.00  0.00    +0.000 A 
ATOM     28  C   UNL     1       0.358  15.982  23.146  0.00  0.00    +0.000 A 
ATOM     29  C   UNL     1       0.844  15.176  22.115  0.00  0.00    +0.000 A 
ATOM     30  C   UNL     1       0.226  13.958  21.830  0.00  0.00    +0.000 A 
ENDBRANCH  22  25
ENDBRANCH   3  22
BRANCH   1  31
ATOM     31  C   UNL     1       1.110  11.242  17.978  0.00  0.00    +0.000 C 
BRANCH  31  32
ATOM     32  C   UNL     1       2.453  11.981  18.040  0.00  0.00    +0.000 C 
BRANCH  32  34
ATOM     33  C   UNL     1       3.033  14.047  19.363  0.00  0.00    +0.000 C 
ATOM     34  C   UNL     1       2.262  13.493  18.173  0.00  0.00    +0.000 C 
ENDBRANCH  32  34
ENDBRANCH  31  32
ENDBRANCH   1  31
TORSDOF 8
ENDMDL
MODEL 8
REMARK VINA RESULT:      -6.8      2.438      3.746
REMARK  Name = 
REMARK  10 active torsions:
REMARK  status: ('A' for Active; 'I' for Inactive)
REMARK    1  A    between atoms: C_1  and  C_2
REMARK    2  A    between atoms: C_2  and  C_3
REMARK    3  A    between atoms: C_3  and  C_4
REMARK    4  A    between atoms: C_4  and  N_5
REMARK    5  A    between atoms: C_7  and  S_8
REMARK    6  A    between atoms: S_8  and  C_11
REMARK    7  A    between atoms: C_23  and  N_24
REMARK    8  A    between atoms: N_27  and  C_28
REMARK    9  A    between atoms: C_28  and  C_29
REMARK   10  A    between atoms: C_29  and  C_30
REMARK                            x       y       z     vdW  Elec       q    Type
REMARK                         _______ _______ _______ _____ _____    ______ ____
ROOT
ATOM      1  N   UNL     1      -1.718  11.111  18.846  0.00  0.00    +0.000 N 
ATOM      2  C   UNL     1      -2.763  11.891  19.333  0.00  0.00    +0.000 A 
ATOM      3  C   UNL     1      -2.937  12.265  20.611  0.00  0.00    +0.000 A 
ATOM      4  C   UNL     1      -1.957  11.798  21.606  0.00  0.00    +0.000 A 
ATOM      5  O   UNL     1      -2.035  12.086  22.793  0.00  0.00    +0.000 OA
ATOM      6  C   UNL     1      -0.864  10.929  21.129  0.00  0.00    +0.000 A 
ATOM      7  C   UNL     1       0.043  10.431  22.069  0.00  0.00    +0.000 A 
ATOM      8  C   UNL     1       1.008   9.517  21.672  0.00  0.00    +0.000 A 
ATOM      9  F   UNL     1       1.787   8.999  22.634  0.00  0.00    +0.000 F 
ATOM     10  C   UNL     1       1.119   9.096  20.340  0.00  0.00    +0.000 A 
ATOM     11  C   UNL     1       0.241   9.698  19.411  0.00  0.00    +0.000 A 
ATOM     12  C   UNL     1      -0.782  10.587  19.769  0.00  0.00    +0.000 A 
ENDROOT
BRANCH  10  13
ATOM     13  N   UNL     1       2.015   8.140  19.880  0.00  0.00    +0.000 N 
ATOM     14  C   UNL     1       2.176   6.829  20.531  0.00  0.00    +0.000 C 
ATOM     15  C   UNL     1       1.737   5.676  19.602  0.00  0.00    +0.000 C 
ATOM     16  N   UNL     1       2.380   5.690  18.263  0.00  0.00    +0.000 NA
ATOM     17  C   UNL     1       2.050   6.997  17.646  0.00  0.00    +0.000 C 
ATOM     18  C   UNL     1       2.479   8.229  18.476  0.00  0.00    +0.000 C 
BRANCH  16  19
ATOM     19  C   UNL     1       3.843   5.509  18.318  0.00  0.00    +0.000 C 
BRANCH  19  20
ATOM     20  C   UNL     1       4.379   4.553  17.249  0.00  0.00    +0.000 C 
ATOM     21  C   UNL     1       3.807   3.155  17.431  0.00  0.00    +0.000 C 
ENDBRANCH  19  20
ENDBRANCH  16  19
ENDBRANCH  10  13
BRANCH   3  22
ATOM     22  S   UNL     1      -4.330  13.161  21.063  0.00  0.00    +0.000 S 
ATOM     23  O   UNL     1      -4.975  12.520  22.199  0.00  0.00    +0.000 OA
ATOM     24  O   UNL     1      -3.968  14.566  21.159  0.00  0.00    +0.000 OA
BRANCH  22  25
ATOM     25  C   UNL     1      -5.479  12.989  19.711  0.00  0.00    +0.000 A 
ATOM     26  C   UNL     1      -5.982  14.139  19.094  0.00  0.00    +0.000 A 
ATOM     27  C   UNL     1      -6.943  14.011  18.090  0.00  0.00    +0.000 A 
ATOM     28  C   UNL     1      -7.380  12.746  17.697  0.00  0.00    +0.000 A 
ATOM     29  C   UNL     1      -6.849  11.600  18.293  0.00  0.00    +0.000 A 
ATOM     30  C   UNL     1      -5.894  11.717  19.302  0.00  0.00    +0.000 A 
ENDBRANCH  22  25
ENDBRANCH   3  22
BRANCH   1  31
ATOM     31  C   UNL     1      -1.656  10.706  17.426  0.00  0.00    +0.000 C 
BRANCH  31  32
ATOM     32  C   UNL     1      -2.917  11.149  16.672  0.00  0.00    +0.000 C 
BRANCH  32  34
ATOM     33  C   UNL     1      -3.160  10.132  14.378  0.00  0.00    +0.000 C 
ATOM     34  C   UNL     1      -3.519  10.006  15.852  0.00  0.00    +0.000 C 
ENDBRANCH  32  34
ENDBRANCH  31  32
ENDBRANCH   1  31
TORSDOF 8
ENDMDL
MODEL 9
REMARK VINA RESULT:      -6.8      2.487      3.563
REMARK  Name = 
REMARK  10 active torsions:
REMARK  status: ('A' for Active; 'I' for Inactive)
REMARK    1  A    between atoms: C_1  and  C_2
REMARK    2  A    between atoms: C_2  and  C_3
REMARK    3  A    between atoms: C_3  and  C_4
REMARK    4  A    between atoms: C_4  and  N_5
REMARK    5  A    between atoms: C_7  and  S_8
REMARK    6  A    between atoms: S_8  and  C_11
REMARK    7  A    between atoms: C_23  and  N_24
REMARK    8  A    between atoms: N_27  and  C_28
REMARK    9  A    between atoms: C_28  and  C_29
REMARK   10  A    between atoms: C_29  and  C_30
REMARK                            x       y       z     vdW  Elec       q    Type
REMARK                         _______ _______ _______ _____ _____    ______ ____
ROOT
ATOM      1  N   UNL     1      -0.947  11.301  19.328  0.00  0.00    +0.000 N 
ATOM      2  C   UNL     1      -1.758  12.063  20.163  0.00  0.00    +0.000 A 
ATOM      3  C   UNL     1      -1.791  11.996  21.504  0.00  0.00    +0.000 A 
ATOM      4  C   UNL     1      -0.915  11.017  22.168  0.00  0.00    +0.000 A 
ATOM      5  O   UNL     1      -0.879  10.882  23.383  0.00  0.00    +0.000 OA
ATOM      6  C   UNL     1      -0.076  10.160  21.305  0.00  0.00    +0.000 A 
ATOM      7  C   UNL     1       0.720   9.187  21.916  0.00  0.00    +0.000 A 
ATOM      8  C   UNL     1       1.426   8.288  21.130  0.00  0.00    +0.000 A 
ATOM      9  F   UNL     1       2.095   7.316  21.768  0.00  0.00    +0.000 F 
ATOM     10  C   UNL     1       1.385   8.345  19.729  0.00  0.00    +0.000 A 
ATOM     11  C   UNL     1       0.640   9.403  19.161  0.00  0.00    +0.000 A 
ATOM     12  C   UNL     1      -0.128  10.305  19.910  0.00  0.00    +0.000 A 
ENDROOT
BRANCH  10  13
ATOM     13  N   UNL     1       2.011   7.444  18.878  0.00  0.00    +0.000 N 
ATOM     14  C   UNL     1       2.854   7.877  17.751  0.00  0.00    +0.000 C 
ATOM     15  C   UNL     1       4.326   7.454  17.947  0.00  0.00    +0.000 C 
ATOM     16  N   UNL     1       4.515   6.008  18.231  0.00  0.00    +0.000 NA
ATOM     17  C   UNL     1       3.729   5.708  19.452  0.00  0.00    +0.000 C 
ATOM     18  C   UNL     1       2.226   6.059  19.356  0.00  0.00    +0.000 C 
BRANCH  16  19
ATOM     19  C   UNL     1       4.082   5.136  17.123  0.00  0.00    +0.000 C 
BRANCH  19  20
ATOM     20  C   UNL     1       4.114   3.646  17.472  0.00  0.00    +0.000 C 
ATOM     21  C   UNL     1       2.747   3.009  17.271  0.00  0.00    +0.000 C 
ENDBRANCH  19  20
ENDBRANCH  16  19
ENDBRANCH  10  13
BRANCH   3  22
ATOM     22  S   UNL     1      -2.915  12.948  22.387  0.00  0.00    +0.000 S 
ATOM     23  O   UNL     1      -3.809  13.629  21.463  0.00  0.00    +0.000 OA
ATOM     24  O   UNL     1      -3.485  12.131  23.446  0.00  0.00    +0.000 OA
BRANCH  22  25
ATOM     25  C   UNL     1      -1.958  14.241  23.155  0.00  0.00    +0.000 A 
ATOM     26  C   UNL     1      -0.936  14.858  22.425  0.00  0.00    +0.000 A 
ATOM     27  C   UNL     1      -0.131  15.813  23.048  0.00  0.00    +0.000 A 
ATOM     28  C   UNL     1      -0.360  16.159  24.380  0.00  0.00    +0.000 A 
ATOM     29  C   UNL     1      -1.403  15.565  25.093  0.00  0.00    +0.000 A 
ATOM     30  C   UNL     1      -2.208  14.604  24.483  0.00  0.00    +0.000 A 
ENDBRANCH  22  25
ENDBRANCH   3  22
BRANCH   1  31
ATOM     31  C   UNL     1      -1.036  11.414  17.856  0.00  0.00    +0.000 C 
BRANCH  31  32
ATOM     32  C   UNL     1      -2.491  11.316  17.384  0.00  0.00    +0.000 C 
BRANCH  32  34
ATOM     33  C   UNL     1      -2.811  10.147  15.173  0.00  0.00    +0.000 C 
ATOM     34  C   UNL     1      -2.772   9.983  16.685  0.00  0.00    +0.000 C 
ENDBRANCH  32  34
ENDBRANCH  31  32
ENDBRANCH   1  31
TORSDOF 8
ENDMDL
