MODEL 1
REMARK VINA RESULT:      -6.7      0.000      0.000
REMARK  Name = 
REMARK  8 active torsions:
REMARK  status: ('A' for Active; 'I' for Inactive)
REMARK    1  A    between atoms: C_1  and  C_2
REMARK    2  A    between atoms: C_2  and  C_3
REMARK    3  A    between atoms: N_4  and  C_5
REMARK    4  A    between atoms: C_5  and  C_6
REMARK    5  A    between atoms: N_19  and  C_20
REMARK    6  A    between atoms: C_20  and  C_21
REMARK    7  A    between atoms: C_21  and  O_22
REMARK    8  A    between atoms: O_22  and  C_23
REMARK                            x       y       z     vdW  Elec       q    Type
REMARK                         _______ _______ _______ _____ _____    ______ ____
ROOT
ATOM      1  C   UNL     1       3.726   5.636  17.417  0.00  0.00    +0.000 C 
ATOM      2  N   UNL     1       2.441   5.791  18.178  0.00  0.00    +0.000 NA
ATOM      3  C   UNL     1       1.701   4.519  18.149  0.00  0.00    +0.000 C 
ATOM      4  C   UNL     1       2.481   3.368  18.777  0.00  0.00    +0.000 C 
ATOM      5  C   UNL     1       3.815   3.152  18.067  0.00  0.00    +0.000 C 
ATOM      6  C   UNL     1       4.671   4.440  17.885  0.00  0.00    +0.000 C 
ATOM      7  C   UNL     1       5.441   4.766  19.193  0.00  0.00    +0.000 C 
ATOM      8  C   UNL     1       6.856   5.155  18.802  0.00  0.00    +0.000 C 
ATOM      9  C   UNL     1       7.030   4.602  17.427  0.00  0.00    +0.000 C 
ATOM     10  O   UNL     1       8.106   4.530  16.855  0.00  0.00    +0.000 OA
ATOM     11  N   UNL     1       5.793   4.189  16.944  0.00  0.00    +0.000 N 
ENDROOT
BRANCH   1  13
ATOM     12  C   UNL     1       4.906   7.218  15.769  0.00  0.00    +0.000 C 
ATOM     13  C   UNL     1       4.481   6.974  17.214  0.00  0.00    +0.000 C 
ENDBRANCH   1  13
BRANCH   2  14
ATOM     14  C   UNL     1       2.582   6.319  19.556  0.00  0.00    +0.000 C 
BRANCH  14  15
ATOM     15  C   UNL     1       1.850   7.596  19.873  0.00  0.00    +0.000 A 
ATOM     16  N   UNL     1       1.364   7.876  21.073  0.00  0.00    +0.000 NA
ATOM     17  C   UNL     1       0.842   9.153  21.082  0.00  0.00    +0.000 A 
ATOM     18  C   UNL     1       0.910   9.827  19.885  0.00  0.00    +0.000 A 
ATOM     19  S   UNL     1       1.666   8.843  18.699  0.00  0.00    +0.000 S 
ENDBRANCH  14  15
ENDBRANCH   2  14
BRANCH  11  20
ATOM     20  C   UNL     1       5.740   3.402  15.706  0.00  0.00    +0.000 C 
BRANCH  20  21
ATOM     21  C   UNL     1       5.527   4.159  14.393  0.00  0.00    +0.000 C 
BRANCH  21  22
ATOM     22  O   UNL     1       6.595   3.912  13.480  0.00  0.00    +0.000 OA
ATOM     23  C   UNL     1       6.124   3.313  12.281  0.00  0.00    +0.000 C 
ENDBRANCH  21  22
ENDBRANCH  20  21
ENDBRANCH  11  20
TORSDOF 6
ENDMDL
MODEL 2
REMARK VINA RESULT:      -5.9      3.413      6.433
REMARK  Name = 
REMARK  8 active torsions:
REMARK  status: ('A' for Active; 'I' for Inactive)
REMARK    1  A    between atoms: C_1  and  C_2
REMARK    2  A    between atoms: C_2  and  C_3
REMARK    3  A    between atoms: N_4  and  C_5
REMARK    4  A    between atoms: C_5  and  C_6
REMARK    5  A    between atoms: N_19  and  C_20
REMARK    6  A    between atoms: C_20  and  C_21
REMARK    7  A    between atoms: C_21  and  O_22
REMARK    8  A    between atoms: O_22  and  C_23
REMARK                            x       y       z     vdW  Elec       q    Type
REMARK                         _______ _______ _______ _____ _____    ______ ____
ROOT
ATOM      1  C   UNL     1       3.689   4.746  17.543  0.00  0.00    +0.000 C 
ATOM      2  N   UNL     1       4.656   5.171  16.474  0.00  0.00    +0.000 NA
ATOM      3  C   UNL     1       5.435   6.323  16.953  0.00  0.00    +0.000 C 
ATOM      4  C   UNL     1       6.238   6.011  18.212  0.00  0.00    +0.000 C 
ATOM      5  C   UNL     1       5.327   5.555  19.349  0.00  0.00    +0.000 C 
ATOM      6  C   UNL     1       4.327   4.424  18.968  0.00  0.00    +0.000 C 
ATOM      7  C   UNL     1       5.035   3.043  19.006  0.00  0.00    +0.000 C 
ATOM      8  C   UNL     1       4.092   2.068  19.692  0.00  0.00    +0.000 C 
ATOM      9  C   UNL     1       3.138   2.936  20.442  0.00  0.00    +0.000 C 
ATOM     10  O   UNL     1       2.358   2.517  21.282  0.00  0.00    +0.000 OA
ATOM     11  N   UNL     1       3.304   4.254  20.033  0.00  0.00    +0.000 N 
ENDROOT
BRANCH   1  13
ATOM     12  C   UNL     1       1.232   4.001  17.408  0.00  0.00    +0.000 C 
ATOM     13  C   UNL     1       2.681   3.672  17.063  0.00  0.00    +0.000 C 
ENDBRANCH   1  13
BRANCH   2  14
ATOM     14  C   UNL     1       5.526   4.094  15.945  0.00  0.00    +0.000 C 
BRANCH  14  15
ATOM     15  C   UNL     1       6.251   4.376  14.656  0.00  0.00    +0.000 A 
ATOM     16  N   UNL     1       7.324   5.149  14.579  0.00  0.00    +0.000 NA
ATOM     17  C   UNL     1       7.822   5.135  13.293  0.00  0.00    +0.000 A 
ATOM     18  C   UNL     1       7.113   4.374  12.393  0.00  0.00    +0.000 A 
ATOM     19  S   UNL     1       5.777   3.632  13.176  0.00  0.00    +0.000 S 
ENDBRANCH  14  15
ENDBRANCH   2  14
BRANCH  11  20
ATOM     20  C   UNL     1       2.641   5.323  20.790  0.00  0.00    +0.000 C 
BRANCH  20  21
ATOM     21  C   UNL     1       1.713   6.265  20.020  0.00  0.00    +0.000 C 
BRANCH  21  22
ATOM     22  O   UNL     1       2.296   7.560  19.881  0.00  0.00    +0.000 OA
ATOM     23  C   UNL     1       2.341   7.965  18.520  0.00  0.00    +0.000 C 
ENDBRANCH  21  22
ENDBRANCH  20  21
ENDBRANCH  11  20
TORSDOF 6
ENDMDL
MODEL 3
REMARK VINA RESULT:      -5.8      2.210      3.017
REMARK  Name = 
REMARK  8 active torsions:
REMARK  status: ('A' for Active; 'I' for Inactive)
REMARK    1  A    between atoms: C_1  and  C_2
REMARK    2  A    between atoms: C_2  and  C_3
REMARK    3  A    between atoms: N_4  and  C_5
REMARK    4  A    between atoms: C_5  and  C_6
REMARK    5  A    between atoms: N_19  and  C_20
REMARK    6  A    between atoms: C_20  and  C_21
REMARK    7  A    between atoms: C_21  and  O_22
REMARK    8  A    between atoms: O_22  and  C_23
REMARK                            x       y       z     vdW  Elec       q    Type
REMARK                         _______ _______ _______ _____ _____    ______ ____
ROOT
ATOM      1  C   UNL     1       3.537   5.976  17.426  0.00  0.00    +0.000 C 
ATOM      2  N   UNL     1       2.419   5.445  18.278  0.00  0.00    +0.000 NA
ATOM      3  C   UNL     1       2.026   4.113  17.791  0.00  0.00    +0.000 C 
ATOM      4  C   UNL     1       3.170   3.105  17.841  0.00  0.00    +0.000 C 
ATOM      5  C   UNL     1       4.360   3.578  17.008  0.00  0.00    +0.000 C 
ATOM      6  C   UNL     1       4.819   5.037  17.300  0.00  0.00    +0.000 C 
ATOM      7  C   UNL     1       5.714   5.077  18.567  0.00  0.00    +0.000 C 
ATOM      8  C   UNL     1       6.890   5.990  18.264  0.00  0.00    +0.000 C 
ATOM      9  C   UNL     1       6.936   6.060  16.774  0.00  0.00    +0.000 C 
ATOM     10  O   UNL     1       7.870   6.531  16.145  0.00  0.00    +0.000 OA
ATOM     11  N   UNL     1       5.772   5.500  16.258  0.00  0.00    +0.000 N 
ENDROOT
BRANCH   1  13
ATOM     12  C   UNL     1       2.672   8.381  17.699  0.00  0.00    +0.000 C 
ATOM     13  C   UNL     1       3.884   7.455  17.727  0.00  0.00    +0.000 C 
ENDBRANCH   1  13
BRANCH   2  14
ATOM     14  C   UNL     1       2.679   5.448  19.736  0.00  0.00    +0.000 C 
BRANCH  14  15
ATOM     15  C   UNL     1       2.286   4.212  20.501  0.00  0.00    +0.000 A 
ATOM     16  N   UNL     1       1.032   3.917  20.811  0.00  0.00    +0.000 NA
ATOM     17  C   UNL     1       0.978   2.680  21.418  0.00  0.00    +0.000 A 
ATOM     18  C   UNL     1       2.189   2.052  21.590  0.00  0.00    +0.000 A 
ATOM     19  S   UNL     1       3.452   3.029  20.960  0.00  0.00    +0.000 S 
ENDBRANCH  14  15
ENDBRANCH   2  14
BRANCH  11  20
ATOM     20  C   UNL     1       5.686   5.244  14.815  0.00  0.00    +0.000 C 
BRANCH  20  21
ATOM     21  C   UNL     1       6.348   3.972  14.280  0.00  0.00    +0.000 C 
BRANCH  21  22
ATOM     22  O   UNL     1       6.657   4.098  12.893  0.00  0.00    +0.000 OA
ATOM     23  C   UNL     1       6.015   3.091  12.124  0.00  0.00    +0.000 C 
ENDBRANCH  21  22
ENDBRANCH  20  21
ENDBRANCH  11  20
TORSDOF 6
ENDMDL
MODEL 4
REMARK VINA RESULT:      -5.5      2.254      3.103
REMARK  Name = 
REMARK  8 active torsions:
REMARK  status: ('A' for Active; 'I' for Inactive)
REMARK    1  A    between atoms: C_1  and  C_2
REMARK    2  A    between atoms: C_2  and  C_3
REMARK    3  A    between atoms: N_4  and  C_5
REMARK    4  A    between atoms: C_5  and  C_6
REMARK    5  A    between atoms: N_19  and  C_20
REMARK    6  A    between atoms: C_20  and  C_21
REMARK    7  A    between atoms: C_21  and  O_22
REMARK    8  A    between atoms: O_22  and  C_23
REMARK                            x       y       z     vdW  Elec       q    Type
REMARK                         _______ _______ _______ _____ _____    ______ ____
ROOT
ATOM      1  C   UNL     1       3.777   5.637  17.080  0.00  0.00    +0.000 C 
ATOM      2  N   UNL     1       2.755   5.183  18.084  0.00  0.00    +0.000 NA
ATOM      3  C   UNL     1       2.149   3.923  17.626  0.00  0.00    +0.000 C 
ATOM      4  C   UNL     1       3.171   2.803  17.459  0.00  0.00    +0.000 C 
ATOM      5  C   UNL     1       4.259   3.192  16.460  0.00  0.00    +0.000 C 
ATOM      6  C   UNL     1       4.914   4.580  16.719  0.00  0.00    +0.000 C 
ATOM      7  C   UNL     1       5.996   4.468  17.826  0.00  0.00    +0.000 C 
ATOM      8  C   UNL     1       7.202   5.270  17.365  0.00  0.00    +0.000 C 
ATOM      9  C   UNL     1       7.019   5.405  15.890  0.00  0.00    +0.000 C 
ATOM     10  O   UNL     1       7.888   5.808  15.134  0.00  0.00    +0.000 OA
ATOM     11  N   UNL     1       5.735   4.993  15.552  0.00  0.00    +0.000 N 
ENDROOT
BRANCH   1  13
ATOM     12  C   UNL     1       3.233   8.086  17.642  0.00  0.00    +0.000 C 
ATOM     13  C   UNL     1       4.325   7.058  17.366  0.00  0.00    +0.000 C 
ENDBRANCH   1  13
BRANCH   2  14
ATOM     14  C   UNL     1       3.241   5.090  19.481  0.00  0.00    +0.000 C 
BRANCH  14  15
ATOM     15  C   UNL     1       2.667   3.986  20.329  0.00  0.00    +0.000 A 
ATOM     16  N   UNL     1       3.406   3.037  20.884  0.00  0.00    +0.000 NA
ATOM     17  C   UNL     1       2.617   2.234  21.681  0.00  0.00    +0.000 A 
ATOM     18  C   UNL     1       1.281   2.560  21.710  0.00  0.00    +0.000 A 
ATOM     19  S   UNL     1       0.989   3.929  20.716  0.00  0.00    +0.000 S 
ENDBRANCH  14  15
ENDBRANCH   2  14
BRANCH  11  20
ATOM     20  C   UNL     1       5.396   4.816  14.135  0.00  0.00    +0.000 C 
BRANCH  20  21
ATOM     21  C   UNL     1       6.086   3.680  13.377  0.00  0.00    +0.000 C 
BRANCH  21  22
ATOM     22  O   UNL     1       5.312   3.268  12.252  0.00  0.00    +0.000 OA
ATOM     23  C   UNL     1       5.878   2.129  11.620  0.00  0.00    +0.000 C 
ENDBRANCH  21  22
ENDBRANCH  20  21
ENDBRANCH  11  20
TORSDOF 6
ENDMDL
MODEL 5
REMARK VINA RESULT:      -5.4      3.345      6.653
REMARK  Name = 
REMARK  8 active torsions:
REMARK  status: ('A' for Active; 'I' for Inactive)
REMARK    1  A    between atoms: C_1  and  C_2
REMARK    2  A    between atoms: C_2  and  C_3
REMARK    3  A    between atoms: N_4  and  C_5
REMARK    4  A    between atoms: C_5  and  C_6
REMARK    5  A    between atoms: N_19  and  C_20
REMARK    6  A    between atoms: C_20  and  C_21
REMARK    7  A    between atoms: C_21  and  O_22
REMARK    8  A    between atoms: O_22  and  C_23
REMARK                            x       y       z     vdW  Elec       q    Type
REMARK                         _______ _______ _______ _____ _____    ______ ____
ROOT
ATOM      1  C   UNL     1       3.687   4.777  17.503  0.00  0.00    +0.000 C 
ATOM      2  N   UNL     1       4.699   5.097  16.440  0.00  0.00    +0.000 NA
ATOM      3  C   UNL     1       5.494   6.262  16.859  0.00  0.00    +0.000 C 
ATOM      4  C   UNL     1       6.248   6.024  18.164  0.00  0.00    +0.000 C 
ATOM      5  C   UNL     1       5.288   5.676  19.300  0.00  0.00    +0.000 C 
ATOM      6  C   UNL     1       4.270   4.546  18.969  0.00  0.00    +0.000 C 
ATOM      7  C   UNL     1       4.939   3.154  19.132  0.00  0.00    +0.000 C 
ATOM      8  C   UNL     1       3.948   2.257  19.854  0.00  0.00    +0.000 C 
ATOM      9  C   UNL     1       2.994   3.201  20.507  0.00  0.00    +0.000 C 
ATOM     10  O   UNL     1       2.177   2.866  21.349  0.00  0.00    +0.000 OA
ATOM     11  N   UNL     1       3.210   4.481  20.008  0.00  0.00    +0.000 N 
ENDROOT
BRANCH   1  13
ATOM     12  C   UNL     1       1.227   4.033  17.450  0.00  0.00    +0.000 C 
ATOM     13  C   UNL     1       2.665   3.696  17.069  0.00  0.00    +0.000 C 
ENDBRANCH   1  13
BRANCH   2  14
ATOM     14  C   UNL     1       5.555   3.963  16.019  0.00  0.00    +0.000 C 
BRANCH  14  15
ATOM     15  C   UNL     1       6.013   3.950  14.586  0.00  0.00    +0.000 A 
ATOM     16  N   UNL     1       5.372   3.304  13.624  0.00  0.00    +0.000 NA
ATOM     17  C   UNL     1       5.970   3.561  12.407  0.00  0.00    +0.000 A 
ATOM     18  C   UNL     1       7.074   4.379  12.452  0.00  0.00    +0.000 A 
ATOM     19  S   UNL     1       7.381   4.863  14.070  0.00  0.00    +0.000 S 
ENDBRANCH  14  15
ENDBRANCH   2  14
BRANCH  11  20
ATOM     20  C   UNL     1       2.553   5.619  20.662  0.00  0.00    +0.000 C 
BRANCH  20  21
ATOM     21  C   UNL     1       2.190   6.824  19.791  0.00  0.00    +0.000 C 
BRANCH  21  22
ATOM     22  O   UNL     1       1.796   7.936  20.592  0.00  0.00    +0.000 OA
ATOM     23  C   UNL     1       1.196   8.956  19.806  0.00  0.00    +0.000 C 
ENDBRANCH  21  22
ENDBRANCH  20  21
ENDBRANCH  11  20
TORSDOF 6
ENDMDL
MODEL 6
REMARK VINA RESULT:      -5.3      5.820     10.264
REMARK  Name = 
REMARK  8 active torsions:
REMARK  status: ('A' for Active; 'I' for Inactive)
REMARK    1  A    between atoms: C_1  and  C_2
REMARK    2  A    between atoms: C_2  and  C_3
REMARK    3  A    between atoms: N_4  and  C_5
REMARK    4  A    between atoms: C_5  and  C_6
REMARK    5  A    between atoms: N_19  and  C_20
REMARK    6  A    between atoms: C_20  and  C_21
REMARK    7  A    between atoms: C_21  and  O_22
REMARK    8  A    between atoms: O_22  and  C_23
REMARK                            x       y       z     vdW  Elec       q    Type
REMARK                         _______ _______ _______ _____ _____    ______ ____
ROOT
ATOM      1  C   UNL     1      -0.738  10.946  20.906  0.00  0.00    +0.000 C 
ATOM      2  N   UNL     1      -0.526  10.045  19.722  0.00  0.00    +0.000 NA
ATOM      3  C   UNL     1      -1.572  10.303  18.720  0.00  0.00    +0.000 C 
ATOM      4  C   UNL     1      -1.567  11.743  18.218  0.00  0.00    +0.000 C 
ATOM      5  C   UNL     1      -1.764  12.730  19.368  0.00  0.00    +0.000 C 
ATOM      6  C   UNL     1      -0.820  12.505  20.586  0.00  0.00    +0.000 C 
ATOM      7  C   UNL     1       0.573  13.132  20.311  0.00  0.00    +0.000 C 
ATOM      8  C   UNL     1       1.003  13.856  21.576  0.00  0.00    +0.000 C 
ATOM      9  C   UNL     1      -0.264  14.062  22.338  0.00  0.00    +0.000 C 
ATOM     10  O   UNL     1      -0.359  14.792  23.311  0.00  0.00    +0.000 OA
ATOM     11  N   UNL     1      -1.275  13.310  21.750  0.00  0.00    +0.000 N 
ENDROOT
BRANCH   1  13
ATOM     12  C   UNL     1      -0.392   9.558  23.042  0.00  0.00    +0.000 C 
ATOM     13  C   UNL     1       0.187  10.611  22.103  0.00  0.00    +0.000 C 
ENDBRANCH   1  13
BRANCH   2  14
ATOM     14  C   UNL     1       0.832  10.089  19.130  0.00  0.00    +0.000 C 
BRANCH  14  15
ATOM     15  C   UNL     1       1.617   8.804  19.130  0.00  0.00    +0.000 A 
ATOM     16  N   UNL     1       1.644   7.970  20.158  0.00  0.00    +0.000 NA
ATOM     17  C   UNL     1       2.360   6.839  19.825  0.00  0.00    +0.000 A 
ATOM     18  C   UNL     1       2.894   6.829  18.558  0.00  0.00    +0.000 A 
ATOM     19  S   UNL     1       2.481   8.278  17.736  0.00  0.00    +0.000 S 
ENDBRANCH  14  15
ENDBRANCH   2  14
BRANCH  11  20
ATOM     20  C   UNL     1      -2.662  13.525  22.179  0.00  0.00    +0.000 C 
BRANCH  20  21
ATOM     21  C   UNL     1      -3.243  12.555  23.210  0.00  0.00    +0.000 C 
BRANCH  21  22
ATOM     22  O   UNL     1      -4.603  12.243  22.912  0.00  0.00    +0.000 OA
ATOM     23  C   UNL     1      -5.066  12.967  21.781  0.00  0.00    +0.000 C 
ENDBRANCH  21  22
ENDBRANCH  20  21
ENDBRANCH  11  20
TORSDOF 6
ENDMDL
MODEL 7
REMARK VINA RESULT:      -5.2      5.819     10.392
REMARK  Name = 
REMARK  8 active torsions:
REMARK  status: ('A' for Active; 'I' for Inactive)
REMARK    1  A    between atoms: C_1  and  C_2
REMARK    2  A    between atoms: C_2  and  C_3
REMARK    3  A    between atoms: N_4  and  C_5
REMARK    4  A    between atoms: C_5  and  C_6
REMARK    5  A    between atoms: N_19  and  C_20
REMARK    6  A    between atoms: C_20  and  C_21
REMARK    7  A    between atoms: C_21  and  O_22
REMARK    8  A    between atoms: O_22  and  C_23
REMARK                            x       y       z     vdW  Elec       q    Type
REMARK                         _______ _______ _______ _____ _____    ______ ____
ROOT
ATOM      1  C   UNL     1      -0.656  10.950  20.778  0.00  0.00    +0.000 C 
ATOM      2  N   UNL     1      -0.430  10.086  19.570  0.00  0.00    +0.000 NA
ATOM      3  C   UNL     1      -1.487  10.348  18.580  0.00  0.00    +0.000 C 
ATOM      4  C   UNL     1      -1.515  11.801  18.116  0.00  0.00    +0.000 C 
ATOM      5  C   UNL     1      -1.727  12.752  19.293  0.00  0.00    +0.000 C 
ATOM      6  C   UNL     1      -0.773  12.515  20.500  0.00  0.00    +0.000 C 
ATOM      7  C   UNL     1       0.606  13.179  20.236  0.00  0.00    +0.000 C 
ATOM      8  C   UNL     1       1.025  13.878  21.519  0.00  0.00    +0.000 C 
ATOM      9  C   UNL     1      -0.241  14.036  22.291  0.00  0.00    +0.000 C 
ATOM     10  O   UNL     1      -0.347  14.738  23.284  0.00  0.00    +0.000 OA
ATOM     11  N   UNL     1      -1.239  13.279  21.687  0.00  0.00    +0.000 N 
ENDROOT
BRANCH   1  13
ATOM     12  C   UNL     1      -0.409   9.821  23.074  0.00  0.00    +0.000 C 
ATOM     13  C   UNL     1       0.282  10.603  21.962  0.00  0.00    +0.000 C 
ENDBRANCH   1  13
BRANCH   2  14
ATOM     14  C   UNL     1       0.923  10.175  18.974  0.00  0.00    +0.000 C 
BRANCH  14  15
ATOM     15  C   UNL     1       1.679   8.884  18.805  0.00  0.00    +0.000 A 
ATOM     16  N   UNL     1       2.360   8.578  17.711  0.00  0.00    +0.000 NA
ATOM     17  C   UNL     1       3.027   7.384  17.892  0.00  0.00    +0.000 A 
ATOM     18  C   UNL     1       2.830   6.776  19.110  0.00  0.00    +0.000 A 
ATOM     19  S   UNL     1       1.784   7.730  20.080  0.00  0.00    +0.000 S 
ENDBRANCH  14  15
ENDBRANCH   2  14
BRANCH  11  20
ATOM     20  C   UNL     1      -2.628  13.452  22.127  0.00  0.00    +0.000 C 
BRANCH  20  21
ATOM     21  C   UNL     1      -3.186  12.438  23.128  0.00  0.00    +0.000 C 
BRANCH  21  22
ATOM     22  O   UNL     1      -4.592  12.267  22.956  0.00  0.00    +0.000 OA
ATOM     23  C   UNL     1      -5.327  13.003  23.924  0.00  0.00    +0.000 C 
ENDBRANCH  21  22
ENDBRANCH  20  21
ENDBRANCH  11  20
TORSDOF 6
ENDMDL
MODEL 8
REMARK VINA RESULT:      -5.2      3.228      6.355
REMARK  Name = 
REMARK  8 active torsions:
REMARK  status: ('A' for Active; 'I' for Inactive)
REMARK    1  A    between atoms: C_1  and  C_2
REMARK    2  A    between atoms: C_2  and  C_3
REMARK    3  A    between atoms: N_4  and  C_5
REMARK    4  A    between atoms: C_5  and  C_6
REMARK    5  A    between atoms: N_19  and  C_20
REMARK    6  A    between atoms: C_20  and  C_21
REMARK    7  A    between atoms: C_21  and  O_22
REMARK    8  A    between atoms: O_22  and  C_23
REMARK                            x       y       z     vdW  Elec       q    Type
REMARK                         _______ _______ _______ _____ _____    ______ ____
ROOT
ATOM      1  C   UNL     1       4.131   4.859  18.647  0.00  0.00    +0.000 C 
ATOM      2  N   UNL     1       4.654   4.248  17.379  0.00  0.00    +0.000 NA
ATOM      3  C   UNL     1       3.781   3.134  16.978  0.00  0.00    +0.000 C 
ATOM      4  C   UNL     1       2.342   3.573  16.726  0.00  0.00    +0.000 C 
ATOM      5  C   UNL     1       1.736   4.222  17.968  0.00  0.00    +0.000 C 
ATOM      6  C   UNL     1       2.611   5.339  18.611  0.00  0.00    +0.000 C 
ATOM      7  C   UNL     1       2.426   6.676  17.845  0.00  0.00    +0.000 C 
ATOM      8  C   UNL     1       2.296   7.779  18.882  0.00  0.00    +0.000 C 
ATOM      9  C   UNL     1       1.922   7.068  20.140  0.00  0.00    +0.000 C 
ATOM     10  O   UNL     1       1.527   7.633  21.147  0.00  0.00    +0.000 OA
ATOM     11  N   UNL     1       2.088   5.700  19.954  0.00  0.00    +0.000 N 
ENDROOT
BRANCH   1  13
ATOM     12  C   UNL     1       6.540   5.432  19.338  0.00  0.00    +0.000 C 
ATOM     13  C   UNL     1       5.092   5.906  19.264  0.00  0.00    +0.000 C 
ENDBRANCH   1  13
BRANCH   2  14
ATOM     14  C   UNL     1       4.885   5.200  16.267  0.00  0.00    +0.000 C 
BRANCH  14  15
ATOM     15  C   UNL     1       5.601   4.669  15.053  0.00  0.00    +0.000 A 
ATOM     16  N   UNL     1       4.983   4.053  14.057  0.00  0.00    +0.000 NA
ATOM     17  C   UNL     1       5.882   3.775  13.048  0.00  0.00    +0.000 A 
ATOM     18  C   UNL     1       7.180   4.157  13.291  0.00  0.00    +0.000 A 
ATOM     19  S   UNL     1       7.293   4.905  14.832  0.00  0.00    +0.000 S 
ENDBRANCH  14  15
ENDBRANCH   2  14
BRANCH  11  20
ATOM     20  C   UNL     1       1.566   4.777  20.969  0.00  0.00    +0.000 C 
BRANCH  20  21
ATOM     21  C   UNL     1       2.556   3.809  21.621  0.00  0.00    +0.000 C 
BRANCH  21  22
ATOM     22  O   UNL     1       2.605   2.571  20.914  0.00  0.00    +0.000 OA
ATOM     23  C   UNL     1       3.944   2.182  20.641  0.00  0.00    +0.000 C 
ENDBRANCH  21  22
ENDBRANCH  20  21
ENDBRANCH  11  20
TORSDOF 6
ENDMDL
MODEL 9
REMARK VINA RESULT:      -5.1      2.947      4.762
REMARK  Name = 
REMARK  8 active torsions:
REMARK  status: ('A' for Active; 'I' for Inactive)
REMARK    1  A    between atoms: C_1  and  C_2
REMARK    2  A    between atoms: C_2  and  C_3
REMARK    3  A    between atoms: N_4  and  C_5
REMARK    4  A    between atoms: C_5  and  C_6
REMARK    5  A    between atoms: N_19  and  C_20
REMARK    6  A    between atoms: C_20  and  C_21
REMARK    7  A    between atoms: C_21  and  O_22
REMARK    8  A    between atoms: O_22  and  C_23
REMARK                            x       y       z     vdW  Elec       q    Type
REMARK                         _______ _______ _______ _____ _____    ______ ____
ROOT
ATOM      1  C   UNL     1       3.234   5.385  19.425  0.00  0.00    +0.000 C 
ATOM      2  N   UNL     1       3.531   6.758  18.893  0.00  0.00    +0.000 NA
ATOM      3  C   UNL     1       4.767   6.714  18.095  0.00  0.00    +0.000 C 
ATOM      4  C   UNL     1       4.668   5.763  16.906  0.00  0.00    +0.000 C 
ATOM      5  C   UNL     1       4.351   4.340  17.362  0.00  0.00    +0.000 C 
ATOM      6  C   UNL     1       3.144   4.223  18.338  0.00  0.00    +0.000 C 
ATOM      7  C   UNL     1       1.808   4.248  17.548  0.00  0.00    +0.000 C 
ATOM      8  C   UNL     1       0.912   3.171  18.139  0.00  0.00    +0.000 C 
ATOM      9  C   UNL     1       1.847   2.263  18.865  0.00  0.00    +0.000 C 
ATOM     10  O   UNL     1       1.529   1.166  19.296  0.00  0.00    +0.000 OA
ATOM     11  N   UNL     1       3.097   2.867  18.945  0.00  0.00    +0.000 N 
ENDROOT
BRANCH   1  13
ATOM     12  C   UNL     1       2.316   4.438  21.632  0.00  0.00    +0.000 C 
ATOM     13  C   UNL     1       2.068   5.365  20.446  0.00  0.00    +0.000 C 
ENDBRANCH   1  13
BRANCH   2  14
ATOM     14  C   UNL     1       2.419   7.406  18.158  0.00  0.00    +0.000 C 
BRANCH  14  15
ATOM     15  C   UNL     1       1.783   8.606  18.806  0.00  0.00    +0.000 A 
ATOM     16  N   UNL     1       1.365   8.618  20.063  0.00  0.00    +0.000 NA
ATOM     17  C   UNL     1       0.925   9.881  20.399  0.00  0.00    +0.000 A 
ATOM     18  C   UNL     1       0.986  10.816  19.393  0.00  0.00    +0.000 A 
ATOM     19  S   UNL     1       1.629  10.104  17.969  0.00  0.00    +0.000 S 
ENDBRANCH  14  15
ENDBRANCH   2  14
BRANCH  11  20
ATOM     20  C   UNL     1       4.241   2.075  19.411  0.00  0.00    +0.000 C 
BRANCH  20  21
ATOM     21  C   UNL     1       4.318   1.752  20.905  0.00  0.00    +0.000 C 
BRANCH  21  22
ATOM     22  O   UNL     1       5.655   1.441  21.295  0.00  0.00    +0.000 OA
ATOM     23  C   UNL     1       5.725   0.183  21.950  0.00  0.00    +0.000 C 
ENDBRANCH  21  22
ENDBRANCH  20  21
ENDBRANCH  11  20
TORSDOF 6
ENDMDL
