MODEL 1
REMARK VINA RESULT:      -7.8      0.000      0.000
REMARK  Name = 
REMARK  2 active torsions:
REMARK  status: ('A' for Active; 'I' for Inactive)
REMARK    1  A    between atoms: N_3  and  C_4
REMARK    2  A    between atoms: C_18  and  C_19
REMARK                            x       y       z     vdW  Elec       q    Type
REMARK                         _______ _______ _______ _____ _____    ______ ____
ROOT
ATOM      1  O   UNL     1       5.019   6.752  15.285  0.00  0.00    +0.000 OA
ATOM      2  C   UNL     1       5.309   5.787  15.994  0.00  0.00    +0.000 C 
ATOM      3  N   UNL     1       5.953   4.664  15.521  0.00  0.00    +0.000 N 
ATOM      4  N   UNL     1       4.930   5.763  17.330  0.00  0.00    +0.000 N 
ATOM      5  C   UNL     1       3.993   6.814  17.779  0.00  0.00    +0.000 C 
ATOM      6  C   UNL     1       2.695   6.222  18.347  0.00  0.00    +0.000 C 
ATOM      7  C   UNL     1       3.004   5.019  19.179  0.00  0.00    +0.000 A 
ATOM      8  S   UNL     1       1.845   4.299  20.190  0.00  0.00    +0.000 S 
ATOM      9  C   UNL     1       2.938   3.060  20.638  0.00  0.00    +0.000 A 
ATOM     10  C   UNL     1       4.158   3.199  20.017  0.00  0.00    +0.000 A 
ATOM     11  C   UNL     1       4.218   4.360  19.180  0.00  0.00    +0.000 A 
ATOM     12  C   UNL     1       5.419   4.834  18.380  0.00  0.00    +0.000 C 
ATOM     13  H   UNL     1       5.792   3.812  16.033  0.00  0.00    +0.000 HD
ENDROOT
BRANCH   3  14
ATOM     14  C   UNL     1       6.413   4.476  14.192  0.00  0.00    +0.000 A 
ATOM     15  C   UNL     1       7.495   5.172  13.643  0.00  0.00    +0.000 A 
ATOM     16  C   UNL     1       7.855   4.996  12.304  0.00  0.00    +0.000 A 
ATOM     17  C   UNL     1       7.152   4.103  11.503  0.00  0.00    +0.000 A 
ATOM     18  C   UNL     1       6.101   3.369  12.048  0.00  0.00    +0.000 A 
ATOM     19  C   UNL     1       5.737   3.550  13.388  0.00  0.00    +0.000 A 
ENDBRANCH   3  14
BRANCH  12  20
ATOM     20  C   UNL     1       6.467   5.529  19.235  0.00  0.00    +0.000 C 
ATOM     21  C   UNL     1       7.909   5.066  19.228  0.00  0.00    +0.000 C 
ATOM     22  C   UNL     1       7.548   6.392  18.624  0.00  0.00    +0.000 C 
ENDBRANCH  12  20
TORSDOF 2
ENDMDL
MODEL 2
REMARK VINA RESULT:      -7.7      0.216      1.071
REMARK  Name = 
REMARK  2 active torsions:
REMARK  status: ('A' for Active; 'I' for Inactive)
REMARK    1  A    between atoms: N_3  and  C_4
REMARK    2  A    between atoms: C_18  and  C_19
REMARK                            x       y       z     vdW  Elec       q    Type
REMARK                         _______ _______ _______ _____ _____    ______ ____
ROOT
ATOM      1  O   UNL     1       4.962   6.797  15.272  0.00  0.00    +0.000 OA
ATOM      2  C   UNL     1       5.200   5.823  15.989  0.00  0.00    +0.000 C 
ATOM      3  N   UNL     1       5.746   4.650  15.516  0.00  0.00    +0.000 N 
ATOM      4  N   UNL     1       4.860   5.846  17.335  0.00  0.00    +0.000 N 
ATOM      5  C   UNL     1       4.017   6.970  17.793  0.00  0.00    +0.000 C 
ATOM      6  C   UNL     1       2.695   6.484  18.407  0.00  0.00    +0.000 C 
ATOM      7  C   UNL     1       2.939   5.273  19.249  0.00  0.00    +0.000 A 
ATOM      8  S   UNL     1       1.761   4.655  20.303  0.00  0.00    +0.000 S 
ATOM      9  C   UNL     1       2.772   3.345  20.740  0.00  0.00    +0.000 A 
ATOM     10  C   UNL     1       3.981   3.384  20.083  0.00  0.00    +0.000 A 
ATOM     11  C   UNL     1       4.101   4.526  19.226  0.00  0.00    +0.000 A 
ATOM     12  C   UNL     1       5.310   4.898  18.385  0.00  0.00    +0.000 C 
ATOM     13  H   UNL     1       5.538   3.819  16.045  0.00  0.00    +0.000 HD
ENDROOT
BRANCH   3  14
ATOM     14  C   UNL     1       6.152   4.409  14.177  0.00  0.00    +0.000 A 
ATOM     15  C   UNL     1       5.485   3.536  13.311  0.00  0.00    +0.000 A 
ATOM     16  C   UNL     1       5.977   3.286  12.027  0.00  0.00    +0.000 A 
ATOM     17  C   UNL     1       7.130   3.924  11.584  0.00  0.00    +0.000 A 
ATOM     18  C   UNL     1       7.780   4.830  12.418  0.00  0.00    +0.000 A 
ATOM     19  C   UNL     1       7.289   5.077  13.707  0.00  0.00    +0.000 A 
ENDBRANCH   3  14
BRANCH  12  20
ATOM     20  C   UNL     1       6.430   5.525  19.199  0.00  0.00    +0.000 C 
ATOM     21  C   UNL     1       7.855   5.024  19.078  0.00  0.00    +0.000 C 
ATOM     22  C   UNL     1       7.496   6.385  18.557  0.00  0.00    +0.000 C 
ENDBRANCH  12  20
TORSDOF 2
ENDMDL
MODEL 3
REMARK VINA RESULT:      -6.1      3.003      6.506
REMARK  Name = 
REMARK  2 active torsions:
REMARK  status: ('A' for Active; 'I' for Inactive)
REMARK    1  A    between atoms: N_3  and  C_4
REMARK    2  A    between atoms: C_18  and  C_19
REMARK                            x       y       z     vdW  Elec       q    Type
REMARK                         _______ _______ _______ _____ _____    ______ ____
ROOT
ATOM      1  O   UNL     1       2.154   5.473  19.321  0.00  0.00    +0.000 OA
ATOM      2  C   UNL     1       3.057   6.087  18.751  0.00  0.00    +0.000 C 
ATOM      3  N   UNL     1       3.029   7.448  18.533  0.00  0.00    +0.000 N 
ATOM      4  N   UNL     1       4.148   5.403  18.231  0.00  0.00    +0.000 N 
ATOM      5  C   UNL     1       4.057   3.928  18.195  0.00  0.00    +0.000 C 
ATOM      6  C   UNL     1       4.192   3.379  16.767  0.00  0.00    +0.000 C 
ATOM      7  C   UNL     1       5.251   4.132  16.028  0.00  0.00    +0.000 A 
ATOM      8  S   UNL     1       5.862   3.601  14.536  0.00  0.00    +0.000 S 
ATOM      9  C   UNL     1       6.862   4.984  14.401  0.00  0.00    +0.000 A 
ATOM     10  C   UNL     1       6.719   5.831  15.476  0.00  0.00    +0.000 A 
ATOM     11  C   UNL     1       5.797   5.329  16.451  0.00  0.00    +0.000 A 
ATOM     12  C   UNL     1       5.432   5.988  17.770  0.00  0.00    +0.000 C 
ATOM     13  H   UNL     1       3.569   7.783  17.753  0.00  0.00    +0.000 HD
ENDROOT
BRANCH   3  14
ATOM     14  C   UNL     1       2.007   8.331  18.967  0.00  0.00    +0.000 A 
ATOM     15  C   UNL     1       1.572   8.420  20.294  0.00  0.00    +0.000 A 
ATOM     16  C   UNL     1       0.510   9.257  20.645  0.00  0.00    +0.000 A 
ATOM     17  C   UNL     1      -0.116  10.036  19.677  0.00  0.00    +0.000 A 
ATOM     18  C   UNL     1       0.335   9.992  18.361  0.00  0.00    +0.000 A 
ATOM     19  C   UNL     1       1.396   9.149  18.008  0.00  0.00    +0.000 A 
ENDBRANCH   3  14
BRANCH  12  20
ATOM     20  C   UNL     1       6.495   5.807  18.840  0.00  0.00    +0.000 C 
ATOM     21  C   UNL     1       7.742   4.992  18.568  0.00  0.00    +0.000 C 
ATOM     22  C   UNL     1       7.847   6.479  18.742  0.00  0.00    +0.000 C 
ENDBRANCH  12  20
TORSDOF 2
ENDMDL
MODEL 4
REMARK VINA RESULT:      -6.1      2.989      6.501
REMARK  Name = 
REMARK  2 active torsions:
REMARK  status: ('A' for Active; 'I' for Inactive)
REMARK    1  A    between atoms: N_3  and  C_4
REMARK    2  A    between atoms: C_18  and  C_19
REMARK                            x       y       z     vdW  Elec       q    Type
REMARK                         _______ _______ _______ _____ _____    ______ ____
ROOT
ATOM      1  O   UNL     1       2.164   5.385  19.167  0.00  0.00    +0.000 OA
ATOM      2  C   UNL     1       3.080   6.012  18.632  0.00  0.00    +0.000 C 
ATOM      3  N   UNL     1       3.057   7.377  18.446  0.00  0.00    +0.000 N 
ATOM      4  N   UNL     1       4.181   5.339  18.120  0.00  0.00    +0.000 N 
ATOM      5  C   UNL     1       4.091   3.865  18.047  0.00  0.00    +0.000 C 
ATOM      6  C   UNL     1       4.256   3.350  16.609  0.00  0.00    +0.000 C 
ATOM      7  C   UNL     1       5.331   4.120  15.912  0.00  0.00    +0.000 A 
ATOM      8  S   UNL     1       5.974   3.624  14.421  0.00  0.00    +0.000 S 
ATOM      9  C   UNL     1       6.978   5.008  14.340  0.00  0.00    +0.000 A 
ATOM     10  C   UNL     1       6.811   5.830  15.432  0.00  0.00    +0.000 A 
ATOM     11  C   UNL     1       5.868   5.306  16.374  0.00  0.00    +0.000 A 
ATOM     12  C   UNL     1       5.475   5.934  17.700  0.00  0.00    +0.000 C 
ATOM     13  H   UNL     1       3.614   7.730  17.685  0.00  0.00    +0.000 HD
ENDROOT
BRANCH   3  14
ATOM     14  C   UNL     1       2.026   8.251  18.878  0.00  0.00    +0.000 A 
ATOM     15  C   UNL     1       1.344   9.124  18.024  0.00  0.00    +0.000 A 
ATOM     16  C   UNL     1       0.388  10.014  18.523  0.00  0.00    +0.000 A 
ATOM     17  C   UNL     1       0.084  10.024  19.880  0.00  0.00    +0.000 A 
ATOM     18  C   UNL     1       0.721   9.129  20.735  0.00  0.00    +0.000 A 
ATOM     19  C   UNL     1       1.683   8.242  20.236  0.00  0.00    +0.000 A 
ENDBRANCH   3  14
BRANCH  12  20
ATOM     20  C   UNL     1       6.515   5.726  18.788  0.00  0.00    +0.000 C 
ATOM     21  C   UNL     1       7.797   4.971  18.507  0.00  0.00    +0.000 C 
ATOM     22  C   UNL     1       7.844   6.448  18.769  0.00  0.00    +0.000 C 
ENDBRANCH  12  20
TORSDOF 2
ENDMDL
MODEL 5
REMARK VINA RESULT:      -5.9      9.466     11.296
REMARK  Name = 
REMARK  2 active torsions:
REMARK  status: ('A' for Active; 'I' for Inactive)
REMARK    1  A    between atoms: N_3  and  C_4
REMARK    2  A    between atoms: C_18  and  C_19
REMARK                            x       y       z     vdW  Elec       q    Type
REMARK                         _______ _______ _______ _____ _____    ______ ____
ROOT
ATOM      1  O   UNL     1      -0.806  13.057  18.435  0.00  0.00    +0.000 OA
ATOM      2  C   UNL     1      -1.443  12.487  19.322  0.00  0.00    +0.000 C 
ATOM      3  N   UNL     1      -2.381  11.509  19.073  0.00  0.00    +0.000 N 
ATOM      4  N   UNL     1      -1.281  12.862  20.650  0.00  0.00    +0.000 N 
ATOM      5  C   UNL     1      -0.507  14.095  20.908  0.00  0.00    +0.000 C 
ATOM      6  C   UNL     1      -1.334  15.145  21.664  0.00  0.00    +0.000 C 
ATOM      7  C   UNL     1      -2.155  14.482  22.722  0.00  0.00    +0.000 A 
ATOM      8  S   UNL     1      -2.956  15.367  23.930  0.00  0.00    +0.000 S 
ATOM      9  C   UNL     1      -3.650  13.942  24.579  0.00  0.00    +0.000 A 
ATOM     10  C   UNL     1      -3.277  12.820  23.875  0.00  0.00    +0.000 A 
ATOM     11  C   UNL     1      -2.378  13.120  22.800  0.00  0.00    +0.000 A 
ATOM     12  C   UNL     1      -1.744  12.120  21.849  0.00  0.00    +0.000 C 
ATOM     13  H   UNL     1      -3.100  11.397  19.769  0.00  0.00    +0.000 HD
ENDROOT
BRANCH   3  14
ATOM     14  C   UNL     1      -2.710  10.988  17.795  0.00  0.00    +0.000 A 
ATOM     15  C   UNL     1      -1.959  10.004  17.144  0.00  0.00    +0.000 A 
ATOM     16  C   UNL     1      -2.293   9.585  15.853  0.00  0.00    +0.000 A 
ATOM     17  C   UNL     1      -3.398  10.127  15.206  0.00  0.00    +0.000 A 
ATOM     18  C   UNL     1      -4.182  11.075  15.859  0.00  0.00    +0.000 A 
ATOM     19  C   UNL     1      -3.843  11.499  17.150  0.00  0.00    +0.000 A 
ENDBRANCH   3  14
BRANCH  12  20
ATOM     20  C   UNL     1      -0.579  11.366  22.470  0.00  0.00    +0.000 C 
ATOM     21  C   UNL     1      -0.752   9.952  22.983  0.00  0.00    +0.000 C 
ATOM     22  C   UNL     1       0.085  10.206  21.763  0.00  0.00    +0.000 C 
ENDBRANCH  12  20
TORSDOF 2
ENDMDL
MODEL 6
REMARK VINA RESULT:      -5.9      9.395     11.258
REMARK  Name = 
REMARK  2 active torsions:
REMARK  status: ('A' for Active; 'I' for Inactive)
REMARK    1  A    between atoms: N_3  and  C_4
REMARK    2  A    between atoms: C_18  and  C_19
REMARK                            x       y       z     vdW  Elec       q    Type
REMARK                         _______ _______ _______ _____ _____    ______ ____
ROOT
ATOM      1  O   UNL     1      -0.882  13.163  18.549  0.00  0.00    +0.000 OA
ATOM      2  C   UNL     1      -1.501  12.520  19.399  0.00  0.00    +0.000 C 
ATOM      3  N   UNL     1      -2.381  11.506  19.090  0.00  0.00    +0.000 N 
ATOM      4  N   UNL     1      -1.380  12.842  20.744  0.00  0.00    +0.000 N 
ATOM      5  C   UNL     1      -0.676  14.101  21.071  0.00  0.00    +0.000 C 
ATOM      6  C   UNL     1      -1.570  15.070  21.859  0.00  0.00    +0.000 C 
ATOM      7  C   UNL     1      -2.371  14.317  22.872  0.00  0.00    +0.000 A 
ATOM      8  S   UNL     1      -3.235  15.102  24.104  0.00  0.00    +0.000 S 
ATOM      9  C   UNL     1      -3.861  13.615  24.676  0.00  0.00    +0.000 A 
ATOM     10  C   UNL     1      -3.418  12.547  23.929  0.00  0.00    +0.000 A 
ATOM     11  C   UNL     1      -2.521  12.943  22.885  0.00  0.00    +0.000 A 
ATOM     12  C   UNL     1      -1.819  12.023  21.901  0.00  0.00    +0.000 C 
ATOM     13  H   UNL     1      -3.103  11.324  19.767  0.00  0.00    +0.000 HD
ENDROOT
BRANCH   3  14
ATOM     14  C   UNL     1      -2.663  11.028  17.784  0.00  0.00    +0.000 A 
ATOM     15  C   UNL     1      -3.742  11.472  17.014  0.00  0.00    +0.000 A 
ATOM     16  C   UNL     1      -4.010  10.909  15.763  0.00  0.00    +0.000 A 
ATOM     17  C   UNL     1      -3.186   9.910  15.255  0.00  0.00    +0.000 A 
ATOM     18  C   UNL     1      -2.081   9.489  15.991  0.00  0.00    +0.000 A 
ATOM     19  C   UNL     1      -1.817  10.050  17.247  0.00  0.00    +0.000 A 
ENDBRANCH   3  14
BRANCH  12  20
ATOM     20  C   UNL     1      -0.625  11.304  22.507  0.00  0.00    +0.000 C 
ATOM     21  C   UNL     1      -0.711   9.844  22.898  0.00  0.00    +0.000 C 
ATOM     22  C   UNL     1       0.148  10.256  21.739  0.00  0.00    +0.000 C 
ENDBRANCH  12  20
TORSDOF 2
ENDMDL
MODEL 7
REMARK VINA RESULT:      -5.9      2.838      6.377
REMARK  Name = 
REMARK  2 active torsions:
REMARK  status: ('A' for Active; 'I' for Inactive)
REMARK    1  A    between atoms: N_3  and  C_4
REMARK    2  A    between atoms: C_18  and  C_19
REMARK                            x       y       z     vdW  Elec       q    Type
REMARK                         _______ _______ _______ _____ _____    ______ ____
ROOT
ATOM      1  O   UNL     1       2.598   5.011  18.522  0.00  0.00    +0.000 OA
ATOM      2  C   UNL     1       3.523   5.657  18.026  0.00  0.00    +0.000 C 
ATOM      3  N   UNL     1       3.553   7.035  17.994  0.00  0.00    +0.000 N 
ATOM      4  N   UNL     1       4.578   5.004  17.404  0.00  0.00    +0.000 N 
ATOM      5  C   UNL     1       4.422   3.552  17.171  0.00  0.00    +0.000 C 
ATOM      6  C   UNL     1       4.519   3.195  15.680  0.00  0.00    +0.000 C 
ATOM      7  C   UNL     1       5.605   3.995  15.034  0.00  0.00    +0.000 A 
ATOM      8  S   UNL     1       6.179   3.645  13.476  0.00  0.00    +0.000 S 
ATOM      9  C   UNL     1       7.238   4.989  13.513  0.00  0.00    +0.000 A 
ATOM     10  C   UNL     1       7.142   5.689  14.694  0.00  0.00    +0.000 A 
ATOM     11  C   UNL     1       6.206   5.100  15.606  0.00  0.00    +0.000 A 
ATOM     12  C   UNL     1       5.882   5.590  17.006  0.00  0.00    +0.000 C 
ATOM     13  H   UNL     1       4.101   7.449  17.258  0.00  0.00    +0.000 HD
ENDROOT
BRANCH   3  14
ATOM     14  C   UNL     1       2.574   7.895  18.557  0.00  0.00    +0.000 A 
ATOM     15  C   UNL     1       2.135   7.804  19.882  0.00  0.00    +0.000 A 
ATOM     16  C   UNL     1       1.115   8.633  20.356  0.00  0.00    +0.000 A 
ATOM     17  C   UNL     1       0.537   9.580  19.519  0.00  0.00    +0.000 A 
ATOM     18  C   UNL     1       0.995   9.713  18.210  0.00  0.00    +0.000 A 
ATOM     19  C   UNL     1       2.014   8.878  17.733  0.00  0.00    +0.000 A 
ENDBRANCH   3  14
BRANCH  12  20
ATOM     20  C   UNL     1       6.946   5.221  18.027  0.00  0.00    +0.000 C 
ATOM     21  C   UNL     1       7.785   6.288  18.699  0.00  0.00    +0.000 C 
ATOM     22  C   UNL     1       6.774   5.520  19.500  0.00  0.00    +0.000 C 
ENDBRANCH  12  20
TORSDOF 2
ENDMDL
MODEL 8
REMARK VINA RESULT:      -5.8      3.947      6.660
REMARK  Name = 
REMARK  2 active torsions:
REMARK  status: ('A' for Active; 'I' for Inactive)
REMARK    1  A    between atoms: N_3  and  C_4
REMARK    2  A    between atoms: C_18  and  C_19
REMARK                            x       y       z     vdW  Elec       q    Type
REMARK                         _______ _______ _______ _____ _____    ______ ____
ROOT
ATOM      1  O   UNL     1       1.347   8.206  21.029  0.00  0.00    +0.000 OA
ATOM      2  C   UNL     1       1.798   7.786  19.962  0.00  0.00    +0.000 C 
ATOM      3  N   UNL     1       1.761   8.506  18.787  0.00  0.00    +0.000 N 
ATOM      4  N   UNL     1       2.322   6.503  19.882  0.00  0.00    +0.000 N 
ATOM      5  C   UNL     1       2.105   5.617  21.046  0.00  0.00    +0.000 C 
ATOM      6  C   UNL     1       1.339   4.343  20.664  0.00  0.00    +0.000 C 
ATOM      7  C   UNL     1       1.829   3.827  19.349  0.00  0.00    +0.000 A 
ATOM      8  S   UNL     1       1.413   2.286  18.771  0.00  0.00    +0.000 S 
ATOM      9  C   UNL     1       2.259   2.556  17.307  0.00  0.00    +0.000 A 
ATOM     10  C   UNL     1       2.838   3.804  17.268  0.00  0.00    +0.000 A 
ATOM     11  C   UNL     1       2.616   4.549  18.471  0.00  0.00    +0.000 A 
ATOM     12  C   UNL     1       3.142   5.940  18.779  0.00  0.00    +0.000 C 
ATOM     13  H   UNL     1       1.773   7.967  17.937  0.00  0.00    +0.000 HD
ENDROOT
BRANCH   3  14
ATOM     14  C   UNL     1       1.259   9.825  18.644  0.00  0.00    +0.000 A 
ATOM     15  C   UNL     1       2.075  10.955  18.528  0.00  0.00    +0.000 A 
ATOM     16  C   UNL     1       1.520  12.236  18.463  0.00  0.00    +0.000 A 
ATOM     17  C   UNL     1       0.139  12.402  18.488  0.00  0.00    +0.000 A 
ATOM     18  C   UNL     1      -0.687  11.283  18.557  0.00  0.00    +0.000 A 
ATOM     19  C   UNL     1      -0.130  10.000  18.628  0.00  0.00    +0.000 A 
ENDBRANCH   3  14
BRANCH  12  20
ATOM     20  C   UNL     1       4.609   5.948  19.173  0.00  0.00    +0.000 C 
ATOM     21  C   UNL     1       5.447   4.690  19.080  0.00  0.00    +0.000 C 
ATOM     22  C   UNL     1       5.711   5.832  18.142  0.00  0.00    +0.000 C 
ENDBRANCH  12  20
TORSDOF 2
ENDMDL
MODEL 9
REMARK VINA RESULT:      -5.8      6.319      9.012
REMARK  Name = 
REMARK  2 active torsions:
REMARK  status: ('A' for Active; 'I' for Inactive)
REMARK    1  A    between atoms: N_3  and  C_4
REMARK    2  A    between atoms: C_18  and  C_19
REMARK                            x       y       z     vdW  Elec       q    Type
REMARK                         _______ _______ _______ _____ _____    ______ ____
ROOT
ATOM      1  O   UNL     1       0.606   8.676  21.146  0.00  0.00    +0.000 OA
ATOM      2  C   UNL     1       0.588   9.400  20.150  0.00  0.00    +0.000 C 
ATOM      3  N   UNL     1       1.341   9.158  19.022  0.00  0.00    +0.000 N 
ATOM      4  N   UNL     1      -0.172  10.563  20.145  0.00  0.00    +0.000 N 
ATOM      5  C   UNL     1      -0.750  10.989  21.437  0.00  0.00    +0.000 C 
ATOM      6  C   UNL     1      -0.272  12.391  21.846  0.00  0.00    +0.000 C 
ATOM      7  C   UNL     1      -0.239  13.288  20.650  0.00  0.00    +0.000 A 
ATOM      8  S   UNL     1      -0.044  14.968  20.788  0.00  0.00    +0.000 S 
ATOM      9  C   UNL     1      -0.034  15.153  19.086  0.00  0.00    +0.000 A 
ATOM     10  C   UNL     1      -0.170  13.948  18.435  0.00  0.00    +0.000 A 
ATOM     11  C   UNL     1      -0.319  12.849  19.342  0.00  0.00    +0.000 A 
ATOM     12  C   UNL     1      -0.527  11.392  18.967  0.00  0.00    +0.000 C 
ATOM     13  H   UNL     1       1.567   9.961  18.459  0.00  0.00    +0.000 HD
ENDROOT
BRANCH   3  14
ATOM     14  C   UNL     1       2.192   8.039  18.823  0.00  0.00    +0.000 A 
ATOM     15  C   UNL     1       2.255   6.950  19.698  0.00  0.00    +0.000 A 
ATOM     16  C   UNL     1       3.167   5.912  19.486  0.00  0.00    +0.000 A 
ATOM     17  C   UNL     1       4.012   5.939  18.383  0.00  0.00    +0.000 A 
ATOM     18  C   UNL     1       3.930   6.995  17.478  0.00  0.00    +0.000 A 
ATOM     19  C   UNL     1       3.020   8.037  17.694  0.00  0.00    +0.000 A 
ENDBRANCH   3  14
BRANCH  12  20
ATOM     20  C   UNL     1      -1.951  11.087  18.532  0.00  0.00    +0.000 C 
ATOM     21  C   UNL     1      -2.373  11.238  17.086  0.00  0.00    +0.000 C 
ATOM     22  C   UNL     1      -2.286   9.871  17.698  0.00  0.00    +0.000 C 
ENDBRANCH  12  20
TORSDOF 2
ENDMDL
