MODEL 1
REMARK VINA RESULT:      -9.2      0.000      0.000
REMARK  Name = 
REMARK  3 active torsions:
REMARK  status: ('A' for Active; 'I' for Inactive)
REMARK    1  A    between atoms: C_4  and  C_5
REMARK    2  A    between atoms: C_8  and  N_9
REMARK    3  A    between atoms: C_15  and  C_16
REMARK                            x       y       z     vdW  Elec       q    Type
REMARK                         _______ _______ _______ _____ _____    ______ ____
ROOT
ATOM      1  N   UNL     1       2.217   4.793  21.422  0.00  0.00    +0.000 N 
ATOM      2  C   UNL     1       2.347   5.707  20.392  0.00  0.00    +0.000 A 
ATOM      3  N   UNL     1       3.139   5.360  19.380  0.00  0.00    +0.000 NA
ATOM      4  C   UNL     1       3.330   6.268  18.404  0.00  0.00    +0.000 A 
ATOM      5  C   UNL     1       2.728   7.507  18.461  0.00  0.00    +0.000 A 
ATOM      6  C   UNL     1       1.906   7.784  19.544  0.00  0.00    +0.000 A 
ATOM      7  N   UNL     1       1.719   6.881  20.523  0.00  0.00    +0.000 NA
ATOM      8  H   UNL     1       3.014   4.172  21.421  0.00  0.00    +0.000 HD
ATOM      9  H   UNL     1       2.009   5.275  22.284  0.00  0.00    +0.000 HD
ENDROOT
BRANCH   6  10
ATOM     10  C   UNL     1       1.206   9.097  19.627  0.00  0.00    +0.000 A 
ATOM     11  C   UNL     1       1.398   9.999  18.553  0.00  0.00    +0.000 A 
ATOM     12  C   UNL     1       0.970  11.320  18.611  0.00  0.00    +0.000 A 
ATOM     13  C   UNL     1       0.345  11.783  19.759  0.00  0.00    +0.000 A 
ATOM     14  C   UNL     1       0.094  10.925  20.835  0.00  0.00    +0.000 A 
ATOM     15  C   UNL     1      -0.516  11.446  21.987  0.00  0.00    +0.000 A 
ATOM     16  C   UNL     1      -0.826  10.630  23.068  0.00  0.00    +0.000 A 
ATOM     17  C   UNL     1      -0.557   9.272  22.997  0.00  0.00    +0.000 A 
ATOM     18  C   UNL     1       0.086   8.744  21.871  0.00  0.00    +0.000 A 
ATOM     19  C   UNL     1       0.467   9.550  20.769  0.00  0.00    +0.000 A 
ENDBRANCH   6  10
BRANCH   4  20
ATOM     20  C   UNL     1       4.203   5.859  17.281  0.00  0.00    +0.000 A 
ATOM     21  C   UNL     1       4.441   4.496  17.011  0.00  0.00    +0.000 A 
ATOM     22  C   UNL     1       5.264   4.088  15.954  0.00  0.00    +0.000 A 
ATOM     23  C   UNL     1       5.875   5.051  15.145  0.00  0.00    +0.000 A 
ATOM     24  C   UNL     1       5.655   6.411  15.382  0.00  0.00    +0.000 A 
ATOM     25  C   UNL     1       4.829   6.803  16.442  0.00  0.00    +0.000 A 
BRANCH  23  26
ATOM     26  N   UNL     1       6.757   4.637  14.048  0.00  0.00    +0.000 N 
ATOM     27  O   UNL     1       7.801   5.280  13.872  0.00  0.00    +0.000 OA
ATOM     28  O   UNL     1       6.404   3.668  13.360  0.00  0.00    +0.000 OA
ENDBRANCH  23  26
ENDBRANCH   4  20
TORSDOF 3
ENDMDL
MODEL 2
REMARK VINA RESULT:      -9.2      0.034      1.126
REMARK  Name = 
REMARK  3 active torsions:
REMARK  status: ('A' for Active; 'I' for Inactive)
REMARK    1  A    between atoms: C_4  and  C_5
REMARK    2  A    between atoms: C_8  and  N_9
REMARK    3  A    between atoms: C_15  and  C_16
REMARK                            x       y       z     vdW  Elec       q    Type
REMARK                         _______ _______ _______ _____ _____    ______ ____
ROOT
ATOM      1  N   UNL     1       2.212   4.791  21.425  0.00  0.00    +0.000 N 
ATOM      2  C   UNL     1       2.346   5.701  20.392  0.00  0.00    +0.000 A 
ATOM      3  N   UNL     1       3.142   5.350  19.384  0.00  0.00    +0.000 NA
ATOM      4  C   UNL     1       3.337   6.254  18.404  0.00  0.00    +0.000 A 
ATOM      5  C   UNL     1       2.735   7.493  18.454  0.00  0.00    +0.000 A 
ATOM      6  C   UNL     1       1.910   7.775  19.533  0.00  0.00    +0.000 A 
ATOM      7  N   UNL     1       1.718   6.876  20.515  0.00  0.00    +0.000 NA
ATOM      8  H   UNL     1       3.009   4.171  21.430  0.00  0.00    +0.000 HD
ATOM      9  H   UNL     1       2.001   5.278  22.284  0.00  0.00    +0.000 HD
ENDROOT
BRANCH   6  10
ATOM     10  C   UNL     1       1.210   9.089  19.608  0.00  0.00    +0.000 A 
ATOM     11  C   UNL     1       1.399   9.983  18.528  0.00  0.00    +0.000 A 
ATOM     12  C   UNL     1       0.971  11.305  18.577  0.00  0.00    +0.000 A 
ATOM     13  C   UNL     1       0.349  11.775  19.723  0.00  0.00    +0.000 A 
ATOM     14  C   UNL     1       0.100  10.925  20.806  0.00  0.00    +0.000 A 
ATOM     15  C   UNL     1      -0.507  11.455  21.955  0.00  0.00    +0.000 A 
ATOM     16  C   UNL     1      -0.815  10.647  23.043  0.00  0.00    +0.000 A 
ATOM     17  C   UNL     1      -0.546   9.288  22.981  0.00  0.00    +0.000 A 
ATOM     18  C   UNL     1       0.094   8.752  21.858  0.00  0.00    +0.000 A 
ATOM     19  C   UNL     1       0.473   9.550  20.749  0.00  0.00    +0.000 A 
ENDBRANCH   6  10
BRANCH   4  20
ATOM     20  C   UNL     1       4.213   5.839  17.287  0.00  0.00    +0.000 A 
ATOM     21  C   UNL     1       4.856   6.799  16.479  0.00  0.00    +0.000 A 
ATOM     22  C   UNL     1       5.688   6.427  15.415  0.00  0.00    +0.000 A 
ATOM     23  C   UNL     1       5.888   5.071  15.138  0.00  0.00    +0.000 A 
ATOM     24  C   UNL     1       5.270   4.094  15.924  0.00  0.00    +0.000 A 
ATOM     25  C   UNL     1       4.441   4.481  16.983  0.00  0.00    +0.000 A 
BRANCH  23  26
ATOM     26  N   UNL     1       6.740   4.669  14.014  0.00  0.00    +0.000 N 
ATOM     27  O   UNL     1       6.391   3.685  13.347  0.00  0.00    +0.000 OA
ATOM     28  O   UNL     1       7.761   5.338  13.798  0.00  0.00    +0.000 OA
ENDBRANCH  23  26
ENDBRANCH   4  20
TORSDOF 3
ENDMDL
MODEL 3
REMARK VINA RESULT:      -9.0      1.061      2.227
REMARK  Name = 
REMARK  3 active torsions:
REMARK  status: ('A' for Active; 'I' for Inactive)
REMARK    1  A    between atoms: C_4  and  C_5
REMARK    2  A    between atoms: C_8  and  N_9
REMARK    3  A    between atoms: C_15  and  C_16
REMARK                            x       y       z     vdW  Elec       q    Type
REMARK                         _______ _______ _______ _____ _____    ______ ____
ROOT
ATOM      1  N   UNL     1       1.313   3.640  21.055  0.00  0.00    +0.000 N 
ATOM      2  C   UNL     1       1.721   4.785  20.396  0.00  0.00    +0.000 A 
ATOM      3  N   UNL     1       2.577   4.623  19.389  0.00  0.00    +0.000 NA
ATOM      4  C   UNL     1       3.038   5.734  18.783  0.00  0.00    +0.000 A 
ATOM      5  C   UNL     1       2.637   6.986  19.199  0.00  0.00    +0.000 A 
ATOM      6  C   UNL     1       1.732   7.067  20.248  0.00  0.00    +0.000 A 
ATOM      7  N   UNL     1       1.276   5.958  20.858  0.00  0.00    +0.000 NA
ATOM      8  H   UNL     1       1.995   2.909  20.910  0.00  0.00    +0.000 HD
ATOM      9  H   UNL     1       1.070   3.862  22.010  0.00  0.00    +0.000 HD
ENDROOT
BRANCH   6  10
ATOM     10  C   UNL     1       1.244   8.398  20.705  0.00  0.00    +0.000 A 
ATOM     11  C   UNL     1       1.387   8.700  22.081  0.00  0.00    +0.000 A 
ATOM     12  C   UNL     1       0.789   9.813  22.661  0.00  0.00    +0.000 A 
ATOM     13  C   UNL     1       0.015  10.654  21.877  0.00  0.00    +0.000 A 
ATOM     14  C   UNL     1      -0.128  10.427  20.504  0.00  0.00    +0.000 A 
ATOM     15  C   UNL     1      -0.945  11.290  19.758  0.00  0.00    +0.000 A 
ATOM     16  C   UNL     1      -1.089  11.135  18.383  0.00  0.00    +0.000 A 
ATOM     17  C   UNL     1      -0.389  10.130  17.734  0.00  0.00    +0.000 A 
ATOM     18  C   UNL     1       0.398   9.238  18.470  0.00  0.00    +0.000 A 
ATOM     19  C   UNL     1       0.530   9.328  19.878  0.00  0.00    +0.000 A 
ENDBRANCH   6  10
BRANCH   4  20
ATOM     20  C   UNL     1       3.976   5.533  17.657  0.00  0.00    +0.000 A 
ATOM     21  C   UNL     1       4.326   4.235  17.231  0.00  0.00    +0.000 A 
ATOM     22  C   UNL     1       5.213   4.024  16.168  0.00  0.00    +0.000 A 
ATOM     23  C   UNL     1       5.776   5.122  15.511  0.00  0.00    +0.000 A 
ATOM     24  C   UNL     1       5.446   6.422  15.905  0.00  0.00    +0.000 A 
ATOM     25  C   UNL     1       4.557   6.618  16.969  0.00  0.00    +0.000 A 
BRANCH  23  26
ATOM     26  N   UNL     1       6.724   4.914  14.411  0.00  0.00    +0.000 N 
ATOM     27  O   UNL     1       6.431   4.075  13.547  0.00  0.00    +0.000 OA
ATOM     28  O   UNL     1       7.764   5.589  14.412  0.00  0.00    +0.000 OA
ENDBRANCH  23  26
ENDBRANCH   4  20
TORSDOF 3
ENDMDL
MODEL 4
REMARK VINA RESULT:      -8.7      4.117      8.338
REMARK  Name = 
REMARK  3 active torsions:
REMARK  status: ('A' for Active; 'I' for Inactive)
REMARK    1  A    between atoms: C_4  and  C_5
REMARK    2  A    between atoms: C_8  and  N_9
REMARK    3  A    between atoms: C_15  and  C_16
REMARK                            x       y       z     vdW  Elec       q    Type
REMARK                         _______ _______ _______ _____ _____    ______ ____
ROOT
ATOM      1  N   UNL     1       1.302   3.179  20.608  0.00  0.00    +0.000 N 
ATOM      2  C   UNL     1       2.045   4.294  20.265  0.00  0.00    +0.000 A 
ATOM      3  N   UNL     1       1.476   5.480  20.474  0.00  0.00    +0.000 NA
ATOM      4  C   UNL     1       2.159   6.572  20.082  0.00  0.00    +0.000 A 
ATOM      5  C   UNL     1       3.397   6.457  19.484  0.00  0.00    +0.000 A 
ATOM      6  C   UNL     1       3.925   5.185  19.316  0.00  0.00    +0.000 A 
ATOM      7  N   UNL     1       3.241   4.093  19.702  0.00  0.00    +0.000 NA
ATOM      8  H   UNL     1       0.321   3.421  20.620  0.00  0.00    +0.000 HD
ATOM      9  H   UNL     1       1.576   2.395  20.033  0.00  0.00    +0.000 HD
ENDROOT
BRANCH   6  10
ATOM     10  C   UNL     1       5.275   5.017  18.708  0.00  0.00    +0.000 A 
ATOM     11  C   UNL     1       6.390   5.364  19.509  0.00  0.00    +0.000 A 
ATOM     12  C   UNL     1       7.677   5.447  18.990  0.00  0.00    +0.000 A 
ATOM     13  C   UNL     1       7.883   5.196  17.642  0.00  0.00    +0.000 A 
ATOM     14  C   UNL     1       6.825   4.810  16.813  0.00  0.00    +0.000 A 
ATOM     15  C   UNL     1       7.079   4.594  15.449  0.00  0.00    +0.000 A 
ATOM     16  C   UNL     1       6.073   4.170  14.589  0.00  0.00    +0.000 A 
ATOM     17  C   UNL     1       4.804   3.925  15.092  0.00  0.00    +0.000 A 
ATOM     18  C   UNL     1       4.527   4.173  16.441  0.00  0.00    +0.000 A 
ATOM     19  C   UNL     1       5.509   4.656  17.340  0.00  0.00    +0.000 A 
ENDBRANCH   6  10
BRANCH   4  20
ATOM     20  C   UNL     1       1.517   7.881  20.334  0.00  0.00    +0.000 A 
ATOM     21  C   UNL     1       1.465   8.867  19.328  0.00  0.00    +0.000 A 
ATOM     22  C   UNL     1       0.862  10.112  19.548  0.00  0.00    +0.000 A 
ATOM     23  C   UNL     1       0.299  10.394  20.796  0.00  0.00    +0.000 A 
ATOM     24  C   UNL     1       0.328   9.436  21.814  0.00  0.00    +0.000 A 
ATOM     25  C   UNL     1       0.934   8.196  21.579  0.00  0.00    +0.000 A 
BRANCH  23  26
ATOM     26  N   UNL     1      -0.315  11.702  21.046  0.00  0.00    +0.000 N 
ATOM     27  O   UNL     1      -1.332  11.996  20.402  0.00  0.00    +0.000 OA
ATOM     28  O   UNL     1       0.221  12.439  21.887  0.00  0.00    +0.000 OA
ENDBRANCH  23  26
ENDBRANCH   4  20
TORSDOF 3
ENDMDL
MODEL 5
REMARK VINA RESULT:      -8.6      4.035      8.186
REMARK  Name = 
REMARK  3 active torsions:
REMARK  status: ('A' for Active; 'I' for Inactive)
REMARK    1  A    between atoms: C_4  and  C_5
REMARK    2  A    between atoms: C_8  and  N_9
REMARK    3  A    between atoms: C_15  and  C_16
REMARK                            x       y       z     vdW  Elec       q    Type
REMARK                         _______ _______ _______ _____ _____    ______ ____
ROOT
ATOM      1  N   UNL     1       1.571   3.581  21.219  0.00  0.00    +0.000 N 
ATOM      2  C   UNL     1       2.242   4.617  20.596  0.00  0.00    +0.000 A 
ATOM      3  N   UNL     1       1.633   5.801  20.580  0.00  0.00    +0.000 NA
ATOM      4  C   UNL     1       2.242   6.802  19.916  0.00  0.00    +0.000 A 
ATOM      5  C   UNL     1       3.448   6.599  19.278  0.00  0.00    +0.000 A 
ATOM      6  C   UNL     1       4.022   5.339  19.355  0.00  0.00    +0.000 A 
ATOM      7  N   UNL     1       3.412   4.336  20.012  0.00  0.00    +0.000 NA
ATOM      8  H   UNL     1       0.582   3.788  21.243  0.00  0.00    +0.000 HD
ATOM      9  H   UNL     1       1.848   2.699  20.811  0.00  0.00    +0.000 HD
ENDROOT
BRANCH   6  10
ATOM     10  C   UNL     1       5.342   5.085  18.712  0.00  0.00    +0.000 A 
ATOM     11  C   UNL     1       6.498   5.374  19.476  0.00  0.00    +0.000 A 
ATOM     12  C   UNL     1       7.772   5.376  18.919  0.00  0.00    +0.000 A 
ATOM     13  C   UNL     1       7.924   5.099  17.570  0.00  0.00    +0.000 A 
ATOM     14  C   UNL     1       6.821   4.766  16.776  0.00  0.00    +0.000 A 
ATOM     15  C   UNL     1       7.023   4.521  15.408  0.00  0.00    +0.000 A 
ATOM     16  C   UNL     1       5.969   4.147  14.582  0.00  0.00    +0.000 A 
ATOM     17  C   UNL     1       4.703   3.982  15.124  0.00  0.00    +0.000 A 
ATOM     18  C   UNL     1       4.480   4.261  16.477  0.00  0.00    +0.000 A 
ATOM     19  C   UNL     1       5.515   4.696  17.342  0.00  0.00    +0.000 A 
ENDBRANCH   6  10
BRANCH   4  20
ATOM     20  C   UNL     1       1.556   8.113  19.922  0.00  0.00    +0.000 A 
ATOM     21  C   UNL     1       0.872   8.566  21.068  0.00  0.00    +0.000 A 
ATOM     22  C   UNL     1       0.215   9.803  21.093  0.00  0.00    +0.000 A 
ATOM     23  C   UNL     1       0.230  10.613  19.953  0.00  0.00    +0.000 A 
ATOM     24  C   UNL     1       0.904  10.197  18.802  0.00  0.00    +0.000 A 
ATOM     25  C   UNL     1       1.556   8.958  18.793  0.00  0.00    +0.000 A 
BRANCH  23  26
ATOM     26  N   UNL     1      -0.473  11.901  19.959  0.00  0.00    +0.000 N 
ATOM     27  O   UNL     1      -1.557  11.971  19.363  0.00  0.00    +0.000 OA
ATOM     28  O   UNL     1       0.061  12.846  20.560  0.00  0.00    +0.000 OA
ENDBRANCH  23  26
ENDBRANCH   4  20
TORSDOF 3
ENDMDL
MODEL 6
REMARK VINA RESULT:      -8.4      1.892      2.533
REMARK  Name = 
REMARK  3 active torsions:
REMARK  status: ('A' for Active; 'I' for Inactive)
REMARK    1  A    between atoms: C_4  and  C_5
REMARK    2  A    between atoms: C_8  and  N_9
REMARK    3  A    between atoms: C_15  and  C_16
REMARK                            x       y       z     vdW  Elec       q    Type
REMARK                         _______ _______ _______ _____ _____    ______ ____
ROOT
ATOM      1  N   UNL     1       1.584   6.872  21.539  0.00  0.00    +0.000 N 
ATOM      2  C   UNL     1       1.776   7.457  20.301  0.00  0.00    +0.000 A 
ATOM      3  N   UNL     1       2.610   6.837  19.468  0.00  0.00    +0.000 NA
ATOM      4  C   UNL     1       2.860   7.430  18.285  0.00  0.00    +0.000 A 
ATOM      5  C   UNL     1       2.274   8.635  17.959  0.00  0.00    +0.000 A 
ATOM      6  C   UNL     1       1.406   9.209  18.878  0.00  0.00    +0.000 A 
ATOM      7  N   UNL     1       1.160   8.620  20.062  0.00  0.00    +0.000 NA
ATOM      8  H   UNL     1       2.372   6.277  21.754  0.00  0.00    +0.000 HD
ATOM      9  H   UNL     1       1.343   7.580  22.218  0.00  0.00    +0.000 HD
ENDROOT
BRANCH   6  10
ATOM     10  C   UNL     1       0.722  10.492  18.551  0.00  0.00    +0.000 A 
ATOM     11  C   UNL     1       1.471  11.682  18.714  0.00  0.00    +0.000 A 
ATOM     12  C   UNL     1       0.886  12.940  18.641  0.00  0.00    +0.000 A 
ATOM     13  C   UNL     1      -0.477  13.044  18.414  0.00  0.00    +0.000 A 
ATOM     14  C   UNL     1      -1.259  11.903  18.205  0.00  0.00    +0.000 A 
ATOM     15  C   UNL     1      -2.640  12.057  18.007  0.00  0.00    +0.000 A 
ATOM     16  C   UNL     1      -3.457  10.961  17.755  0.00  0.00    +0.000 A 
ATOM     17  C   UNL     1      -2.894   9.697  17.665  0.00  0.00    +0.000 A 
ATOM     18  C   UNL     1      -1.526   9.523  17.899  0.00  0.00    +0.000 A 
ATOM     19  C   UNL     1      -0.667  10.606  18.212  0.00  0.00    +0.000 A 
ENDBRANCH   6  10
BRANCH   4  20
ATOM     20  C   UNL     1       3.778   6.719  17.369  0.00  0.00    +0.000 A 
ATOM     21  C   UNL     1       3.919   5.318  17.432  0.00  0.00    +0.000 A 
ATOM     22  C   UNL     1       4.783   4.626  16.574  0.00  0.00    +0.000 A 
ATOM     23  C   UNL     1       5.534   5.336  15.632  0.00  0.00    +0.000 A 
ATOM     24  C   UNL     1       5.414   6.726  15.540  0.00  0.00    +0.000 A 
ATOM     25  C   UNL     1       4.545   7.403  16.404  0.00  0.00    +0.000 A 
BRANCH  23  26
ATOM     26  N   UNL     1       6.460   4.625  14.743  0.00  0.00    +0.000 N 
ATOM     27  O   UNL     1       7.574   5.129  14.547  0.00  0.00    +0.000 OA
ATOM     28  O   UNL     1       6.070   3.561  14.239  0.00  0.00    +0.000 OA
ENDBRANCH  23  26
ENDBRANCH   4  20
TORSDOF 3
ENDMDL
MODEL 7
REMARK VINA RESULT:      -8.3      1.892      2.669
REMARK  Name = 
REMARK  3 active torsions:
REMARK  status: ('A' for Active; 'I' for Inactive)
REMARK    1  A    between atoms: C_4  and  C_5
REMARK    2  A    between atoms: C_8  and  N_9
REMARK    3  A    between atoms: C_15  and  C_16
REMARK                            x       y       z     vdW  Elec       q    Type
REMARK                         _______ _______ _______ _____ _____    ______ ____
ROOT
ATOM      1  N   UNL     1       1.622   6.638  21.432  0.00  0.00    +0.000 N 
ATOM      2  C   UNL     1       1.854   7.274  20.226  0.00  0.00    +0.000 A 
ATOM      3  N   UNL     1       2.693   6.674  19.384  0.00  0.00    +0.000 NA
ATOM      4  C   UNL     1       2.981   7.314  18.235  0.00  0.00    +0.000 A 
ATOM      5  C   UNL     1       2.428   8.545  17.952  0.00  0.00    +0.000 A 
ATOM      6  C   UNL     1       1.553   9.096  18.877  0.00  0.00    +0.000 A 
ATOM      7  N   UNL     1       1.268   8.460  20.027  0.00  0.00    +0.000 NA
ATOM      8  H   UNL     1       2.392   6.017  21.636  0.00  0.00    +0.000 HD
ATOM      9  H   UNL     1       1.380   7.320  22.137  0.00  0.00    +0.000 HD
ENDROOT
BRANCH   6  10
ATOM     10  C   UNL     1       0.903  10.407  18.594  0.00  0.00    +0.000 A 
ATOM     11  C   UNL     1       1.681  11.570  18.802  0.00  0.00    +0.000 A 
ATOM     12  C   UNL     1       1.129  12.845  18.773  0.00  0.00    +0.000 A 
ATOM     13  C   UNL     1      -0.230  12.992  18.545  0.00  0.00    +0.000 A 
ATOM     14  C   UNL     1      -1.040  11.880  18.292  0.00  0.00    +0.000 A 
ATOM     15  C   UNL     1      -2.416  12.077  18.095  0.00  0.00    +0.000 A 
ATOM     16  C   UNL     1      -3.260  11.011  17.800  0.00  0.00    +0.000 A 
ATOM     17  C   UNL     1      -2.729   9.738  17.667  0.00  0.00    +0.000 A 
ATOM     18  C   UNL     1      -1.366   9.520  17.899  0.00  0.00    +0.000 A 
ATOM     19  C   UNL     1      -0.481  10.569  18.254  0.00  0.00    +0.000 A 
ENDBRANCH   6  10
BRANCH   4  20
ATOM     20  C   UNL     1       3.905   6.625  17.307  0.00  0.00    +0.000 A 
ATOM     21  C   UNL     1       4.497   7.316  16.231  0.00  0.00    +0.000 A 
ATOM     22  C   UNL     1       5.373   6.681  15.341  0.00  0.00    +0.000 A 
ATOM     23  C   UNL     1       5.669   5.326  15.515  0.00  0.00    +0.000 A 
ATOM     24  C   UNL     1       5.103   4.613  16.575  0.00  0.00    +0.000 A 
ATOM     25  C   UNL     1       4.230   5.261  17.457  0.00  0.00    +0.000 A 
BRANCH  23  26
ATOM     26  N   UNL     1       6.567   4.644  14.577  0.00  0.00    +0.000 N 
ATOM     27  O   UNL     1       6.169   3.594  14.054  0.00  0.00    +0.000 OA
ATOM     28  O   UNL     1       7.675   5.160  14.362  0.00  0.00    +0.000 OA
ENDBRANCH  23  26
ENDBRANCH   4  20
TORSDOF 3
ENDMDL
MODEL 8
REMARK VINA RESULT:      -8.2      5.391      9.283
REMARK  Name = 
REMARK  3 active torsions:
REMARK  status: ('A' for Active; 'I' for Inactive)
REMARK    1  A    between atoms: C_4  and  C_5
REMARK    2  A    between atoms: C_8  and  N_9
REMARK    3  A    between atoms: C_15  and  C_16
REMARK                            x       y       z     vdW  Elec       q    Type
REMARK                         _______ _______ _______ _____ _____    ______ ____
ROOT
ATOM      1  N   UNL     1       2.452  11.446  17.451  0.00  0.00    +0.000 N 
ATOM      2  C   UNL     1       1.888  10.596  18.385  0.00  0.00    +0.000 A 
ATOM      3  N   UNL     1       1.006  11.132  19.226  0.00  0.00    +0.000 NA
ATOM      4  C   UNL     1       0.501  10.333  20.185  0.00  0.00    +0.000 A 
ATOM      5  C   UNL     1       0.890   9.014  20.287  0.00  0.00    +0.000 A 
ATOM      6  C   UNL     1       1.804   8.530  19.361  0.00  0.00    +0.000 A 
ATOM      7  N   UNL     1       2.314   9.329  18.407  0.00  0.00    +0.000 NA
ATOM      8  H   UNL     1       2.385  12.399  17.781  0.00  0.00    +0.000 HD
ATOM      9  H   UNL     1       3.369  11.111  17.193  0.00  0.00    +0.000 HD
ENDROOT
BRANCH   6  10
ATOM     10  C   UNL     1       2.224   7.102  19.411  0.00  0.00    +0.000 A 
ATOM     11  C   UNL     1       1.681   6.305  20.448  0.00  0.00    +0.000 A 
ATOM     12  C   UNL     1       2.150   5.026  20.722  0.00  0.00    +0.000 A 
ATOM     13  C   UNL     1       3.192   4.508  19.968  0.00  0.00    +0.000 A 
ATOM     14  C   UNL     1       3.739   5.235  18.905  0.00  0.00    +0.000 A 
ATOM     15  C   UNL     1       4.812   4.680  18.189  0.00  0.00    +0.000 A 
ATOM     16  C   UNL     1       5.366   5.340  17.098  0.00  0.00    +0.000 A 
ATOM     17  C   UNL     1       4.830   6.552  16.690  0.00  0.00    +0.000 A 
ATOM     18  C   UNL     1       3.787   7.136  17.418  0.00  0.00    +0.000 A 
ATOM     19  C   UNL     1       3.228   6.522  18.567  0.00  0.00    +0.000 A 
ENDBRANCH   6  10
BRANCH   4  20
ATOM     20  C   UNL     1      -0.488  10.943  21.102  0.00  0.00    +0.000 A 
ATOM     21  C   UNL     1      -0.613  10.493  22.432  0.00  0.00    +0.000 A 
ATOM     22  C   UNL     1      -1.543  11.057  23.315  0.00  0.00    +0.000 A 
ATOM     23  C   UNL     1      -2.376  12.090  22.872  0.00  0.00    +0.000 A 
ATOM     24  C   UNL     1      -2.273  12.563  21.560  0.00  0.00    +0.000 A 
ATOM     25  C   UNL     1      -1.338  11.989  20.690  0.00  0.00    +0.000 A 
BRANCH  23  26
ATOM     26  N   UNL     1      -3.369  12.673  23.780  0.00  0.00    +0.000 N 
ATOM     27  O   UNL     1      -3.298  13.888  24.011  0.00  0.00    +0.000 OA
ATOM     28  O   UNL     1      -4.221  11.914  24.265  0.00  0.00    +0.000 OA
ENDBRANCH  23  26
ENDBRANCH   4  20
TORSDOF 3
ENDMDL
MODEL 9
REMARK VINA RESULT:      -8.2      0.983      2.645
REMARK  Name = 
REMARK  3 active torsions:
REMARK  status: ('A' for Active; 'I' for Inactive)
REMARK    1  A    between atoms: C_4  and  C_5
REMARK    2  A    between atoms: C_8  and  N_9
REMARK    3  A    between atoms: C_15  and  C_16
REMARK                            x       y       z     vdW  Elec       q    Type
REMARK                         _______ _______ _______ _____ _____    ______ ____
ROOT
ATOM      1  N   UNL     1       2.483   3.162  21.360  0.00  0.00    +0.000 N 
ATOM      2  C   UNL     1       2.595   4.288  20.566  0.00  0.00    +0.000 A 
ATOM      3  N   UNL     1       3.385   4.191  19.498  0.00  0.00    +0.000 NA
ATOM      4  C   UNL     1       3.558   5.300  18.754  0.00  0.00    +0.000 A 
ATOM      5  C   UNL     1       2.941   6.486  19.094  0.00  0.00    +0.000 A 
ATOM      6  C   UNL     1       2.123   6.498  20.214  0.00  0.00    +0.000 A 
ATOM      7  N   UNL     1       1.953   5.393  20.962  0.00  0.00    +0.000 NA
ATOM      8  H   UNL     1       3.288   2.569  21.216  0.00  0.00    +0.000 HD
ATOM      9  H   UNL     1       2.274   3.433  22.311  0.00  0.00    +0.000 HD
ENDROOT
BRANCH   6  10
ATOM     10  C   UNL     1       1.407   7.748  20.596  0.00  0.00    +0.000 A 
ATOM     11  C   UNL     1       0.656   7.720  21.795  0.00  0.00    +0.000 A 
ATOM     12  C   UNL     1      -0.214   8.745  22.148  0.00  0.00    +0.000 A 
ATOM     13  C   UNL     1      -0.366   9.829  21.298  0.00  0.00    +0.000 A 
ATOM     14  C   UNL     1       0.380   9.928  20.119  0.00  0.00    +0.000 A 
ATOM     15  C   UNL     1       0.170  11.031  19.276  0.00  0.00    +0.000 A 
ATOM     16  C   UNL     1       0.914  11.201  18.114  0.00  0.00    +0.000 A 
ATOM     17  C   UNL     1       1.903  10.282  17.798  0.00  0.00    +0.000 A 
ATOM     18  C   UNL     1       2.097   9.157  18.607  0.00  0.00    +0.000 A 
ATOM     19  C   UNL     1       1.325   8.919  19.772  0.00  0.00    +0.000 A 
ENDBRANCH   6  10
BRANCH   4  20
ATOM     20  C   UNL     1       4.429   5.169  17.565  0.00  0.00    +0.000 A 
ATOM     21  C   UNL     1       5.355   6.179  17.233  0.00  0.00    +0.000 A 
ATOM     22  C   UNL     1       6.187   6.074  16.111  0.00  0.00    +0.000 A 
ATOM     23  C   UNL     1       6.100   4.945  15.291  0.00  0.00    +0.000 A 
ATOM     24  C   UNL     1       5.196   3.923  15.595  0.00  0.00    +0.000 A 
ATOM     25  C   UNL     1       4.371   4.042  16.720  0.00  0.00    +0.000 A 
BRANCH  23  26
ATOM     26  N   UNL     1       6.950   4.833  14.101  0.00  0.00    +0.000 N 
ATOM     27  O   UNL     1       6.632   4.003  13.238  0.00  0.00    +0.000 OA
ATOM     28  O   UNL     1       7.940   5.577  14.029  0.00  0.00    +0.000 OA
ENDBRANCH  23  26
ENDBRANCH   4  20
TORSDOF 3
ENDMDL
