MODEL 1
REMARK VINA RESULT:      -8.4      0.000      0.000
REMARK  Name = 
REMARK  10 active torsions:
REMARK  status: ('A' for Active; 'I' for Inactive)
REMARK    1  A    between atoms: C_1  and  C_2
REMARK    2  A    between atoms: C_2  and  C_3
REMARK    3  A    between atoms: C_2  and  C_4
REMARK    4  A    between atoms: C_2  and  C_5
REMARK    5  A    between atoms: C_13  and  C_14
REMARK    6  A    between atoms: N_18  and  C_19
REMARK    7  A    between atoms: C_19  and  C_20
REMARK    8  A    between atoms: C_23  and  C_24
REMARK    9  A    between atoms: C_25  and  C_26
REMARK   10  A    between atoms: N_28  and  O_29
REMARK                            x       y       z     vdW  Elec       q    Type
REMARK                         _______ _______ _______ _____ _____    ______ ____
ROOT
ATOM      1  C   UNL     1       3.148   6.864  18.474  0.00  0.00    +0.000 C 
ATOM      2  C   UNL     1       3.056   6.784  19.994  0.00  0.00    +0.000 C 
ATOM      3  C   UNL     1       1.718   7.270  20.487  0.00  0.00    +0.000 C 
ATOM      4  C   UNL     1       1.468   8.676  19.973  0.00  0.00    +0.000 C 
ATOM      5  N   UNL     1       1.372   8.770  18.505  0.00  0.00    +0.000 NA
ATOM      6  C   UNL     1       2.504   8.102  17.820  0.00  0.00    +0.000 C 
ENDROOT
BRANCH   1  15
ATOM      7  C   UNL     1       4.378   5.057  17.121  0.00  0.00    +0.000 A 
ATOM      8  N   UNL     1       4.238   3.698  16.943  0.00  0.00    +0.000 N 
ATOM      9  C   UNL     1       3.151   3.199  17.625  0.00  0.00    +0.000 A 
ATOM     10  C   UNL     1       2.757   1.866  17.812  0.00  0.00    +0.000 A 
ATOM     11  C   UNL     1       1.631   1.624  18.598  0.00  0.00    +0.000 A 
ATOM     12  C   UNL     1       0.917   2.680  19.152  0.00  0.00    +0.000 A 
ATOM     13  C   UNL     1       1.331   4.018  18.944  0.00  0.00    +0.000 A 
ATOM     14  C   UNL     1       2.484   4.292  18.176  0.00  0.00    +0.000 A 
ATOM     15  C   UNL     1       3.260   5.474  17.870  0.00  0.00    +0.000 A 
ATOM     16  H   UNL     1       4.896   3.102  16.459  0.00  0.00    +0.000 HD
BRANCH   7  18
ATOM     17  C   UNL     1       5.076   6.760  15.438  0.00  0.00    +0.000 C 
ATOM     18  C   UNL     1       5.600   5.805  16.526  0.00  0.00    +0.000 C 
ATOM     19  C   UNL     1       6.616   4.820  15.909  0.00  0.00    +0.000 C 
ATOM     20  C   UNL     1       6.448   6.620  17.533  0.00  0.00    +0.000 C 
ENDBRANCH   7  18
ENDBRANCH   1  15
BRANCH   5  21
ATOM     21  C   UNL     1       1.350  10.210  18.103  0.00  0.00    +0.000 C 
BRANCH  21  22
ATOM     22  C   UNL     1       0.104  10.940  18.543  0.00  0.00    +0.000 A 
ATOM     23  C   UNL     1      -1.159  10.538  18.096  0.00  0.00    +0.000 A 
ATOM     24  C   UNL     1      -2.315  11.120  18.632  0.00  0.00    +0.000 A 
ATOM     25  C   UNL     1      -2.225  12.088  19.641  0.00  0.00    +0.000 A 
ATOM     26  C   UNL     1      -0.961  12.539  20.032  0.00  0.00    +0.000 A 
ATOM     27  C   UNL     1       0.180  11.978  19.475  0.00  0.00    +0.000 A 
ATOM     28  F   UNL     1       1.375  12.414  19.902  0.00  0.00    +0.000 F 
BRANCH  25  29
ATOM     29  C   UNL     1      -3.449  12.627  20.247  0.00  0.00    +0.000 C 
ATOM     30  C   UNL     1      -3.604  12.727  21.574  0.00  0.00    +0.000 C 
BRANCH  30  31
ATOM     31  C   UNL     1      -4.848  13.304  22.145  0.00  0.00    +0.000 C 
ATOM     32  O   UNL     1      -4.907  14.416  22.643  0.00  0.00    +0.000 OA
ATOM     33  N   UNL     1      -5.914  12.452  22.090  0.00  0.00    +0.000 N 
ATOM     34  H   UNL     1      -5.888  11.487  21.779  0.00  0.00    +0.000 HD
BRANCH  33  35
ATOM     35  O   UNL     1      -7.103  12.887  22.713  0.00  0.00    +0.000 OA
ATOM     36  H   UNL     1      -7.093  13.852  22.527  0.00  0.00    +0.000 HD
ENDBRANCH  33  35
ENDBRANCH  30  31
ENDBRANCH  25  29
ENDBRANCH  21  22
ENDBRANCH   5  21
TORSDOF 7
ENDMDL
MODEL 2
REMARK VINA RESULT:      -8.4      0.758      1.096
REMARK  Name = 
REMARK  10 active torsions:
REMARK  status: ('A' for Active; 'I' for Inactive)
REMARK    1  A    between atoms: C_1  and  C_2
REMARK    2  A    between atoms: C_2  and  C_3
REMARK    3  A    between atoms: C_2  and  C_4
REMARK    4  A    between atoms: C_2  and  C_5
REMARK    5  A    between atoms: C_13  and  C_14
REMARK    6  A    between atoms: N_18  and  C_19
REMARK    7  A    between atoms: C_19  and  C_20
REMARK    8  A    between atoms: C_23  and  C_24
REMARK    9  A    between atoms: C_25  and  C_26
REMARK   10  A    between atoms: N_28  and  O_29
REMARK                            x       y       z     vdW  Elec       q    Type
REMARK                         _______ _______ _______ _____ _____    ______ ____
ROOT
ATOM      1  C   UNL     1       3.029   6.899  18.444  0.00  0.00    +0.000 C 
ATOM      2  C   UNL     1       3.016   6.848  19.968  0.00  0.00    +0.000 C 
ATOM      3  C   UNL     1       1.691   7.304  20.519  0.00  0.00    +0.000 C 
ATOM      4  C   UNL     1       1.373   8.692  19.993  0.00  0.00    +0.000 C 
ATOM      5  N   UNL     1       1.201   8.753  18.530  0.00  0.00    +0.000 NA
ATOM      6  C   UNL     1       2.317   8.106  17.800  0.00  0.00    +0.000 C 
ENDROOT
BRANCH   1  15
ATOM      7  C   UNL     1       4.266   5.088  17.103  0.00  0.00    +0.000 A 
ATOM      8  N   UNL     1       4.143   3.724  16.949  0.00  0.00    +0.000 N 
ATOM      9  C   UNL     1       3.073   3.222  17.654  0.00  0.00    +0.000 A 
ATOM     10  C   UNL     1       2.700   1.887  17.868  0.00  0.00    +0.000 A 
ATOM     11  C   UNL     1       1.589   1.642  18.673  0.00  0.00    +0.000 A 
ATOM     12  C   UNL     1       0.867   2.697  19.220  0.00  0.00    +0.000 A 
ATOM     13  C   UNL     1       1.259   4.037  18.985  0.00  0.00    +0.000 A 
ATOM     14  C   UNL     1       2.397   4.314  18.197  0.00  0.00    +0.000 A 
ATOM     15  C   UNL     1       3.152   5.502  17.861  0.00  0.00    +0.000 A 
ATOM     16  H   UNL     1       4.802   3.130  16.466  0.00  0.00    +0.000 HD
BRANCH   7  18
ATOM     17  C   UNL     1       6.255   6.499  17.629  0.00  0.00    +0.000 C 
ATOM     18  C   UNL     1       5.469   5.843  16.479  0.00  0.00    +0.000 C 
ATOM     19  C   UNL     1       4.998   6.927  15.486  0.00  0.00    +0.000 C 
ATOM     20  C   UNL     1       6.446   4.981  15.641  0.00  0.00    +0.000 C 
ENDBRANCH   7  18
ENDBRANCH   1  15
BRANCH   5  21
ATOM     21  C   UNL     1       1.116  10.184  18.102  0.00  0.00    +0.000 C 
BRANCH  21  22
ATOM     22  C   UNL     1      -0.256  10.787  18.286  0.00  0.00    +0.000 A 
ATOM     23  C   UNL     1      -1.384  10.196  17.706  0.00  0.00    +0.000 A 
ATOM     24  C   UNL     1      -2.665  10.671  18.011  0.00  0.00    +0.000 A 
ATOM     25  C   UNL     1      -2.838  11.723  18.920  0.00  0.00    +0.000 A 
ATOM     26  C   UNL     1      -1.707  12.359  19.440  0.00  0.00    +0.000 A 
ATOM     27  C   UNL     1      -0.439  11.900  19.110  0.00  0.00    +0.000 A 
ATOM     28  F   UNL     1       0.620  12.515  19.657  0.00  0.00    +0.000 F 
BRANCH  25  29
ATOM     29  C   UNL     1      -4.193  12.154  19.289  0.00  0.00    +0.000 C 
ATOM     30  C   UNL     1      -4.515  12.501  20.542  0.00  0.00    +0.000 C 
BRANCH  30  31
ATOM     31  C   UNL     1      -5.891  12.958  20.866  0.00  0.00    +0.000 C 
ATOM     32  O   UNL     1      -6.340  14.039  20.523  0.00  0.00    +0.000 OA
ATOM     33  N   UNL     1      -6.594  12.062  21.619  0.00  0.00    +0.000 N 
ATOM     34  H   UNL     1      -6.230  11.201  22.012  0.00  0.00    +0.000 HD
BRANCH  33  35
ATOM     35  O   UNL     1      -7.870  12.472  22.061  0.00  0.00    +0.000 OA
ATOM     36  H   UNL     1      -7.698  12.711  22.999  0.00  0.00    +0.000 HD
ENDBRANCH  33  35
ENDBRANCH  30  31
ENDBRANCH  25  29
ENDBRANCH  21  22
ENDBRANCH   5  21
TORSDOF 7
ENDMDL
MODEL 3
REMARK VINA RESULT:      -8.3      5.149     10.254
REMARK  Name = 
REMARK  10 active torsions:
REMARK  status: ('A' for Active; 'I' for Inactive)
REMARK    1  A    between atoms: C_1  and  C_2
REMARK    2  A    between atoms: C_2  and  C_3
REMARK    3  A    between atoms: C_2  and  C_4
REMARK    4  A    between atoms: C_2  and  C_5
REMARK    5  A    between atoms: C_13  and  C_14
REMARK    6  A    between atoms: N_18  and  C_19
REMARK    7  A    between atoms: C_19  and  C_20
REMARK    8  A    between atoms: C_23  and  C_24
REMARK    9  A    between atoms: C_25  and  C_26
REMARK   10  A    between atoms: N_28  and  O_29
REMARK                            x       y       z     vdW  Elec       q    Type
REMARK                         _______ _______ _______ _____ _____    ______ ____
ROOT
ATOM      1  C   UNL     1      -0.226  10.116  19.878  0.00  0.00    +0.000 C 
ATOM      2  C   UNL     1      -0.511  10.468  21.334  0.00  0.00    +0.000 C 
ATOM      3  C   UNL     1       0.643  10.091  22.225  0.00  0.00    +0.000 C 
ATOM      4  C   UNL     1       0.961   8.618  22.047  0.00  0.00    +0.000 C 
ATOM      5  N   UNL     1       1.415   8.262  20.690  0.00  0.00    +0.000 NA
ATOM      6  C   UNL     1       0.514   8.786  19.636  0.00  0.00    +0.000 C 
ENDROOT
BRANCH   1  15
ATOM      7  C   UNL     1      -1.168  11.790  18.170  0.00  0.00    +0.000 A 
ATOM      8  N   UNL     1      -0.839  13.063  17.758  0.00  0.00    +0.000 N 
ATOM      9  C   UNL     1       0.293  13.530  18.387  0.00  0.00    +0.000 A 
ATOM     10  C   UNL     1       0.863  14.811  18.350  0.00  0.00    +0.000 A 
ATOM     11  C   UNL     1       1.996  15.043  19.128  0.00  0.00    +0.000 A 
ATOM     12  C   UNL     1       2.547  14.021  19.894  0.00  0.00    +0.000 A 
ATOM     13  C   UNL     1       1.956  12.735  19.912  0.00  0.00    +0.000 A 
ATOM     14  C   UNL     1       0.793  12.479  19.154  0.00  0.00    +0.000 A 
ATOM     15  C   UNL     1      -0.133  11.373  19.031  0.00  0.00    +0.000 A 
ATOM     16  H   UNL     1      -1.398  13.641  17.146  0.00  0.00    +0.000 HD
BRANCH   7  18
ATOM     17  C   UNL     1      -3.641  11.688  18.482  0.00  0.00    +0.000 C 
ATOM     18  C   UNL     1      -2.469  11.113  17.665  0.00  0.00    +0.000 C 
ATOM     19  C   UNL     1      -2.412   9.581  17.844  0.00  0.00    +0.000 C 
ATOM     20  C   UNL     1      -2.782  11.293  16.158  0.00  0.00    +0.000 C 
ENDBRANCH   7  18
ENDBRANCH   1  15
BRANCH   5  21
ATOM     21  C   UNL     1       1.484   6.774  20.566  0.00  0.00    +0.000 C 
BRANCH  21  22
ATOM     22  C   UNL     1       2.269   6.304  19.365  0.00  0.00    +0.000 A 
ATOM     23  C   UNL     1       3.293   7.089  18.824  0.00  0.00    +0.000 A 
ATOM     24  C   UNL     1       4.115   6.578  17.814  0.00  0.00    +0.000 A 
ATOM     25  C   UNL     1       3.945   5.267  17.349  0.00  0.00    +0.000 A 
ATOM     26  C   UNL     1       2.875   4.512  17.839  0.00  0.00    +0.000 A 
ATOM     27  C   UNL     1       2.046   5.036  18.821  0.00  0.00    +0.000 A 
ATOM     28  F   UNL     1       1.052   4.267  19.289  0.00  0.00    +0.000 F 
BRANCH  25  29
ATOM     29  C   UNL     1       4.869   4.721  16.347  0.00  0.00    +0.000 C 
ATOM     30  C   UNL     1       5.525   5.505  15.481  0.00  0.00    +0.000 C 
BRANCH  30  31
ATOM     31  C   UNL     1       6.473   4.915  14.501  0.00  0.00    +0.000 C 
ATOM     32  O   UNL     1       7.628   5.285  14.374  0.00  0.00    +0.000 OA
ATOM     33  N   UNL     1       5.913   3.938  13.728  0.00  0.00    +0.000 N 
ATOM     34  H   UNL     1       4.935   3.668  13.729  0.00  0.00    +0.000 HD
BRANCH  33  35
ATOM     35  O   UNL     1       6.719   3.406  12.699  0.00  0.00    +0.000 OA
ATOM     36  H   UNL     1       6.638   4.090  11.999  0.00  0.00    +0.000 HD
ENDBRANCH  33  35
ENDBRANCH  30  31
ENDBRANCH  25  29
ENDBRANCH  21  22
ENDBRANCH   5  21
TORSDOF 7
ENDMDL
MODEL 4
REMARK VINA RESULT:      -8.2      5.179     10.293
REMARK  Name = 
REMARK  10 active torsions:
REMARK  status: ('A' for Active; 'I' for Inactive)
REMARK    1  A    between atoms: C_1  and  C_2
REMARK    2  A    between atoms: C_2  and  C_3
REMARK    3  A    between atoms: C_2  and  C_4
REMARK    4  A    between atoms: C_2  and  C_5
REMARK    5  A    between atoms: C_13  and  C_14
REMARK    6  A    between atoms: N_18  and  C_19
REMARK    7  A    between atoms: C_19  and  C_20
REMARK    8  A    between atoms: C_23  and  C_24
REMARK    9  A    between atoms: C_25  and  C_26
REMARK   10  A    between atoms: N_28  and  O_29
REMARK                            x       y       z     vdW  Elec       q    Type
REMARK                         _______ _______ _______ _____ _____    ______ ____
ROOT
ATOM      1  C   UNL     1      -0.346  10.310  19.938  0.00  0.00    +0.000 C 
ATOM      2  C   UNL     1      -0.830  10.595  21.356  0.00  0.00    +0.000 C 
ATOM      3  C   UNL     1       0.261  10.352  22.365  0.00  0.00    +0.000 C 
ATOM      4  C   UNL     1       0.783   8.935  22.216  0.00  0.00    +0.000 C 
ATOM      5  N   UNL     1       1.423   8.666  20.915  0.00  0.00    +0.000 NA
ATOM      6  C   UNL     1       0.581   9.090  19.771  0.00  0.00    +0.000 C 
ENDROOT
BRANCH   1  15
ATOM      7  C   UNL     1      -1.355  11.927  18.213  0.00  0.00    +0.000 A 
ATOM      8  N   UNL     1      -1.118  13.230  17.832  0.00  0.00    +0.000 N 
ATOM      9  C   UNL     1      -0.058  13.780  18.515  0.00  0.00    +0.000 A 
ATOM     10  C   UNL     1       0.403  15.105  18.518  0.00  0.00    +0.000 A 
ATOM     11  C   UNL     1       1.478  15.419  19.348  0.00  0.00    +0.000 A 
ATOM     12  C   UNL     1       2.081  14.435  20.124  0.00  0.00    +0.000 A 
ATOM     13  C   UNL     1       1.602  13.103  20.099  0.00  0.00    +0.000 A 
ATOM     14  C   UNL     1       0.497  12.763  19.289  0.00  0.00    +0.000 A 
ATOM     15  C   UNL     1      -0.325  11.585  19.112  0.00  0.00    +0.000 A 
ATOM     16  H   UNL     1      -1.699  13.768  17.204  0.00  0.00    +0.000 HD
BRANCH   7  18
ATOM     17  C   UNL     1      -2.650  11.450  16.135  0.00  0.00    +0.000 C 
ATOM     18  C   UNL     1      -2.572  11.151  17.643  0.00  0.00    +0.000 C 
ATOM     19  C   UNL     1      -3.885  11.584  18.329  0.00  0.00    +0.000 C 
ATOM     20  C   UNL     1      -2.546   9.615  17.843  0.00  0.00    +0.000 C 
ENDBRANCH   7  18
ENDBRANCH   1  15
BRANCH   5  21
ATOM     21  C   UNL     1       1.696   7.201  20.792  0.00  0.00    +0.000 C 
BRANCH  21  22
ATOM     22  C   UNL     1       2.453   6.832  19.540  0.00  0.00    +0.000 A 
ATOM     23  C   UNL     1       2.582   7.740  18.484  0.00  0.00    +0.000 A 
ATOM     24  C   UNL     1       3.415   7.446  17.398  0.00  0.00    +0.000 A 
ATOM     25  C   UNL     1       4.153   6.256  17.366  0.00  0.00    +0.000 A 
ATOM     26  C   UNL     1       3.966   5.319  18.385  0.00  0.00    +0.000 A 
ATOM     27  C   UNL     1       3.116   5.605  19.445  0.00  0.00    +0.000 A 
ATOM     28  F   UNL     1       2.990   4.694  20.421  0.00  0.00    +0.000 F 
BRANCH  25  29
ATOM     29  C   UNL     1       5.083   6.003  16.258  0.00  0.00    +0.000 C 
ATOM     30  C   UNL     1       5.635   4.800  16.050  0.00  0.00    +0.000 C 
BRANCH  30  31
ATOM     31  C   UNL     1       6.549   4.580  14.900  0.00  0.00    +0.000 C 
ATOM     32  O   UNL     1       7.565   5.229  14.714  0.00  0.00    +0.000 OA
ATOM     33  N   UNL     1       6.123   3.601  14.050  0.00  0.00    +0.000 N 
ATOM     34  H   UNL     1       5.239   3.106  14.108  0.00  0.00    +0.000 HD
BRANCH  33  35
ATOM     35  O   UNL     1       6.881   3.409  12.875  0.00  0.00    +0.000 OA
ATOM     36  H   UNL     1       7.676   2.942  13.215  0.00  0.00    +0.000 HD
ENDBRANCH  33  35
ENDBRANCH  30  31
ENDBRANCH  25  29
ENDBRANCH  21  22
ENDBRANCH   5  21
TORSDOF 7
ENDMDL
MODEL 5
REMARK VINA RESULT:      -8.2      5.312     10.314
REMARK  Name = 
REMARK  10 active torsions:
REMARK  status: ('A' for Active; 'I' for Inactive)
REMARK    1  A    between atoms: C_1  and  C_2
REMARK    2  A    between atoms: C_2  and  C_3
REMARK    3  A    between atoms: C_2  and  C_4
REMARK    4  A    between atoms: C_2  and  C_5
REMARK    5  A    between atoms: C_13  and  C_14
REMARK    6  A    between atoms: N_18  and  C_19
REMARK    7  A    between atoms: C_19  and  C_20
REMARK    8  A    between atoms: C_23  and  C_24
REMARK    9  A    between atoms: C_25  and  C_26
REMARK   10  A    between atoms: N_28  and  O_29
REMARK                            x       y       z     vdW  Elec       q    Type
REMARK                         _______ _______ _______ _____ _____    ______ ____
ROOT
ATOM      1  C   UNL     1      -0.245  10.177  19.792  0.00  0.00    +0.000 C 
ATOM      2  C   UNL     1      -0.714  10.402  21.225  0.00  0.00    +0.000 C 
ATOM      3  C   UNL     1       0.384  10.106  22.213  0.00  0.00    +0.000 C 
ATOM      4  C   UNL     1       0.895   8.693  21.995  0.00  0.00    +0.000 C 
ATOM      5  N   UNL     1       1.521   8.479  20.677  0.00  0.00    +0.000 NA
ATOM      6  C   UNL     1       0.672   8.960  19.562  0.00  0.00    +0.000 C 
ENDROOT
BRANCH   1  15
ATOM      7  C   UNL     1      -1.214  11.839  18.087  0.00  0.00    +0.000 A 
ATOM      8  N   UNL     1      -1.000  13.164  17.775  0.00  0.00    +0.000 N 
ATOM      9  C   UNL     1       0.004  13.715  18.538  0.00  0.00    +0.000 A 
ATOM     10  C   UNL     1       0.420  15.051  18.623  0.00  0.00    +0.000 A 
ATOM     11  C   UNL     1       1.440  15.360  19.522  0.00  0.00    +0.000 A 
ATOM     12  C   UNL     1       2.033  14.361  20.286  0.00  0.00    +0.000 A 
ATOM     13  C   UNL     1       1.600  13.018  20.178  0.00  0.00    +0.000 A 
ATOM     14  C   UNL     1       0.551  12.681  19.296  0.00  0.00    +0.000 A 
ATOM     15  C   UNL     1      -0.222  11.488  19.024  0.00  0.00    +0.000 A 
ATOM     16  H   UNL     1      -1.565  13.712  17.141  0.00  0.00    +0.000 HD
BRANCH   7  18
ATOM     17  C   UNL     1      -3.597  11.149  18.349  0.00  0.00    +0.000 C 
ATOM     18  C   UNL     1      -2.374  11.053  17.419  0.00  0.00    +0.000 C 
ATOM     19  C   UNL     1      -1.998   9.571  17.205  0.00  0.00    +0.000 C 
ATOM     20  C   UNL     1      -2.788  11.532  16.005  0.00  0.00    +0.000 C 
ENDBRANCH   7  18
ENDBRANCH   1  15
BRANCH   5  21
ATOM     21  C   UNL     1       1.782   7.019  20.486  0.00  0.00    +0.000 C 
BRANCH  21  22
ATOM     22  C   UNL     1       2.596   6.708  19.253  0.00  0.00    +0.000 A 
ATOM     23  C   UNL     1       2.906   7.709  18.327  0.00  0.00    +0.000 A 
ATOM     24  C   UNL     1       3.790   7.446  17.273  0.00  0.00    +0.000 A 
ATOM     25  C   UNL     1       4.397   6.189  17.147  0.00  0.00    +0.000 A 
ATOM     26  C   UNL     1       4.027   5.171  18.030  0.00  0.00    +0.000 A 
ATOM     27  C   UNL     1       3.129   5.431  19.056  0.00  0.00    +0.000 A 
ATOM     28  F   UNL     1       2.826   4.437  19.903  0.00  0.00    +0.000 F 
BRANCH  25  29
ATOM     29  C   UNL     1       5.382   5.957  16.083  0.00  0.00    +0.000 C 
ATOM     30  C   UNL     1       5.471   4.788  15.436  0.00  0.00    +0.000 C 
BRANCH  30  31
ATOM     31  C   UNL     1       6.464   4.605  14.346  0.00  0.00    +0.000 C 
ATOM     32  O   UNL     1       6.406   3.702  13.527  0.00  0.00    +0.000 OA
ATOM     33  N   UNL     1       7.471   5.526  14.372  0.00  0.00    +0.000 N 
ATOM     34  H   UNL     1       7.615   6.229  15.090  0.00  0.00    +0.000 HD
BRANCH  33  35
ATOM     35  O   UNL     1       8.512   5.351  13.436  0.00  0.00    +0.000 OA
ATOM     36  H   UNL     1       8.388   6.124  12.842  0.00  0.00    +0.000 HD
ENDBRANCH  33  35
ENDBRANCH  30  31
ENDBRANCH  25  29
ENDBRANCH  21  22
ENDBRANCH   5  21
TORSDOF 7
ENDMDL
MODEL 6
REMARK VINA RESULT:      -8.2      1.817      2.265
REMARK  Name = 
REMARK  10 active torsions:
REMARK  status: ('A' for Active; 'I' for Inactive)
REMARK    1  A    between atoms: C_1  and  C_2
REMARK    2  A    between atoms: C_2  and  C_3
REMARK    3  A    between atoms: C_2  and  C_4
REMARK    4  A    between atoms: C_2  and  C_5
REMARK    5  A    between atoms: C_13  and  C_14
REMARK    6  A    between atoms: N_18  and  C_19
REMARK    7  A    between atoms: C_19  and  C_20
REMARK    8  A    between atoms: C_23  and  C_24
REMARK    9  A    between atoms: C_25  and  C_26
REMARK   10  A    between atoms: N_28  and  O_29
REMARK                            x       y       z     vdW  Elec       q    Type
REMARK                         _______ _______ _______ _____ _____    ______ ____
ROOT
ATOM      1  C   UNL     1       3.002   6.852  18.436  0.00  0.00    +0.000 C 
ATOM      2  C   UNL     1       3.144   6.814  19.954  0.00  0.00    +0.000 C 
ATOM      3  C   UNL     1       1.860   7.212  20.633  0.00  0.00    +0.000 C 
ATOM      4  C   UNL     1       1.427   8.579  20.135  0.00  0.00    +0.000 C 
ATOM      5  N   UNL     1       1.107   8.620  18.697  0.00  0.00    +0.000 NA
ATOM      6  C   UNL     1       2.174   8.019  17.862  0.00  0.00    +0.000 C 
ENDROOT
BRANCH   1  15
ATOM      7  C   UNL     1       4.245   5.053  17.084  0.00  0.00    +0.000 A 
ATOM      8  N   UNL     1       4.131   3.689  16.928  0.00  0.00    +0.000 N 
ATOM      9  C   UNL     1       3.068   3.177  17.638  0.00  0.00    +0.000 A 
ATOM     10  C   UNL     1       2.706   1.839  17.851  0.00  0.00    +0.000 A 
ATOM     11  C   UNL     1       1.601   1.584  18.661  0.00  0.00    +0.000 A 
ATOM     12  C   UNL     1       0.876   2.633  19.215  0.00  0.00    +0.000 A 
ATOM     13  C   UNL     1       1.257   3.976  18.981  0.00  0.00    +0.000 A 
ATOM     14  C   UNL     1       2.388   4.263  18.187  0.00  0.00    +0.000 A 
ATOM     15  C   UNL     1       3.132   5.457  17.849  0.00  0.00    +0.000 A 
ATOM     16  H   UNL     1       4.791   3.101  16.439  0.00  0.00    +0.000 HD
BRANCH   7  18
ATOM     17  C   UNL     1       6.322   4.787  15.729  0.00  0.00    +0.000 C 
ATOM     18  C   UNL     1       5.439   5.818  16.455  0.00  0.00    +0.000 C 
ATOM     19  C   UNL     1       6.268   6.548  17.532  0.00  0.00    +0.000 C 
ATOM     20  C   UNL     1       5.068   6.943  15.456  0.00  0.00    +0.000 C 
ENDBRANCH   7  18
ENDBRANCH   1  15
BRANCH   5  21
ATOM     21  C   UNL     1       0.912  10.042  18.274  0.00  0.00    +0.000 C 
BRANCH  21  22
ATOM     22  C   UNL     1      -0.464  10.579  18.583  0.00  0.00    +0.000 A 
ATOM     23  C   UNL     1      -0.665  11.477  19.637  0.00  0.00    +0.000 A 
ATOM     24  C   UNL     1      -1.912  12.088  19.816  0.00  0.00    +0.000 A 
ATOM     25  C   UNL     1      -2.965  11.833  18.927  0.00  0.00    +0.000 A 
ATOM     26  C   UNL     1      -2.784  10.881  17.921  0.00  0.00    +0.000 A 
ATOM     27  C   UNL     1      -1.553  10.257  17.768  0.00  0.00    +0.000 A 
ATOM     28  F   UNL     1      -1.408   9.375  16.768  0.00  0.00    +0.000 F 
BRANCH  25  29
ATOM     29  C   UNL     1      -4.240  12.545  19.083  0.00  0.00    +0.000 C 
ATOM     30  C   UNL     1      -5.341  12.195  18.405  0.00  0.00    +0.000 C 
BRANCH  30  31
ATOM     31  C   UNL     1      -6.618  12.925  18.613  0.00  0.00    +0.000 C 
ATOM     32  O   UNL     1      -7.658  12.380  18.945  0.00  0.00    +0.000 OA
ATOM     33  N   UNL     1      -6.523  14.263  18.362  0.00  0.00    +0.000 N 
ATOM     34  H   UNL     1      -5.709  14.741  17.988  0.00  0.00    +0.000 HD
BRANCH  33  35
ATOM     35  O   UNL     1      -7.720  15.006  18.431  0.00  0.00    +0.000 OA
ATOM     36  H   UNL     1      -8.363  14.334  18.748  0.00  0.00    +0.000 HD
ENDBRANCH  33  35
ENDBRANCH  30  31
ENDBRANCH  25  29
ENDBRANCH  21  22
ENDBRANCH   5  21
TORSDOF 7
ENDMDL
MODEL 7
REMARK VINA RESULT:      -8.2      4.455     10.681
REMARK  Name = 
REMARK  10 active torsions:
REMARK  status: ('A' for Active; 'I' for Inactive)
REMARK    1  A    between atoms: C_1  and  C_2
REMARK    2  A    between atoms: C_2  and  C_3
REMARK    3  A    between atoms: C_2  and  C_4
REMARK    4  A    between atoms: C_2  and  C_5
REMARK    5  A    between atoms: C_13  and  C_14
REMARK    6  A    between atoms: N_18  and  C_19
REMARK    7  A    between atoms: C_19  and  C_20
REMARK    8  A    between atoms: C_23  and  C_24
REMARK    9  A    between atoms: C_25  and  C_26
REMARK   10  A    between atoms: N_28  and  O_29
REMARK                            x       y       z     vdW  Elec       q    Type
REMARK                         _______ _______ _______ _____ _____    ______ ____
ROOT
ATOM      1  C   UNL     1      -2.006  12.483  20.591  0.00  0.00    +0.000 C 
ATOM      2  C   UNL     1      -1.508  13.665  19.766  0.00  0.00    +0.000 C 
ATOM      3  C   UNL     1      -0.694  13.204  18.586  0.00  0.00    +0.000 C 
ATOM      4  C   UNL     1       0.446  12.325  19.068  0.00  0.00    +0.000 C 
ATOM      5  N   UNL     1       0.006  11.077  19.719  0.00  0.00    +0.000 NA
ATOM      6  C   UNL     1      -1.017  11.313  20.764  0.00  0.00    +0.000 C 
ENDROOT
BRANCH   1  15
ATOM      7  C   UNL     1      -4.353  12.837  21.578  0.00  0.00    +0.000 A 
ATOM      8  N   UNL     1      -5.640  12.812  21.085  0.00  0.00    +0.000 N 
ATOM      9  C   UNL     1      -5.672  12.476  19.751  0.00  0.00    +0.000 A 
ATOM     10  C   UNL     1      -6.757  12.481  18.862  0.00  0.00    +0.000 A 
ATOM     11  C   UNL     1      -6.512  12.143  17.532  0.00  0.00    +0.000 A 
ATOM     12  C   UNL     1      -5.231  11.792  17.118  0.00  0.00    +0.000 A 
ATOM     13  C   UNL     1      -4.153  11.789  18.036  0.00  0.00    +0.000 A 
ATOM     14  C   UNL     1      -4.368  12.153  19.382  0.00  0.00    +0.000 A 
ATOM     15  C   UNL     1      -3.521  12.389  20.532  0.00  0.00    +0.000 A 
ATOM     16  H   UNL     1      -6.464  13.098  21.594  0.00  0.00    +0.000 HD
BRANCH   7  18
ATOM     17  C   UNL     1      -3.234  12.202  23.715  0.00  0.00    +0.000 C 
ATOM     18  C   UNL     1      -4.079  13.295  23.034  0.00  0.00    +0.000 C 
ATOM     19  C   UNL     1      -5.394  13.500  23.816  0.00  0.00    +0.000 C 
ATOM     20  C   UNL     1      -3.348  14.653  23.189  0.00  0.00    +0.000 C 
ENDBRANCH   7  18
ENDBRANCH   1  15
BRANCH   5  21
ATOM     21  C   UNL     1       1.186  10.405  20.346  0.00  0.00    +0.000 C 
BRANCH  21  22
ATOM     22  C   UNL     1       1.541   9.086  19.703  0.00  0.00    +0.000 A 
ATOM     23  C   UNL     1       1.882   9.016  18.349  0.00  0.00    +0.000 A 
ATOM     24  C   UNL     1       2.359   7.819  17.802  0.00  0.00    +0.000 A 
ATOM     25  C   UNL     1       2.530   6.685  18.608  0.00  0.00    +0.000 A 
ATOM     26  C   UNL     1       2.120   6.737  19.942  0.00  0.00    +0.000 A 
ATOM     27  C   UNL     1       1.620   7.920  20.470  0.00  0.00    +0.000 A 
ATOM     28  F   UNL     1       1.269   7.940  21.764  0.00  0.00    +0.000 F 
BRANCH  25  29
ATOM     29  C   UNL     1       3.109   5.462  18.034  0.00  0.00    +0.000 C 
ATOM     30  C   UNL     1       3.225   4.329  18.740  0.00  0.00    +0.000 C 
BRANCH  30  31
ATOM     31  C   UNL     1       3.790   3.107  18.113  0.00  0.00    +0.000 C 
ATOM     32  O   UNL     1       4.087   3.032  16.931  0.00  0.00    +0.000 OA
ATOM     33  N   UNL     1       3.914   2.062  18.981  0.00  0.00    +0.000 N 
ATOM     34  H   UNL     1       3.589   2.046  19.942  0.00  0.00    +0.000 HD
BRANCH  33  35
ATOM     35  O   UNL     1       4.341   0.833  18.435  0.00  0.00    +0.000 OA
ATOM     36  H   UNL     1       3.738   0.728  17.666  0.00  0.00    +0.000 HD
ENDBRANCH  33  35
ENDBRANCH  30  31
ENDBRANCH  25  29
ENDBRANCH  21  22
ENDBRANCH   5  21
TORSDOF 7
ENDMDL
MODEL 8
REMARK VINA RESULT:      -8.2      4.455     10.832
REMARK  Name = 
REMARK  10 active torsions:
REMARK  status: ('A' for Active; 'I' for Inactive)
REMARK    1  A    between atoms: C_1  and  C_2
REMARK    2  A    between atoms: C_2  and  C_3
REMARK    3  A    between atoms: C_2  and  C_4
REMARK    4  A    between atoms: C_2  and  C_5
REMARK    5  A    between atoms: C_13  and  C_14
REMARK    6  A    between atoms: N_18  and  C_19
REMARK    7  A    between atoms: C_19  and  C_20
REMARK    8  A    between atoms: C_23  and  C_24
REMARK    9  A    between atoms: C_25  and  C_26
REMARK   10  A    between atoms: N_28  and  O_29
REMARK                            x       y       z     vdW  Elec       q    Type
REMARK                         _______ _______ _______ _____ _____    ______ ____
ROOT
ATOM      1  C   UNL     1      -2.361  12.548  20.754  0.00  0.00    +0.000 C 
ATOM      2  C   UNL     1      -1.825  13.740  19.969  0.00  0.00    +0.000 C 
ATOM      3  C   UNL     1      -0.966  13.294  18.815  0.00  0.00    +0.000 C 
ATOM      4  C   UNL     1       0.150  12.402  19.330  0.00  0.00    +0.000 C 
ATOM      5  N   UNL     1      -0.320  11.147  19.942  0.00  0.00    +0.000 NA
ATOM      6  C   UNL     1      -1.385  11.371  20.949  0.00  0.00    +0.000 C 
ENDROOT
BRANCH   1  15
ATOM      7  C   UNL     1      -4.745  12.911  21.645  0.00  0.00    +0.000 A 
ATOM      8  N   UNL     1      -6.010  12.894  21.100  0.00  0.00    +0.000 N 
ATOM      9  C   UNL     1      -5.990  12.563  19.764  0.00  0.00    +0.000 A 
ATOM     10  C   UNL     1      -7.037  12.576  18.831  0.00  0.00    +0.000 A 
ATOM     11  C   UNL     1      -6.738  12.242  17.511  0.00  0.00    +0.000 A 
ATOM     12  C   UNL     1      -5.444  11.886  17.149  0.00  0.00    +0.000 A 
ATOM     13  C   UNL     1      -4.404  11.874  18.110  0.00  0.00    +0.000 A 
ATOM     14  C   UNL     1      -4.672  12.235  19.448  0.00  0.00    +0.000 A 
ATOM     15  C   UNL     1      -3.873  12.462  20.633  0.00  0.00    +0.000 A 
ATOM     16  H   UNL     1      -6.854  13.183  21.575  0.00  0.00    +0.000 HD
BRANCH   7  18
ATOM     17  C   UNL     1      -5.916  13.500  23.767  0.00  0.00    +0.000 C 
ATOM     18  C   UNL     1      -4.529  13.362  23.113  0.00  0.00    +0.000 C 
ATOM     19  C   UNL     1      -3.784  14.712  23.182  0.00  0.00    +0.000 C 
ATOM     20  C   UNL     1      -3.660  12.422  23.987  0.00  0.00    +0.000 C 
ENDBRANCH   7  18
ENDBRANCH   1  15
BRANCH   5  21
ATOM     21  C   UNL     1       0.830  10.460  20.607  0.00  0.00    +0.000 C 
BRANCH  21  22
ATOM     22  C   UNL     1       1.350   9.272  19.834  0.00  0.00    +0.000 A 
ATOM     23  C   UNL     1       1.682   9.385  18.480  0.00  0.00    +0.000 A 
ATOM     24  C   UNL     1       2.309   8.324  17.816  0.00  0.00    +0.000 A 
ATOM     25  C   UNL     1       2.638   7.147  18.502  0.00  0.00    +0.000 A 
ATOM     26  C   UNL     1       2.240   7.009  19.835  0.00  0.00    +0.000 A 
ATOM     27  C   UNL     1       1.593   8.055  20.478  0.00  0.00    +0.000 A 
ATOM     28  F   UNL     1       1.257   7.897  21.767  0.00  0.00    +0.000 F 
BRANCH  25  29
ATOM     29  C   UNL     1       3.368   6.077  17.809  0.00  0.00    +0.000 C 
ATOM     30  C   UNL     1       3.278   4.794  18.183  0.00  0.00    +0.000 C 
BRANCH  30  31
ATOM     31  C   UNL     1       4.011   3.740  17.437  0.00  0.00    +0.000 C 
ATOM     32  O   UNL     1       3.787   2.547  17.561  0.00  0.00    +0.000 OA
ATOM     33  N   UNL     1       4.988   4.234  16.622  0.00  0.00    +0.000 N 
ATOM     34  H   UNL     1       5.277   5.205  16.562  0.00  0.00    +0.000 HD
BRANCH  33  35
ATOM     35  O   UNL     1       5.802   3.288  15.963  0.00  0.00    +0.000 OA
ATOM     36  H   UNL     1       5.433   2.437  16.287  0.00  0.00    +0.000 HD
ENDBRANCH  33  35
ENDBRANCH  30  31
ENDBRANCH  25  29
ENDBRANCH  21  22
ENDBRANCH   5  21
TORSDOF 7
ENDMDL
MODEL 9
REMARK VINA RESULT:      -8.2      1.327      1.649
REMARK  Name = 
REMARK  10 active torsions:
REMARK  status: ('A' for Active; 'I' for Inactive)
REMARK    1  A    between atoms: C_1  and  C_2
REMARK    2  A    between atoms: C_2  and  C_3
REMARK    3  A    between atoms: C_2  and  C_4
REMARK    4  A    between atoms: C_2  and  C_5
REMARK    5  A    between atoms: C_13  and  C_14
REMARK    6  A    between atoms: N_18  and  C_19
REMARK    7  A    between atoms: C_19  and  C_20
REMARK    8  A    between atoms: C_23  and  C_24
REMARK    9  A    between atoms: C_25  and  C_26
REMARK   10  A    between atoms: N_28  and  O_29
REMARK                            x       y       z     vdW  Elec       q    Type
REMARK                         _______ _______ _______ _____ _____    ______ ____
ROOT
ATOM      1  C   UNL     1       3.044   6.903  18.474  0.00  0.00    +0.000 C 
ATOM      2  C   UNL     1       2.999   6.844  19.997  0.00  0.00    +0.000 C 
ATOM      3  C   UNL     1       1.668   7.313  20.524  0.00  0.00    +0.000 C 
ATOM      4  C   UNL     1       1.378   8.707  19.998  0.00  0.00    +0.000 C 
ATOM      5  N   UNL     1       1.237   8.778  18.532  0.00  0.00    +0.000 NA
ATOM      6  C   UNL     1       2.359   8.121  17.823  0.00  0.00    +0.000 C 
ENDROOT
BRANCH   1  15
ATOM      7  C   UNL     1       4.261   5.100  17.104  0.00  0.00    +0.000 A 
ATOM      8  N   UNL     1       4.143   3.736  16.951  0.00  0.00    +0.000 N 
ATOM      9  C   UNL     1       3.092   3.227  17.679  0.00  0.00    +0.000 A 
ATOM     10  C   UNL     1       2.733   1.889  17.900  0.00  0.00    +0.000 A 
ATOM     11  C   UNL     1       1.642   1.636  18.729  0.00  0.00    +0.000 A 
ATOM     12  C   UNL     1       0.927   2.686  19.295  0.00  0.00    +0.000 A 
ATOM     13  C   UNL     1       1.305   4.029  19.052  0.00  0.00    +0.000 A 
ATOM     14  C   UNL     1       2.423   4.314  18.238  0.00  0.00    +0.000 A 
ATOM     15  C   UNL     1       3.163   5.507  17.887  0.00  0.00    +0.000 A 
ATOM     16  H   UNL     1       4.795   3.147  16.452  0.00  0.00    +0.000 HD
BRANCH   7  18
ATOM     17  C   UNL     1       6.337   4.826  15.748  0.00  0.00    +0.000 C 
ATOM     18  C   UNL     1       5.445   5.864  16.453  0.00  0.00    +0.000 C 
ATOM     19  C   UNL     1       6.270   6.628  17.511  0.00  0.00    +0.000 C 
ATOM     20  C   UNL     1       5.059   6.962  15.430  0.00  0.00    +0.000 C 
ENDBRANCH   7  18
ENDBRANCH   1  15
BRANCH   5  21
ATOM     21  C   UNL     1       1.177  10.212  18.111  0.00  0.00    +0.000 C 
BRANCH  21  22
ATOM     22  C   UNL     1      -0.169  10.853  18.344  0.00  0.00    +0.000 A 
ATOM     23  C   UNL     1      -1.335  10.290  17.815  0.00  0.00    +0.000 A 
ATOM     24  C   UNL     1      -2.589  10.802  18.167  0.00  0.00    +0.000 A 
ATOM     25  C   UNL     1      -2.697  11.864  19.075  0.00  0.00    +0.000 A 
ATOM     26  C   UNL     1      -1.529  12.471  19.545  0.00  0.00    +0.000 A 
ATOM     27  C   UNL     1      -0.288  11.976  19.168  0.00  0.00    +0.000 A 
ATOM     28  F   UNL     1       0.808  12.565  19.667  0.00  0.00    +0.000 F 
BRANCH  25  29
ATOM     29  C   UNL     1      -4.024  12.334  19.495  0.00  0.00    +0.000 C 
ATOM     30  C   UNL     1      -5.133  12.056  18.796  0.00  0.00    +0.000 C 
BRANCH  30  31
ATOM     31  C   UNL     1      -6.459  12.527  19.271  0.00  0.00    +0.000 C 
ATOM     32  O   UNL     1      -7.317  11.784  19.720  0.00  0.00    +0.000 OA
ATOM     33  N   UNL     1      -6.640  13.872  19.123  0.00  0.00    +0.000 N 
ATOM     34  H   UNL     1      -5.999  14.511  18.665  0.00  0.00    +0.000 HD
BRANCH  33  35
ATOM     35  O   UNL     1      -7.916  14.378  19.449  0.00  0.00    +0.000 OA
ATOM     36  H   UNL     1      -8.138  14.910  18.653  0.00  0.00    +0.000 HD
ENDBRANCH  33  35
ENDBRANCH  30  31
ENDBRANCH  25  29
ENDBRANCH  21  22
ENDBRANCH   5  21
TORSDOF 7
ENDMDL
