MODEL 1
REMARK VINA RESULT:      -9.0      0.000      0.000
REMARK  Name = 
REMARK  7 active torsions:
REMARK  status: ('A' for Active; 'I' for Inactive)
REMARK    1  A    between atoms: C_6  and  C_7
REMARK    2  A    between atoms: C_11  and  C_12
REMARK    3  A    between atoms: C_12  and  N_13
REMARK    4  A    between atoms: N_13  and  C_14
REMARK    5  A    between atoms: N_13  and  C_21
REMARK    6  A    between atoms: C_14  and  C_15
REMARK    7  A    between atoms: C_21  and  C_22
REMARK                            x       y       z     vdW  Elec       q    Type
REMARK                         _______ _______ _______ _____ _____    ______ ____
ROOT
ATOM      1  C   UNL     1       6.645   5.143  17.471  0.00  0.00    +0.000 A 
ATOM      2  N   UNL     1       7.516   4.696  18.388  0.00  0.00    +0.000 NA
ATOM      3  N   UNL     1       6.933   4.986  19.554  0.00  0.00    +0.000 N 
ATOM      4  C   UNL     1       5.716   5.575  19.415  0.00  0.00    +0.000 A 
ATOM      5  C   UNL     1       5.554   5.841  18.069  0.00  0.00    +0.000 A 
ATOM      6  H   UNL     1       7.412   4.722  20.409  0.00  0.00    +0.000 HD
ENDROOT
BRANCH   1  12
ATOM      7  C   UNL     1       6.338   3.685  11.605  0.00  0.00    +0.000 A 
ATOM      8  C   UNL     1       7.351   4.644  11.516  0.00  0.00    +0.000 A 
ATOM      9  C   UNL     1       7.864   5.269  12.661  0.00  0.00    +0.000 A 
ATOM     10  C   UNL     1       7.315   4.885  13.883  0.00  0.00    +0.000 A 
ATOM     11  O   UNL     1       7.616   5.418  15.106  0.00  0.00    +0.000 OA
ATOM     12  C   UNL     1       6.823   4.782  16.028  0.00  0.00    +0.000 A 
ATOM     13  C   UNL     1       6.075   3.804  15.390  0.00  0.00    +0.000 A 
ATOM     14  C   UNL     1       6.336   3.908  14.007  0.00  0.00    +0.000 A 
ATOM     15  C   UNL     1       5.823   3.300  12.849  0.00  0.00    +0.000 A 
ENDBRANCH   1  12
BRANCH   5  16
ATOM     16  C   UNL     1       4.444   6.546  17.353  0.00  0.00    +0.000 C 
BRANCH  16  17
ATOM     17  N   UNL     1       3.222   6.779  18.163  0.00  0.00    +0.000 NA
BRANCH  17  18
ATOM     18  C   UNL     1       2.637   8.123  17.943  0.00  0.00    +0.000 C 
BRANCH  18  19
ATOM     19  C   UNL     1       1.740   8.576  19.082  0.00  0.00    +0.000 A 
ATOM     20  C   UNL     1       0.886   9.675  18.935  0.00  0.00    +0.000 A 
ATOM     21  C   UNL     1       0.163  10.108  20.036  0.00  0.00    +0.000 A 
ATOM     22  N   UNL     1       0.222   9.525  21.253  0.00  0.00    +0.000 NA
ATOM     23  C   UNL     1       1.036   8.454  21.369  0.00  0.00    +0.000 A 
ATOM     24  C   UNL     1       1.796   7.944  20.328  0.00  0.00    +0.000 A 
ENDBRANCH  18  19
ENDBRANCH  17  18
BRANCH  17  25
ATOM     25  C   UNL     1       2.198   5.742  17.833  0.00  0.00    +0.000 C 
BRANCH  25  26
ATOM     26  C   UNL     1       2.378   4.346  18.468  0.00  0.00    +0.000 C 
ATOM     27  C   UNL     1       2.729   3.283  17.431  0.00  0.00    +0.000 C 
ATOM     28  C   UNL     1       2.237   2.029  18.107  0.00  0.00    +0.000 C 
ATOM     29  C   UNL     1       0.962   2.513  18.768  0.00  0.00    +0.000 C 
ATOM     30  O   UNL     1       1.163   3.896  19.094  0.00  0.00    +0.000 OA
ENDBRANCH  25  26
ENDBRANCH  17  25
ENDBRANCH  16  17
ENDBRANCH   5  16
TORSDOF 7
ENDMDL
MODEL 2
REMARK VINA RESULT:      -9.0      0.779      1.313
REMARK  Name = 
REMARK  7 active torsions:
REMARK  status: ('A' for Active; 'I' for Inactive)
REMARK    1  A    between atoms: C_6  and  C_7
REMARK    2  A    between atoms: C_11  and  C_12
REMARK    3  A    between atoms: C_12  and  N_13
REMARK    4  A    between atoms: N_13  and  C_14
REMARK    5  A    between atoms: N_13  and  C_21
REMARK    6  A    between atoms: C_14  and  C_15
REMARK    7  A    between atoms: C_21  and  C_22
REMARK                            x       y       z     vdW  Elec       q    Type
REMARK                         _______ _______ _______ _____ _____    ______ ____
ROOT
ATOM      1  C   UNL     1       6.692   5.140  17.507  0.00  0.00    +0.000 A 
ATOM      2  N   UNL     1       7.603   4.722  18.400  0.00  0.00    +0.000 NA
ATOM      3  N   UNL     1       7.051   5.010  19.582  0.00  0.00    +0.000 N 
ATOM      4  C   UNL     1       5.817   5.570  19.477  0.00  0.00    +0.000 A 
ATOM      5  C   UNL     1       5.606   5.819  18.134  0.00  0.00    +0.000 A 
ATOM      6  H   UNL     1       7.563   4.766  20.423  0.00  0.00    +0.000 HD
ENDROOT
BRANCH   1  12
ATOM      7  C   UNL     1       6.232   3.657  11.658  0.00  0.00    +0.000 A 
ATOM      8  C   UNL     1       7.258   4.597  11.542  0.00  0.00    +0.000 A 
ATOM      9  C   UNL     1       7.808   5.220  12.671  0.00  0.00    +0.000 A 
ATOM     10  C   UNL     1       7.279   4.852  13.907  0.00  0.00    +0.000 A 
ATOM     11  O   UNL     1       7.616   5.386  15.120  0.00  0.00    +0.000 OA
ATOM     12  C   UNL     1       6.833   4.768  16.063  0.00  0.00    +0.000 A 
ATOM     13  C   UNL     1       6.054   3.800  15.448  0.00  0.00    +0.000 A 
ATOM     14  C   UNL     1       6.286   3.892  14.059  0.00  0.00    +0.000 A 
ATOM     15  C   UNL     1       5.737   3.287  12.915  0.00  0.00    +0.000 A 
ENDBRANCH   1  12
BRANCH   5  16
ATOM     16  C   UNL     1       4.457   6.491  17.448  0.00  0.00    +0.000 C 
BRANCH  16  17
ATOM     17  N   UNL     1       3.167   6.432  18.179  0.00  0.00    +0.000 NA
BRANCH  17  18
ATOM     18  C   UNL     1       2.231   7.509  17.776  0.00  0.00    +0.000 C 
BRANCH  18  19
ATOM     19  C   UNL     1       1.806   8.394  18.936  0.00  0.00    +0.000 A 
ATOM     20  C   UNL     1       1.798   7.910  20.249  0.00  0.00    +0.000 A 
ATOM     21  C   UNL     1       1.306   8.727  21.256  0.00  0.00    +0.000 A 
ATOM     22  N   UNL     1       0.839   9.977  21.051  0.00  0.00    +0.000 NA
ATOM     23  C   UNL     1       0.874  10.433  19.781  0.00  0.00    +0.000 A 
ATOM     24  C   UNL     1       1.349   9.695  18.707  0.00  0.00    +0.000 A 
ENDBRANCH  18  19
ENDBRANCH  17  18
BRANCH  17  25
ATOM     25  C   UNL     1       2.517   5.109  17.940  0.00  0.00    +0.000 C 
BRANCH  25  26
ATOM     26  C   UNL     1       1.697   4.507  19.102  0.00  0.00    +0.000 C 
ATOM     27  C   UNL     1       2.480   4.494  20.413  0.00  0.00    +0.000 C 
ATOM     28  C   UNL     1       1.806   3.368  21.154  0.00  0.00    +0.000 C 
ATOM     29  C   UNL     1       1.549   2.373  20.039  0.00  0.00    +0.000 C 
ATOM     30  O   UNL     1       1.348   3.135  18.841  0.00  0.00    +0.000 OA
ENDBRANCH  25  26
ENDBRANCH  17  25
ENDBRANCH  16  17
ENDBRANCH   5  16
TORSDOF 7
ENDMDL
MODEL 3
REMARK VINA RESULT:      -8.6      2.044      3.955
REMARK  Name = 
REMARK  7 active torsions:
REMARK  status: ('A' for Active; 'I' for Inactive)
REMARK    1  A    between atoms: C_6  and  C_7
REMARK    2  A    between atoms: C_11  and  C_12
REMARK    3  A    between atoms: C_12  and  N_13
REMARK    4  A    between atoms: N_13  and  C_14
REMARK    5  A    between atoms: N_13  and  C_21
REMARK    6  A    between atoms: C_14  and  C_15
REMARK    7  A    between atoms: C_21  and  C_22
REMARK                            x       y       z     vdW  Elec       q    Type
REMARK                         _______ _______ _______ _____ _____    ______ ____
ROOT
ATOM      1  C   UNL     1       7.202   6.062  16.865  0.00  0.00    +0.000 A 
ATOM      2  N   UNL     1       7.643   7.325  16.767  0.00  0.00    +0.000 NA
ATOM      3  N   UNL     1       7.995   7.642  18.016  0.00  0.00    +0.000 N 
ATOM      4  C   UNL     1       7.820   6.623  18.898  0.00  0.00    +0.000 A 
ATOM      5  C   UNL     1       7.155   5.618  18.220  0.00  0.00    +0.000 A 
ATOM      6  H   UNL     1       8.378   8.565  18.188  0.00  0.00    +0.000 HD
ENDROOT
BRANCH   1  12
ATOM      7  C   UNL     1       5.234   3.264  11.873  0.00  0.00    +0.000 A 
ATOM      8  C   UNL     1       6.508   3.608  11.415  0.00  0.00    +0.000 A 
ATOM      9  C   UNL     1       7.436   4.244  12.252  0.00  0.00    +0.000 A 
ATOM     10  C   UNL     1       7.021   4.512  13.556  0.00  0.00    +0.000 A 
ATOM     11  O   UNL     1       7.736   5.185  14.508  0.00  0.00    +0.000 OA
ATOM     12  C   UNL     1       6.944   5.259  15.627  0.00  0.00    +0.000 A 
ATOM     13  C   UNL     1       5.762   4.573  15.397  0.00  0.00    +0.000 A 
ATOM     14  C   UNL     1       5.776   4.148  14.051  0.00  0.00    +0.000 A 
ATOM     15  C   UNL     1       4.853   3.522  13.196  0.00  0.00    +0.000 A 
ENDBRANCH   1  12
BRANCH   5  16
ATOM     16  C   UNL     1       6.638   4.303  18.712  0.00  0.00    +0.000 C 
BRANCH  16  17
ATOM     17  N   UNL     1       5.162   4.211  18.830  0.00  0.00    +0.000 NA
BRANCH  17  18
ATOM     18  C   UNL     1       4.724   3.086  19.689  0.00  0.00    +0.000 C 
BRANCH  18  19
ATOM     19  C   UNL     1       3.218   2.889  19.694  0.00  0.00    +0.000 A 
ATOM     20  C   UNL     1       2.527   2.574  18.518  0.00  0.00    +0.000 A 
ATOM     21  C   UNL     1       1.142   2.504  18.558  0.00  0.00    +0.000 A 
ATOM     22  N   UNL     1       0.410   2.713  19.674  0.00  0.00    +0.000 NA
ATOM     23  C   UNL     1       1.096   2.996  20.801  0.00  0.00    +0.000 A 
ATOM     24  C   UNL     1       2.478   3.085  20.864  0.00  0.00    +0.000 A 
ENDBRANCH  18  19
ENDBRANCH  17  18
BRANCH  17  25
ATOM     25  C   UNL     1       4.625   5.488  19.390  0.00  0.00    +0.000 C 
BRANCH  25  26
ATOM     26  C   UNL     1       3.414   6.120  18.670  0.00  0.00    +0.000 C 
ATOM     27  C   UNL     1       3.830   7.243  17.723  0.00  0.00    +0.000 C 
ATOM     28  C   UNL     1       2.569   8.067  17.662  0.00  0.00    +0.000 C 
ATOM     29  C   UNL     1       2.077   7.987  19.094  0.00  0.00    +0.000 C 
ATOM     30  O   UNL     1       2.500   6.717  19.608  0.00  0.00    +0.000 OA
ENDBRANCH  25  26
ENDBRANCH  17  25
ENDBRANCH  16  17
ENDBRANCH   5  16
TORSDOF 7
ENDMDL
MODEL 4
REMARK VINA RESULT:      -8.4      1.618      3.750
REMARK  Name = 
REMARK  7 active torsions:
REMARK  status: ('A' for Active; 'I' for Inactive)
REMARK    1  A    between atoms: C_6  and  C_7
REMARK    2  A    between atoms: C_11  and  C_12
REMARK    3  A    between atoms: C_12  and  N_13
REMARK    4  A    between atoms: N_13  and  C_14
REMARK    5  A    between atoms: N_13  and  C_21
REMARK    6  A    between atoms: C_14  and  C_15
REMARK    7  A    between atoms: C_21  and  C_22
REMARK                            x       y       z     vdW  Elec       q    Type
REMARK                         _______ _______ _______ _____ _____    ______ ____
ROOT
ATOM      1  C   UNL     1       6.830   5.160  17.459  0.00  0.00    +0.000 A 
ATOM      2  N   UNL     1       7.767   4.757  18.331  0.00  0.00    +0.000 NA
ATOM      3  N   UNL     1       7.245   5.052  19.524  0.00  0.00    +0.000 N 
ATOM      4  C   UNL     1       6.004   5.601  19.448  0.00  0.00    +0.000 A 
ATOM      5  C   UNL     1       5.755   5.837  18.108  0.00  0.00    +0.000 A 
ATOM      6  H   UNL     1       7.781   4.819  20.354  0.00  0.00    +0.000 HD
ENDROOT
BRANCH   1  12
ATOM      7  C   UNL     1       6.226   3.639  11.633  0.00  0.00    +0.000 A 
ATOM      8  C   UNL     1       7.259   4.568  11.487  0.00  0.00    +0.000 A 
ATOM      9  C   UNL     1       7.839   5.193  12.599  0.00  0.00    +0.000 A 
ATOM     10  C   UNL     1       7.335   4.840  13.850  0.00  0.00    +0.000 A 
ATOM     11  O   UNL     1       7.703   5.379  15.051  0.00  0.00    +0.000 OA
ATOM     12  C   UNL     1       6.935   4.776  16.016  0.00  0.00    +0.000 A 
ATOM     13  C   UNL     1       6.133   3.812  15.424  0.00  0.00    +0.000 A 
ATOM     14  C   UNL     1       6.335   3.891  14.030  0.00  0.00    +0.000 A 
ATOM     15  C   UNL     1       5.755   3.284  12.903  0.00  0.00    +0.000 A 
ENDBRANCH   1  12
BRANCH   5  16
ATOM     16  C   UNL     1       4.584   6.494  17.447  0.00  0.00    +0.000 C 
BRANCH  16  17
ATOM     17  N   UNL     1       3.292   5.781  17.605  0.00  0.00    +0.000 NA
BRANCH  17  18
ATOM     18  C   UNL     1       3.459   4.314  17.731  0.00  0.00    +0.000 C 
BRANCH  18  19
ATOM     19  C   UNL     1       2.682   3.723  18.896  0.00  0.00    +0.000 A 
ATOM     20  C   UNL     1       1.288   3.602  18.847  0.00  0.00    +0.000 A 
ATOM     21  C   UNL     1       0.620   3.149  19.975  0.00  0.00    +0.000 A 
ATOM     22  N   UNL     1       1.235   2.803  21.127  0.00  0.00    +0.000 NA
ATOM     23  C   UNL     1       2.581   2.908  21.146  0.00  0.00    +0.000 A 
ATOM     24  C   UNL     1       3.338   3.347  20.071  0.00  0.00    +0.000 A 
ENDBRANCH  18  19
ENDBRANCH  17  18
BRANCH  17  25
ATOM     25  C   UNL     1       2.581   6.296  18.814  0.00  0.00    +0.000 C 
BRANCH  25  26
ATOM     26  C   UNL     1       2.433   7.827  18.946  0.00  0.00    +0.000 C 
ATOM     27  C   UNL     1       1.483   8.218  20.076  0.00  0.00    +0.000 C 
ATOM     28  C   UNL     1       1.019   9.578  19.622  0.00  0.00    +0.000 C 
ATOM     29  C   UNL     1       0.892   9.378  18.124  0.00  0.00    +0.000 C 
ATOM     30  O   UNL     1       1.877   8.405  17.751  0.00  0.00    +0.000 OA
ENDBRANCH  25  26
ENDBRANCH  17  25
ENDBRANCH  16  17
ENDBRANCH   5  16
TORSDOF 7
ENDMDL
MODEL 5
REMARK VINA RESULT:      -8.3      1.326      2.022
REMARK  Name = 
REMARK  7 active torsions:
REMARK  status: ('A' for Active; 'I' for Inactive)
REMARK    1  A    between atoms: C_6  and  C_7
REMARK    2  A    between atoms: C_11  and  C_12
REMARK    3  A    between atoms: C_12  and  N_13
REMARK    4  A    between atoms: N_13  and  C_14
REMARK    5  A    between atoms: N_13  and  C_21
REMARK    6  A    between atoms: C_14  and  C_15
REMARK    7  A    between atoms: C_21  and  C_22
REMARK                            x       y       z     vdW  Elec       q    Type
REMARK                         _______ _______ _______ _____ _____    ______ ____
ROOT
ATOM      1  C   UNL     1       6.535   5.499  17.163  0.00  0.00    +0.000 A 
ATOM      2  N   UNL     1       7.644   6.157  17.534  0.00  0.00    +0.000 NA
ATOM      3  N   UNL     1       7.603   6.131  18.869  0.00  0.00    +0.000 N 
ATOM      4  C   UNL     1       6.528   5.462  19.361  0.00  0.00    +0.000 A 
ATOM      5  C   UNL     1       5.716   5.165  18.282  0.00  0.00    +0.000 A 
ATOM      6  H   UNL     1       8.364   6.566  19.381  0.00  0.00    +0.000 HD
ENDROOT
BRANCH   1  12
ATOM      7  C   UNL     1       6.701   3.467  11.466  0.00  0.00    +0.000 A 
ATOM      8  C   UNL     1       5.398   3.072  11.777  0.00  0.00    +0.000 A 
ATOM      9  C   UNL     1       4.819   3.379  13.016  0.00  0.00    +0.000 A 
ATOM     10  C   UNL     1       5.608   4.097  13.913  0.00  0.00    +0.000 A 
ATOM     11  O   UNL     1       5.269   4.435  15.194  0.00  0.00    +0.000 OA
ATOM     12  C   UNL     1       6.344   5.098  15.733  0.00  0.00    +0.000 A 
ATOM     13  C   UNL     1       7.329   5.233  14.767  0.00  0.00    +0.000 A 
ATOM     14  C   UNL     1       6.892   4.538  13.619  0.00  0.00    +0.000 A 
ATOM     15  C   UNL     1       7.462   4.210  12.377  0.00  0.00    +0.000 A 
ENDBRANCH   1  12
BRANCH   5  16
ATOM     16  C   UNL     1       4.371   4.508  18.241  0.00  0.00    +0.000 C 
BRANCH  16  17
ATOM     17  N   UNL     1       3.226   5.401  18.548  0.00  0.00    +0.000 NA
BRANCH  17  18
ATOM     18  C   UNL     1       3.357   6.737  17.920  0.00  0.00    +0.000 C 
BRANCH  18  19
ATOM     19  C   UNL     1       2.458   7.785  18.554  0.00  0.00    +0.000 A 
ATOM     20  C   UNL     1       2.115   7.717  19.909  0.00  0.00    +0.000 A 
ATOM     21  C   UNL     1       1.213   8.642  20.414  0.00  0.00    +0.000 A 
ATOM     22  N   UNL     1       0.645   9.620  19.676  0.00  0.00    +0.000 NA
ATOM     23  C   UNL     1       1.004   9.680  18.377  0.00  0.00    +0.000 A 
ATOM     24  C   UNL     1       1.899   8.806  17.780  0.00  0.00    +0.000 A 
ENDBRANCH  18  19
ENDBRANCH  17  18
BRANCH  17  25
ATOM     25  C   UNL     1       1.958   4.765  18.081  0.00  0.00    +0.000 C 
BRANCH  25  26
ATOM     26  C   UNL     1       1.236   3.822  19.069  0.00  0.00    +0.000 C 
ATOM     27  C   UNL     1       1.456   4.235  20.522  0.00  0.00    +0.000 C 
ATOM     28  C   UNL     1       1.250   2.927  21.241  0.00  0.00    +0.000 C 
ATOM     29  C   UNL     1       1.901   1.944  20.287  0.00  0.00    +0.000 C 
ATOM     30  O   UNL     1       1.733   2.476  18.966  0.00  0.00    +0.000 OA
ENDBRANCH  25  26
ENDBRANCH  17  25
ENDBRANCH  16  17
ENDBRANCH   5  16
TORSDOF 7
ENDMDL
MODEL 6
REMARK VINA RESULT:      -8.1      1.149      1.628
REMARK  Name = 
REMARK  7 active torsions:
REMARK  status: ('A' for Active; 'I' for Inactive)
REMARK    1  A    between atoms: C_6  and  C_7
REMARK    2  A    between atoms: C_11  and  C_12
REMARK    3  A    between atoms: C_12  and  N_13
REMARK    4  A    between atoms: N_13  and  C_14
REMARK    5  A    between atoms: N_13  and  C_21
REMARK    6  A    between atoms: C_14  and  C_15
REMARK    7  A    between atoms: C_21  and  C_22
REMARK                            x       y       z     vdW  Elec       q    Type
REMARK                         _______ _______ _______ _____ _____    ______ ____
ROOT
ATOM      1  C   UNL     1       6.846   5.201  17.107  0.00  0.00    +0.000 A 
ATOM      2  N   UNL     1       7.910   4.656  17.716  0.00  0.00    +0.000 NA
ATOM      3  N   UNL     1       7.717   4.930  19.009  0.00  0.00    +0.000 N 
ATOM      4  C   UNL     1       6.560   5.604  19.249  0.00  0.00    +0.000 A 
ATOM      5  C   UNL     1       6.034   5.942  18.016  0.00  0.00    +0.000 A 
ATOM      6  H   UNL     1       8.402   4.598  19.679  0.00  0.00    +0.000 HD
ENDROOT
BRANCH   1  12
ATOM      7  C   UNL     1       6.654   3.522  11.297  0.00  0.00    +0.000 A 
ATOM      8  C   UNL     1       5.357   3.142  11.653  0.00  0.00    +0.000 A 
ATOM      9  C   UNL     1       4.854   3.387  12.938  0.00  0.00    +0.000 A 
ATOM     10  C   UNL     1       5.709   4.027  13.834  0.00  0.00    +0.000 A 
ATOM     11  O   UNL     1       5.448   4.295  15.149  0.00  0.00    +0.000 OA
ATOM     12  C   UNL     1       6.569   4.895  15.668  0.00  0.00    +0.000 A 
ATOM     13  C   UNL     1       7.505   5.064  14.659  0.00  0.00    +0.000 A 
ATOM     14  C   UNL     1       6.989   4.452  13.497  0.00  0.00    +0.000 A 
ATOM     15  C   UNL     1       7.483   4.186  12.209  0.00  0.00    +0.000 A 
ENDBRANCH   1  12
BRANCH   5  16
ATOM     16  C   UNL     1       4.820   6.749  17.676  0.00  0.00    +0.000 C 
BRANCH  16  17
ATOM     17  N   UNL     1       3.547   6.241  18.246  0.00  0.00    +0.000 NA
BRANCH  17  18
ATOM     18  C   UNL     1       2.366   7.005  17.780  0.00  0.00    +0.000 C 
BRANCH  18  19
ATOM     19  C   UNL     1       1.840   7.983  18.816  0.00  0.00    +0.000 A 
ATOM     20  C   UNL     1       1.368   9.247  18.443  0.00  0.00    +0.000 A 
ATOM     21  C   UNL     1       0.994  10.138  19.438  0.00  0.00    +0.000 A 
ATOM     22  N   UNL     1       1.045   9.857  20.758  0.00  0.00    +0.000 NA
ATOM     23  C   UNL     1       1.484   8.627  21.096  0.00  0.00    +0.000 A 
ATOM     24  C   UNL     1       1.878   7.666  20.177  0.00  0.00    +0.000 A 
ENDBRANCH  18  19
ENDBRANCH  17  18
BRANCH  17  25
ATOM     25  C   UNL     1       3.373   4.804  17.879  0.00  0.00    +0.000 C 
BRANCH  25  26
ATOM     26  C   UNL     1       2.884   3.847  18.988  0.00  0.00    +0.000 C 
ATOM     27  C   UNL     1       1.368   3.661  18.960  0.00  0.00    +0.000 C 
ATOM     28  C   UNL     1       1.086   3.276  20.389  0.00  0.00    +0.000 C 
ATOM     29  C   UNL     1       2.051   4.168  21.146  0.00  0.00    +0.000 C 
ATOM     30  O   UNL     1       3.190   4.361  20.296  0.00  0.00    +0.000 OA
ENDBRANCH  25  26
ENDBRANCH  17  25
ENDBRANCH  16  17
ENDBRANCH   5  16
TORSDOF 7
ENDMDL
MODEL 7
REMARK VINA RESULT:      -8.1      2.329      7.911
REMARK  Name = 
REMARK  7 active torsions:
REMARK  status: ('A' for Active; 'I' for Inactive)
REMARK    1  A    between atoms: C_6  and  C_7
REMARK    2  A    between atoms: C_11  and  C_12
REMARK    3  A    between atoms: C_12  and  N_13
REMARK    4  A    between atoms: N_13  and  C_14
REMARK    5  A    between atoms: N_13  and  C_21
REMARK    6  A    between atoms: C_14  and  C_15
REMARK    7  A    between atoms: C_21  and  C_22
REMARK                            x       y       z     vdW  Elec       q    Type
REMARK                         _______ _______ _______ _____ _____    ______ ____
ROOT
ATOM      1  C   UNL     1       2.705   4.107  18.216  0.00  0.00    +0.000 A 
ATOM      2  N   UNL     1       1.662   3.310  17.936  0.00  0.00    +0.000 NA
ATOM      3  N   UNL     1       2.213   2.104  17.774  0.00  0.00    +0.000 N 
ATOM      4  C   UNL     1       3.559   2.098  17.966  0.00  0.00    +0.000 A 
ATOM      5  C   UNL     1       3.948   3.417  18.103  0.00  0.00    +0.000 A 
ATOM      6  H   UNL     1       1.602   1.322  17.564  0.00  0.00    +0.000 HD
ENDROOT
BRANCH   1  12
ATOM      7  C   UNL     1       1.171   9.847  19.366  0.00  0.00    +0.000 A 
ATOM      8  C   UNL     1       1.004   9.338  20.656  0.00  0.00    +0.000 A 
ATOM      9  C   UNL     1       1.309   8.003  20.957  0.00  0.00    +0.000 A 
ATOM     10  C   UNL     1       1.785   7.218  19.909  0.00  0.00    +0.000 A 
ATOM     11  O   UNL     1       2.071   5.882  19.965  0.00  0.00    +0.000 OA
ATOM     12  C   UNL     1       2.471   5.502  18.708  0.00  0.00    +0.000 A 
ATOM     13  C   UNL     1       2.499   6.615  17.882  0.00  0.00    +0.000 A 
ATOM     14  C   UNL     1       1.999   7.706  18.625  0.00  0.00    +0.000 A 
ATOM     15  C   UNL     1       1.676   9.042  18.337  0.00  0.00    +0.000 A 
ENDBRANCH   1  12
BRANCH   5  16
ATOM     16  C   UNL     1       5.315   4.007  18.259  0.00  0.00    +0.000 C 
BRANCH  16  17
ATOM     17  N   UNL     1       6.087   4.145  16.999  0.00  0.00    +0.000 NA
BRANCH  17  18
ATOM     18  C   UNL     1       5.309   4.796  15.918  0.00  0.00    +0.000 C 
BRANCH  18  19
ATOM     19  C   UNL     1       5.889   4.551  14.536  0.00  0.00    +0.000 A 
ATOM     20  C   UNL     1       5.261   3.686  13.632  0.00  0.00    +0.000 A 
ATOM     21  C   UNL     1       5.884   3.421  12.422  0.00  0.00    +0.000 A 
ATOM     22  N   UNL     1       7.066   3.958  12.050  0.00  0.00    +0.000 NA
ATOM     23  C   UNL     1       7.645   4.805  12.926  0.00  0.00    +0.000 A 
ATOM     24  C   UNL     1       7.101   5.136  14.158  0.00  0.00    +0.000 A 
ENDBRANCH  18  19
ENDBRANCH  17  18
BRANCH  17  25
ATOM     25  C   UNL     1       7.324   4.942  17.256  0.00  0.00    +0.000 C 
BRANCH  25  26
ATOM     26  C   UNL     1       7.144   6.343  17.879  0.00  0.00    +0.000 C 
ATOM     27  C   UNL     1       7.384   7.459  16.865  0.00  0.00    +0.000 C 
ATOM     28  C   UNL     1       7.778   8.602  17.764  0.00  0.00    +0.000 C 
ATOM     29  C   UNL     1       8.615   7.897  18.813  0.00  0.00    +0.000 C 
ATOM     30  O   UNL     1       8.088   6.569  18.941  0.00  0.00    +0.000 OA
ENDBRANCH  25  26
ENDBRANCH  17  25
ENDBRANCH  16  17
ENDBRANCH   5  16
TORSDOF 7
ENDMDL
MODEL 8
REMARK VINA RESULT:      -8.0      1.120      1.827
REMARK  Name = 
REMARK  7 active torsions:
REMARK  status: ('A' for Active; 'I' for Inactive)
REMARK    1  A    between atoms: C_6  and  C_7
REMARK    2  A    between atoms: C_11  and  C_12
REMARK    3  A    between atoms: C_12  and  N_13
REMARK    4  A    between atoms: N_13  and  C_14
REMARK    5  A    between atoms: N_13  and  C_21
REMARK    6  A    between atoms: C_14  and  C_15
REMARK    7  A    between atoms: C_21  and  C_22
REMARK                            x       y       z     vdW  Elec       q    Type
REMARK                         _______ _______ _______ _____ _____    ______ ____
ROOT
ATOM      1  C   UNL     1       6.026   5.120  17.475  0.00  0.00    +0.000 A 
ATOM      2  N   UNL     1       6.873   4.452  18.272  0.00  0.00    +0.000 NA
ATOM      3  N   UNL     1       6.391   4.659  19.501  0.00  0.00    +0.000 N 
ATOM      4  C   UNL     1       5.258   5.409  19.514  0.00  0.00    +0.000 A 
ATOM      5  C   UNL     1       5.068   5.866  18.223  0.00  0.00    +0.000 A 
ATOM      6  H   UNL     1       6.872   4.229  20.284  0.00  0.00    +0.000 HD
ENDROOT
BRANCH   1  12
ATOM      7  C   UNL     1       7.261   4.146  11.632  0.00  0.00    +0.000 A 
ATOM      8  C   UNL     1       6.067   3.425  11.702  0.00  0.00    +0.000 A 
ATOM      9  C   UNL     1       5.307   3.387  12.880  0.00  0.00    +0.000 A 
ATOM     10  C   UNL     1       5.803   4.104  13.967  0.00  0.00    +0.000 A 
ATOM     11  O   UNL     1       5.263   4.142  15.223  0.00  0.00    +0.000 OA
ATOM     12  C   UNL     1       6.085   4.929  15.991  0.00  0.00    +0.000 A 
ATOM     13  C   UNL     1       7.102   5.437  15.198  0.00  0.00    +0.000 A 
ATOM     14  C   UNL     1       6.966   4.862  13.916  0.00  0.00    +0.000 A 
ATOM     15  C   UNL     1       7.723   4.878  12.733  0.00  0.00    +0.000 A 
ENDBRANCH   1  12
BRANCH   5  16
ATOM     16  C   UNL     1       4.027   6.791  17.673  0.00  0.00    +0.000 C 
BRANCH  16  17
ATOM     17  N   UNL     1       2.691   6.685  18.310  0.00  0.00    +0.000 NA
BRANCH  17  18
ATOM     18  C   UNL     1       1.812   7.835  17.992  0.00  0.00    +0.000 C 
BRANCH  18  19
ATOM     19  C   UNL     1       1.531   8.722  19.192  0.00  0.00    +0.000 A 
ATOM     20  C   UNL     1       1.655   8.232  20.497  0.00  0.00    +0.000 A 
ATOM     21  C   UNL     1       1.291   9.053  21.554  0.00  0.00    +0.000 A 
ATOM     22  N   UNL     1       0.829  10.313  21.404  0.00  0.00    +0.000 NA
ATOM     23  C   UNL     1       0.736  10.774  20.139  0.00  0.00    +0.000 A 
ATOM     24  C   UNL     1       1.078  10.033  19.018  0.00  0.00    +0.000 A 
ENDBRANCH  18  19
ENDBRANCH  17  18
BRANCH  17  25
ATOM     25  C   UNL     1       2.024   5.424  17.866  0.00  0.00    +0.000 C 
BRANCH  25  26
ATOM     26  C   UNL     1       1.654   4.399  18.960  0.00  0.00    +0.000 C 
ATOM     27  C   UNL     1       1.900   4.944  20.365  0.00  0.00    +0.000 C 
ATOM     28  C   UNL     1       2.093   3.672  21.151  0.00  0.00    +0.000 C 
ATOM     29  C   UNL     1       2.874   2.818  20.171  0.00  0.00    +0.000 C 
ATOM     30  O   UNL     1       2.456   3.209  18.856  0.00  0.00    +0.000 OA
ENDBRANCH  25  26
ENDBRANCH  17  25
ENDBRANCH  16  17
ENDBRANCH   5  16
TORSDOF 7
ENDMDL
MODEL 9
REMARK VINA RESULT:      -8.0      1.699      3.801
REMARK  Name = 
REMARK  7 active torsions:
REMARK  status: ('A' for Active; 'I' for Inactive)
REMARK    1  A    between atoms: C_6  and  C_7
REMARK    2  A    between atoms: C_11  and  C_12
REMARK    3  A    between atoms: C_12  and  N_13
REMARK    4  A    between atoms: N_13  and  C_14
REMARK    5  A    between atoms: N_13  and  C_21
REMARK    6  A    between atoms: C_14  and  C_15
REMARK    7  A    between atoms: C_21  and  C_22
REMARK                            x       y       z     vdW  Elec       q    Type
REMARK                         _______ _______ _______ _____ _____    ______ ____
ROOT
ATOM      1  C   UNL     1       6.825   5.387  17.385  0.00  0.00    +0.000 A 
ATOM      2  N   UNL     1       7.859   6.064  17.906  0.00  0.00    +0.000 NA
ATOM      3  N   UNL     1       7.586   6.113  19.213  0.00  0.00    +0.000 N 
ATOM      4  C   UNL     1       6.435   5.473  19.546  0.00  0.00    +0.000 A 
ATOM      5  C   UNL     1       5.820   5.116  18.361  0.00  0.00    +0.000 A 
ATOM      6  H   UNL     1       8.250   6.576  19.825  0.00  0.00    +0.000 HD
ENDROOT
BRANCH   1  12
ATOM      7  C   UNL     1       6.029   3.521  11.684  0.00  0.00    +0.000 A 
ATOM      8  C   UNL     1       7.096   4.393  11.457  0.00  0.00    +0.000 A 
ATOM      9  C   UNL     1       7.727   5.064  12.515  0.00  0.00    +0.000 A 
ATOM     10  C   UNL     1       7.235   4.813  13.795  0.00  0.00    +0.000 A 
ATOM     11  O   UNL     1       7.653   5.412  14.951  0.00  0.00    +0.000 OA
ATOM     12  C   UNL     1       6.881   4.906  15.968  0.00  0.00    +0.000 A 
ATOM     13  C   UNL     1       6.027   3.941  15.457  0.00  0.00    +0.000 A 
ATOM     14  C   UNL     1       6.202   3.922  14.056  0.00  0.00    +0.000 A 
ATOM     15  C   UNL     1       5.572   3.269  12.983  0.00  0.00    +0.000 A 
ENDBRANCH   1  12
BRANCH   5  16
ATOM     16  C   UNL     1       4.497   4.459  18.122  0.00  0.00    +0.000 C 
BRANCH  16  17
ATOM     17  N   UNL     1       3.453   5.339  17.540  0.00  0.00    +0.000 NA
BRANCH  17  18
ATOM     18  C   UNL     1       2.081   4.829  17.768  0.00  0.00    +0.000 C 
BRANCH  18  19
ATOM     19  C   UNL     1       1.964   3.964  19.011  0.00  0.00    +0.000 A 
ATOM     20  C   UNL     1       1.644   2.605  18.918  0.00  0.00    +0.000 A 
ATOM     21  C   UNL     1       1.452   1.884  20.087  0.00  0.00    +0.000 A 
ATOM     22  N   UNL     1       1.566   2.413  21.325  0.00  0.00    +0.000 NA
ATOM     23  C   UNL     1       1.895   3.720  21.394  0.00  0.00    +0.000 A 
ATOM     24  C   UNL     1       2.109   4.524  20.284  0.00  0.00    +0.000 A 
ENDBRANCH  18  19
ENDBRANCH  17  18
BRANCH  17  25
ATOM     25  C   UNL     1       3.568   6.708  18.128  0.00  0.00    +0.000 C 
BRANCH  25  26
ATOM     26  C   UNL     1       2.269   7.532  18.255  0.00  0.00    +0.000 C 
ATOM     27  C   UNL     1       2.394   8.907  17.601  0.00  0.00    +0.000 C 
ATOM     28  C   UNL     1       1.360   9.696  18.361  0.00  0.00    +0.000 C 
ATOM     29  C   UNL     1       1.522   9.149  19.766  0.00  0.00    +0.000 C 
ATOM     30  O   UNL     1       1.939   7.783  19.633  0.00  0.00    +0.000 OA
ENDBRANCH  25  26
ENDBRANCH  17  25
ENDBRANCH  16  17
ENDBRANCH   5  16
TORSDOF 7
ENDMDL
