MODEL 1
REMARK VINA RESULT:      -6.9      0.000      0.000
REMARK  Name = 
REMARK  2 active torsions:
REMARK  status: ('A' for Active; 'I' for Inactive)
REMARK    1  A    between atoms: C_1  and  S_2
REMARK    2  A    between atoms: S_2  and  N_5
REMARK                            x       y       z     vdW  Elec       q    Type
REMARK                         _______ _______ _______ _____ _____    ______ ____
ROOT
ATOM      1  N   UNL     1       3.447   3.756  19.944  0.00  0.00    +0.000 NA
ATOM      2  C   UNL     1       3.640   2.691  18.898  0.00  0.00    +0.000 C 
ATOM      3  C   UNL     1       3.550   3.255  17.468  0.00  0.00    +0.000 C 
ATOM      4  N   UNL     1       4.548   4.324  17.325  0.00  0.00    +0.000 N 
ATOM      5  C   UNL     1       5.233   4.460  16.150  0.00  0.00    +0.000 A 
ATOM      6  N   UNL     1       5.037   3.702  15.092  0.00  0.00    +0.000 NA
ATOM      7  C   UNL     1       5.918   4.027  14.070  0.00  0.00    +0.000 A 
ATOM      8  C   UNL     1       5.979   3.432  12.791  0.00  0.00    +0.000 A 
ATOM      9  C   UNL     1       6.937   3.862  11.863  0.00  0.00    +0.000 A 
ATOM     10  C   UNL     1       7.839   4.869  12.197  0.00  0.00    +0.000 A 
ATOM     11  C   UNL     1       7.799   5.473  13.454  0.00  0.00    +0.000 A 
ATOM     12  C   UNL     1       6.825   5.038  14.370  0.00  0.00    +0.000 A 
ATOM     13  S   UNL     1       6.528   5.595  15.960  0.00  0.00    +0.000 S 
ATOM     14  C   UNL     1       4.358   5.435  18.265  0.00  0.00    +0.000 C 
ATOM     15  C   UNL     1       4.380   4.912  19.717  0.00  0.00    +0.000 C 
ENDROOT
BRANCH   1  17
ATOM     16  C   UNL     1       1.473   2.909  21.568  0.00  0.00    +0.000 C 
ATOM     17  S   UNL     1       1.841   4.134  20.326  0.00  0.00    +0.000 S 
ATOM     18  O   UNL     1       1.020   3.838  19.173  0.00  0.00    +0.000 OA
ATOM     19  O   UNL     1       1.824   5.440  20.946  0.00  0.00    +0.000 OA
ENDBRANCH   1  17
TORSDOF 1
ENDMDL
MODEL 2
REMARK VINA RESULT:      -6.8      4.939      6.262
REMARK  Name = 
REMARK  2 active torsions:
REMARK  status: ('A' for Active; 'I' for Inactive)
REMARK    1  A    between atoms: C_1  and  S_2
REMARK    2  A    between atoms: S_2  and  N_5
REMARK                            x       y       z     vdW  Elec       q    Type
REMARK                         _______ _______ _______ _____ _____    ______ ____
ROOT
ATOM      1  N   UNL     1      -0.464   9.863  20.816  0.00  0.00    +0.000 NA
ATOM      2  C   UNL     1      -0.057   9.985  19.372  0.00  0.00    +0.000 C 
ATOM      3  C   UNL     1       1.426   9.631  19.153  0.00  0.00    +0.000 C 
ATOM      4  N   UNL     1       1.660   8.270  19.655  0.00  0.00    +0.000 N 
ATOM      5  C   UNL     1       2.504   7.434  18.982  0.00  0.00    +0.000 A 
ATOM      6  N   UNL     1       3.170   7.775  17.898  0.00  0.00    +0.000 NA
ATOM      7  C   UNL     1       3.896   6.705  17.395  0.00  0.00    +0.000 A 
ATOM      8  C   UNL     1       4.734   6.718  16.259  0.00  0.00    +0.000 A 
ATOM      9  C   UNL     1       5.397   5.547  15.865  0.00  0.00    +0.000 A 
ATOM     10  C   UNL     1       5.229   4.366  16.582  0.00  0.00    +0.000 A 
ATOM     11  C   UNL     1       4.406   4.329  17.709  0.00  0.00    +0.000 A 
ATOM     12  C   UNL     1       3.756   5.513  18.098  0.00  0.00    +0.000 A 
ATOM     13  S   UNL     1       2.711   5.772  19.427  0.00  0.00    +0.000 S 
ATOM     14  C   UNL     1       1.362   8.113  21.084  0.00  0.00    +0.000 C 
ATOM     15  C   UNL     1      -0.102   8.514  21.368  0.00  0.00    +0.000 C 
ENDROOT
BRANCH   1  17
ATOM     16  C   UNL     1      -1.387  12.352  21.270  0.00  0.00    +0.000 C 
ATOM     17  S   UNL     1      -0.126  11.205  21.794  0.00  0.00    +0.000 S 
ATOM     18  O   UNL     1       1.149  11.751  21.388  0.00  0.00    +0.000 OA
ATOM     19  O   UNL     1      -0.383  10.833  23.167  0.00  0.00    +0.000 OA
ENDBRANCH   1  17
TORSDOF 1
ENDMDL
MODEL 3
REMARK VINA RESULT:      -6.6      1.065      1.267
REMARK  Name = 
REMARK  2 active torsions:
REMARK  status: ('A' for Active; 'I' for Inactive)
REMARK    1  A    between atoms: C_1  and  S_2
REMARK    2  A    between atoms: S_2  and  N_5
REMARK                            x       y       z     vdW  Elec       q    Type
REMARK                         _______ _______ _______ _____ _____    ______ ____
ROOT
ATOM      1  N   UNL     1       3.619   2.817  20.118  0.00  0.00    +0.000 NA
ATOM      2  C   UNL     1       3.774   1.917  18.922  0.00  0.00    +0.000 C 
ATOM      3  C   UNL     1       3.641   2.685  17.593  0.00  0.00    +0.000 C 
ATOM      4  N   UNL     1       4.640   3.763  17.577  0.00  0.00    +0.000 N 
ATOM      5  C   UNL     1       5.288   4.071  16.414  0.00  0.00    +0.000 A 
ATOM      6  N   UNL     1       5.055   3.476  15.262  0.00  0.00    +0.000 NA
ATOM      7  C   UNL     1       5.905   3.948  14.271  0.00  0.00    +0.000 A 
ATOM      8  C   UNL     1       5.924   3.546  12.918  0.00  0.00    +0.000 A 
ATOM      9  C   UNL     1       6.854   4.108  12.033  0.00  0.00    +0.000 A 
ATOM     10  C   UNL     1       7.771   5.055  12.482  0.00  0.00    +0.000 A 
ATOM     11  C   UNL     1       7.773   5.468  13.815  0.00  0.00    +0.000 A 
ATOM     12  C   UNL     1       6.826   4.903  14.688  0.00  0.00    +0.000 A 
ATOM     13  S   UNL     1       6.581   5.221  16.351  0.00  0.00    +0.000 S 
ATOM     14  C   UNL     1       4.484   4.724  18.675  0.00  0.00    +0.000 C 
ATOM     15  C   UNL     1       4.549   3.994  20.033  0.00  0.00    +0.000 C 
ENDROOT
BRANCH   1  17
ATOM     16  C   UNL     1       2.059   4.909  20.782  0.00  0.00    +0.000 C 
ATOM     17  S   UNL     1       2.027   3.136  20.602  0.00  0.00    +0.000 S 
ATOM     18  O   UNL     1       1.833   2.573  21.919  0.00  0.00    +0.000 OA
ATOM     19  O   UNL     1       1.150   2.799  19.503  0.00  0.00    +0.000 OA
ENDBRANCH   1  17
TORSDOF 1
ENDMDL
MODEL 4
REMARK VINA RESULT:      -6.5      4.968      8.177
REMARK  Name = 
REMARK  2 active torsions:
REMARK  status: ('A' for Active; 'I' for Inactive)
REMARK    1  A    between atoms: C_1  and  S_2
REMARK    2  A    between atoms: S_2  and  N_5
REMARK                            x       y       z     vdW  Elec       q    Type
REMARK                         _______ _______ _______ _____ _____    ______ ____
ROOT
ATOM      1  N   UNL     1       2.514   3.966  18.711  0.00  0.00    +0.000 NA
ATOM      2  C   UNL     1       1.400   4.126  19.710  0.00  0.00    +0.000 C 
ATOM      3  C   UNL     1       1.669   5.267  20.709  0.00  0.00    +0.000 C 
ATOM      4  N   UNL     1       1.883   6.508  19.952  0.00  0.00    +0.000 N 
ATOM      5  C   UNL     1       1.393   7.689  20.433  0.00  0.00    +0.000 A 
ATOM      6  N   UNL     1       0.749   7.808  21.576  0.00  0.00    +0.000 NA
ATOM      7  C   UNL     1       0.313   9.111  21.774  0.00  0.00    +0.000 A 
ATOM      8  C   UNL     1      -0.392   9.600  22.895  0.00  0.00    +0.000 A 
ATOM      9  C   UNL     1      -0.779  10.946  22.947  0.00  0.00    +0.000 A 
ATOM     10  C   UNL     1      -0.480  11.806  21.894  0.00  0.00    +0.000 A 
ATOM     11  C   UNL     1       0.216  11.346  20.775  0.00  0.00    +0.000 A 
ATOM     12  C   UNL     1       0.606   9.996  20.742  0.00  0.00    +0.000 A 
ATOM     13  S   UNL     1       1.472   9.162  19.525  0.00  0.00    +0.000 S 
ATOM     14  C   UNL     1       3.016   6.441  19.022  0.00  0.00    +0.000 C 
ATOM     15  C   UNL     1       2.823   5.271  18.033  0.00  0.00    +0.000 C 
ENDROOT
BRANCH   1  17
ATOM     16  C   UNL     1       3.651   1.574  18.226  0.00  0.00    +0.000 C 
ATOM     17  S   UNL     1       3.838   3.040  19.223  0.00  0.00    +0.000 S 
ATOM     18  O   UNL     1       3.616   2.657  20.599  0.00  0.00    +0.000 OA
ATOM     19  O   UNL     1       5.045   3.724  18.818  0.00  0.00    +0.000 OA
ENDBRANCH   1  17
TORSDOF 1
ENDMDL
MODEL 5
REMARK VINA RESULT:      -6.5      5.235      8.468
REMARK  Name = 
REMARK  2 active torsions:
REMARK  status: ('A' for Active; 'I' for Inactive)
REMARK    1  A    between atoms: C_1  and  S_2
REMARK    2  A    between atoms: S_2  and  N_5
REMARK                            x       y       z     vdW  Elec       q    Type
REMARK                         _______ _______ _______ _____ _____    ______ ____
ROOT
ATOM      1  N   UNL     1       3.261   4.733  18.625  0.00  0.00    +0.000 NA
ATOM      2  C   UNL     1       2.337   4.687  19.813  0.00  0.00    +0.000 C 
ATOM      3  C   UNL     1       2.431   5.960  20.675  0.00  0.00    +0.000 C 
ATOM      4  N   UNL     1       2.139   7.122  19.824  0.00  0.00    +0.000 N 
ATOM      5  C   UNL     1       1.417   8.167  20.325  0.00  0.00    +0.000 A 
ATOM      6  N   UNL     1       0.973   8.228  21.564  0.00  0.00    +0.000 NA
ATOM      7  C   UNL     1       0.217   9.373  21.772  0.00  0.00    +0.000 A 
ATOM      8  C   UNL     1      -0.396   9.768  22.981  0.00  0.00    +0.000 A 
ATOM      9  C   UNL     1      -1.142  10.953  23.033  0.00  0.00    +0.000 A 
ATOM     10  C   UNL     1      -1.293  11.742  21.896  0.00  0.00    +0.000 A 
ATOM     11  C   UNL     1      -0.697  11.372  20.690  0.00  0.00    +0.000 A 
ATOM     12  C   UNL     1       0.058  10.187  20.656  0.00  0.00    +0.000 A 
ATOM     13  S   UNL     1       0.906   9.497  19.340  0.00  0.00    +0.000 S 
ATOM     14  C   UNL     1       3.065   7.268  18.694  0.00  0.00    +0.000 C 
ATOM     15  C   UNL     1       3.054   5.990  17.829  0.00  0.00    +0.000 C 
ENDROOT
BRANCH   1  17
ATOM     16  C   UNL     1       5.504   4.143  17.259  0.00  0.00    +0.000 C 
ATOM     17  S   UNL     1       4.864   4.270  18.918  0.00  0.00    +0.000 S 
ATOM     18  O   UNL     1       4.854   2.937  19.478  0.00  0.00    +0.000 OA
ATOM     19  O   UNL     1       5.530   5.363  19.588  0.00  0.00    +0.000 OA
ENDBRANCH   1  17
TORSDOF 1
ENDMDL
MODEL 6
REMARK VINA RESULT:      -6.4      4.741      7.416
REMARK  Name = 
REMARK  2 active torsions:
REMARK  status: ('A' for Active; 'I' for Inactive)
REMARK    1  A    between atoms: C_1  and  S_2
REMARK    2  A    between atoms: S_2  and  N_5
REMARK                            x       y       z     vdW  Elec       q    Type
REMARK                         _______ _______ _______ _____ _____    ______ ____
ROOT
ATOM      1  N   UNL     1       2.657   3.653  18.912  0.00  0.00    +0.000 NA
ATOM      2  C   UNL     1       1.625   4.173  19.877  0.00  0.00    +0.000 C 
ATOM      3  C   UNL     1       2.024   5.532  20.481  0.00  0.00    +0.000 C 
ATOM      4  N   UNL     1       2.248   6.483  19.383  0.00  0.00    +0.000 N 
ATOM      5  C   UNL     1       1.856   7.784  19.521  0.00  0.00    +0.000 A 
ATOM      6  N   UNL     1       1.302   8.274  20.611  0.00  0.00    +0.000 NA
ATOM      7  C   UNL     1       0.949   9.606  20.440  0.00  0.00    +0.000 A 
ATOM      8  C   UNL     1       0.351  10.447  21.404  0.00  0.00    +0.000 A 
ATOM      9  C   UNL     1       0.041  11.774  21.078  0.00  0.00    +0.000 A 
ATOM     10  C   UNL     1       0.309  12.269  19.805  0.00  0.00    +0.000 A 
ATOM     11  C   UNL     1       0.899  11.457  18.835  0.00  0.00    +0.000 A 
ATOM     12  C   UNL     1       1.215  10.131  19.180  0.00  0.00    +0.000 A 
ATOM     13  S   UNL     1       1.948   8.922  18.218  0.00  0.00    +0.000 S 
ATOM     14  C   UNL     1       3.308   6.069  18.456  0.00  0.00    +0.000 C 
ATOM     15  C   UNL     1       2.985   4.680  17.866  0.00  0.00    +0.000 C 
ENDROOT
BRANCH   1  17
ATOM     16  C   UNL     1       3.963   1.312  18.658  0.00  0.00    +0.000 C 
ATOM     17  S   UNL     1       3.963   2.824  19.604  0.00  0.00    +0.000 S 
ATOM     18  O   UNL     1       3.612   2.481  20.964  0.00  0.00    +0.000 OA
ATOM     19  O   UNL     1       5.170   3.559  19.300  0.00  0.00    +0.000 OA
ENDBRANCH   1  17
TORSDOF 1
ENDMDL
MODEL 7
REMARK VINA RESULT:      -6.4      5.258      8.454
REMARK  Name = 
REMARK  2 active torsions:
REMARK  status: ('A' for Active; 'I' for Inactive)
REMARK    1  A    between atoms: C_1  and  S_2
REMARK    2  A    between atoms: S_2  and  N_5
REMARK                            x       y       z     vdW  Elec       q    Type
REMARK                         _______ _______ _______ _____ _____    ______ ____
ROOT
ATOM      1  N   UNL     1       3.094   4.782  18.366  0.00  0.00    +0.000 NA
ATOM      2  C   UNL     1       2.147   4.697  19.533  0.00  0.00    +0.000 C 
ATOM      3  C   UNL     1       2.288   5.898  20.488  0.00  0.00    +0.000 C 
ATOM      4  N   UNL     1       2.070   7.132  19.720  0.00  0.00    +0.000 N 
ATOM      5  C   UNL     1       1.392   8.173  20.286  0.00  0.00    +0.000 A 
ATOM      6  N   UNL     1       0.929   8.166  21.519  0.00  0.00    +0.000 NA
ATOM      7  C   UNL     1       0.227   9.330  21.799  0.00  0.00    +0.000 A 
ATOM      8  C   UNL     1      -0.388   9.667  23.025  0.00  0.00    +0.000 A 
ATOM      9  C   UNL     1      -1.076  10.882  23.153  0.00  0.00    +0.000 A 
ATOM     10  C   UNL     1      -1.167  11.758  22.075  0.00  0.00    +0.000 A 
ATOM     11  C   UNL     1      -0.568  11.447  20.853  0.00  0.00    +0.000 A 
ATOM     12  C   UNL     1       0.128  10.230  20.743  0.00  0.00    +0.000 A 
ATOM     13  S   UNL     1       0.965   9.595  19.394  0.00  0.00    +0.000 S 
ATOM     14  C   UNL     1       3.023   7.313  18.618  0.00  0.00    +0.000 C 
ATOM     15  C   UNL     1       2.964   6.103  17.661  0.00  0.00    +0.000 C 
ENDROOT
BRANCH   1  17
ATOM     16  C   UNL     1       4.352   2.786  19.662  0.00  0.00    +0.000 C 
ATOM     17  S   UNL     1       4.666   4.218  18.648  0.00  0.00    +0.000 S 
ATOM     18  O   UNL     1       5.354   5.187  19.471  0.00  0.00    +0.000 OA
ATOM     19  O   UNL     1       5.216   3.778  17.385  0.00  0.00    +0.000 OA
ENDBRANCH   1  17
TORSDOF 1
ENDMDL
MODEL 8
REMARK VINA RESULT:      -6.2      4.870      6.845
REMARK  Name = 
REMARK  2 active torsions:
REMARK  status: ('A' for Active; 'I' for Inactive)
REMARK    1  A    between atoms: C_1  and  S_2
REMARK    2  A    between atoms: S_2  and  N_5
REMARK                            x       y       z     vdW  Elec       q    Type
REMARK                         _______ _______ _______ _____ _____    ______ ____
ROOT
ATOM      1  N   UNL     1       0.260  10.471  19.524  0.00  0.00    +0.000 NA
ATOM      2  C   UNL     1       0.589   9.780  18.228  0.00  0.00    +0.000 C 
ATOM      3  C   UNL     1       1.868   8.927  18.330  0.00  0.00    +0.000 C 
ATOM      4  N   UNL     1       1.694   7.955  19.418  0.00  0.00    +0.000 N 
ATOM      5  C   UNL     1       2.186   6.688  19.282  0.00  0.00    +0.000 A 
ATOM      6  N   UNL     1       2.853   6.266  18.227  0.00  0.00    +0.000 NA
ATOM      7  C   UNL     1       3.171   4.920  18.337  0.00  0.00    +0.000 A 
ATOM      8  C   UNL     1       3.894   4.148  17.403  0.00  0.00    +0.000 A 
ATOM      9  C   UNL     1       4.128   2.788  17.650  0.00  0.00    +0.000 A 
ATOM     10  C   UNL     1       3.643   2.188  18.809  0.00  0.00    +0.000 A 
ATOM     11  C   UNL     1       2.926   2.931  19.748  0.00  0.00    +0.000 A 
ATOM     12  C   UNL     1       2.709   4.296  19.491  0.00  0.00    +0.000 A 
ATOM     13  S   UNL     1       1.888   5.447  20.454  0.00  0.00    +0.000 S 
ATOM     14  C   UNL     1       1.456   8.575  20.727  0.00  0.00    +0.000 C 
ATOM     15  C   UNL     1       0.215   9.491  20.662  0.00  0.00    +0.000 C 
ENDROOT
BRANCH   1  17
ATOM     16  C   UNL     1      -0.246  13.115  19.557  0.00  0.00    +0.000 C 
ATOM     17  S   UNL     1       1.066  11.934  19.806  0.00  0.00    +0.000 S 
ATOM     18  O   UNL     1       2.030  12.131  18.747  0.00  0.00    +0.000 OA
ATOM     19  O   UNL     1       1.459  11.966  21.197  0.00  0.00    +0.000 OA
ENDBRANCH   1  17
TORSDOF 1
ENDMDL
MODEL 9
REMARK VINA RESULT:      -6.2      4.613      7.664
REMARK  Name = 
REMARK  2 active torsions:
REMARK  status: ('A' for Active; 'I' for Inactive)
REMARK    1  A    between atoms: C_1  and  S_2
REMARK    2  A    between atoms: S_2  and  N_5
REMARK                            x       y       z     vdW  Elec       q    Type
REMARK                         _______ _______ _______ _____ _____    ______ ____
ROOT
ATOM      1  N   UNL     1       5.396   4.909  16.906  0.00  0.00    +0.000 NA
ATOM      2  C   UNL     1       4.502   4.562  18.066  0.00  0.00    +0.000 C 
ATOM      3  C   UNL     1       4.268   5.763  19.002  0.00  0.00    +0.000 C 
ATOM      4  N   UNL     1       3.706   6.868  18.212  0.00  0.00    +0.000 N 
ATOM      5  C   UNL     1       2.742   7.669  18.755  0.00  0.00    +0.000 A 
ATOM      6  N   UNL     1       2.285   7.541  19.984  0.00  0.00    +0.000 NA
ATOM      7  C   UNL     1       1.267   8.449  20.239  0.00  0.00    +0.000 A 
ATOM      8  C   UNL     1       0.563   8.604  21.453  0.00  0.00    +0.000 A 
ATOM      9  C   UNL     1      -0.455   9.562  21.555  0.00  0.00    +0.000 A 
ATOM     10  C   UNL     1      -0.786  10.359  20.462  0.00  0.00    +0.000 A 
ATOM     11  C   UNL     1      -0.105  10.223  19.251  0.00  0.00    +0.000 A 
ATOM     12  C   UNL     1       0.921   9.266  19.168  0.00  0.00    +0.000 A 
ATOM     13  S   UNL     1       1.927   8.889  17.836  0.00  0.00    +0.000 S 
ATOM     14  C   UNL     1       4.577   7.308  17.116  0.00  0.00    +0.000 C 
ATOM     15  C   UNL     1       4.892   6.123  16.178  0.00  0.00    +0.000 C 
ENDROOT
BRANCH   1  17
ATOM     16  C   UNL     1       7.473   6.570  17.335  0.00  0.00    +0.000 C 
ATOM     17  S   UNL     1       7.061   4.839  17.211  0.00  0.00    +0.000 S 
ATOM     18  O   UNL     1       7.717   4.324  16.030  0.00  0.00    +0.000 OA
ATOM     19  O   UNL     1       7.253   4.225  18.506  0.00  0.00    +0.000 OA
ENDBRANCH   1  17
TORSDOF 1
ENDMDL
