MODEL 1
REMARK VINA RESULT:      -7.5      0.000      0.000
REMARK  Name = 
REMARK  12 active torsions:
REMARK  status: ('A' for Active; 'I' for Inactive)
REMARK    1  A    between atoms: CG1_1  and  CB_2
REMARK    2  A    between atoms: CB_2  and  CG2_3
REMARK    3  A    between atoms: CB_2  and  CA_4
REMARK    4  A    between atoms: CA_4  and  C_5
REMARK    5  A    between atoms: CA_4  and  N_7
REMARK    6  A    between atoms: C_5  and  O_6
REMARK    7  A    between atoms: N_7  and  C_8
REMARK    8  A    between atoms: C_8  and  C_9
REMARK    9  A    between atoms: C_11  and  C_12
REMARK   10  A    between atoms: C_15  and  O_16
REMARK   11  A    between atoms: O_16  and  C_17
REMARK   12  A    between atoms: C_17  and  C_18
REMARK                            x       y       z     vdW  Elec       q    Type
REMARK                         _______ _______ _______ _____ _____    ______ ____
ROOT
ATOM      1  C   UNK A   0       4.165   4.298  17.086  0.00  0.00    +0.000 A 
ATOM      2  N   UNK A   0       3.397   5.224  17.734  0.00  0.00    +0.000 NA
ATOM      3  C   UNK A   0       3.640   6.545  17.514  0.00  0.00    +0.000 A 
ATOM      4  C   UNK A   0       4.657   6.964  16.655  0.00  0.00    +0.000 A 
ATOM      5  C   UNK A   0       5.435   6.008  16.002  0.00  0.00    +0.000 A 
ATOM      6  C   UNK A   0       5.187   4.662  16.221  0.00  0.00    +0.000 A 
ATOM      7  F   UNK A   0       5.921   3.743  15.582  0.00  0.00    +0.000 F 
ENDROOT
BRANCH   3   8
ATOM      8  C   UNK A   0       2.775   7.471  18.248  0.00  0.00    +0.000 A 
ATOM      9  C   UNK A   0       2.296   8.642  17.685  0.00  0.00    +0.000 A 
ATOM     10  N   UNK A   0       1.507   9.541  18.315  0.00  0.00    +0.000 NA
ATOM     11  C   UNK A   0       1.180   9.247  19.575  0.00  0.00    +0.000 A 
ATOM     12  N   UNK A   0       1.564   8.148  20.243  0.00  0.00    +0.000 NA
ATOM     13  C   UNK A   0       2.363   7.294  19.558  0.00  0.00    +0.000 A 
BRANCH  11  14
ATOM     14  O   UNK A   0       0.398  10.185  20.207  0.00  0.00    +0.000 OA
BRANCH  14  15
ATOM     15  C   UNK A   0       0.066  11.294  19.367  0.00  0.00    +0.000 C 
BRANCH  15  16
ATOM     16  C   UNK A   0      -1.406  11.375  18.972  0.00  0.00    +0.000 C 
ATOM     17  F   UNK A   0      -1.637  12.197  17.927  0.00  0.00    +0.000 F 
ATOM     18  F   UNK A   0      -1.862  10.147  18.616  0.00  0.00    +0.000 F 
ATOM     19  F   UNK A   0      -2.175  11.789  20.007  0.00  0.00    +0.000 F 
ENDBRANCH  15  16
ENDBRANCH  14  15
ENDBRANCH  11  14
ENDBRANCH   3   8
BRANCH   1  20
ATOM     20  C   UNK A   0       3.867   2.832  17.349  0.00  0.00    +0.000 C 
BRANCH  20  21
ATOM     21  N   VAL A   1       2.630   2.563  18.107  0.00  0.00    +0.000 NA
ATOM     22  H   VAL A   1       2.078   3.419  18.135  0.00  0.00    +0.000 HD
BRANCH  21  23
ATOM     23  CA  VAL A   1       2.845   2.083  19.488  0.00  0.00    +0.000 C 
BRANCH  23  25
ATOM     24  CG1 VAL A   1       0.850   3.669  19.835  0.00  0.00    +0.000 C 
ATOM     25  CB  VAL A   1       1.659   2.501  20.418  0.00  0.00    +0.000 C 
ATOM     26  CG2 VAL A   1       2.060   2.832  21.858  0.00  0.00    +0.000 C 
ENDBRANCH  23  25
BRANCH  23  27
ATOM     27  C   VAL A   1       4.217   2.511  20.074  0.00  0.00    +0.000 C 
BRANCH  27  28
ATOM     28  O   VAL A   1       5.145   1.428  20.108  0.00  0.00    +0.000 OA
ATOM     29  H   VAL A   1       6.019   1.793  19.886  0.00  0.00    +0.000 HD
ENDBRANCH  27  28
ENDBRANCH  23  27
ENDBRANCH  21  23
ENDBRANCH  20  21
ENDBRANCH   1  20
TORSDOF 10
ENDMDL
MODEL 2
REMARK VINA RESULT:      -7.3      0.633      1.331
REMARK  Name = 
REMARK  12 active torsions:
REMARK  status: ('A' for Active; 'I' for Inactive)
REMARK    1  A    between atoms: CG1_1  and  CB_2
REMARK    2  A    between atoms: CB_2  and  CG2_3
REMARK    3  A    between atoms: CB_2  and  CA_4
REMARK    4  A    between atoms: CA_4  and  C_5
REMARK    5  A    between atoms: CA_4  and  N_7
REMARK    6  A    between atoms: C_5  and  O_6
REMARK    7  A    between atoms: N_7  and  C_8
REMARK    8  A    between atoms: C_8  and  C_9
REMARK    9  A    between atoms: C_11  and  C_12
REMARK   10  A    between atoms: C_15  and  O_16
REMARK   11  A    between atoms: O_16  and  C_17
REMARK   12  A    between atoms: C_17  and  C_18
REMARK                            x       y       z     vdW  Elec       q    Type
REMARK                         _______ _______ _______ _____ _____    ______ ____
ROOT
ATOM      1  C   UNK A   0       4.214   4.276  17.054  0.00  0.00    +0.000 A 
ATOM      2  N   UNK A   0       3.445   5.202  17.700  0.00  0.00    +0.000 NA
ATOM      3  C   UNK A   0       3.687   6.522  17.476  0.00  0.00    +0.000 A 
ATOM      4  C   UNK A   0       4.701   6.940  16.614  0.00  0.00    +0.000 A 
ATOM      5  C   UNK A   0       5.480   5.984  15.963  0.00  0.00    +0.000 A 
ATOM      6  C   UNK A   0       5.234   4.638  16.187  0.00  0.00    +0.000 A 
ATOM      7  F   UNK A   0       5.969   3.718  15.549  0.00  0.00    +0.000 F 
ENDROOT
BRANCH   3   8
ATOM      8  C   UNK A   0       2.821   7.449  18.209  0.00  0.00    +0.000 A 
ATOM      9  C   UNK A   0       2.424   7.217  19.515  0.00  0.00    +0.000 A 
ATOM     10  N   UNK A   0       1.617   8.026  20.237  0.00  0.00    +0.000 NA
ATOM     11  C   UNK A   0       1.189   9.127  19.615  0.00  0.00    +0.000 A 
ATOM     12  N   UNK A   0       1.499   9.482  18.359  0.00  0.00    +0.000 NA
ATOM     13  C   UNK A   0       2.301   8.622  17.687  0.00  0.00    +0.000 A 
BRANCH  11  14
ATOM     14  O   UNK A   0       0.349   9.925  20.357  0.00  0.00    +0.000 OA
BRANCH  14  15
ATOM     15  C   UNK A   0      -0.764  10.416  19.607  0.00  0.00    +0.000 C 
BRANCH  15  16
ATOM     16  C   UNK A   0      -1.222  11.821  19.991  0.00  0.00    +0.000 C 
ATOM     17  F   UNK A   0      -1.573  11.936  21.290  0.00  0.00    +0.000 F 
ATOM     18  F   UNK A   0      -0.222  12.713  19.773  0.00  0.00    +0.000 F 
ATOM     19  F   UNK A   0      -2.271  12.224  19.237  0.00  0.00    +0.000 F 
ENDBRANCH  15  16
ENDBRANCH  14  15
ENDBRANCH  11  14
ENDBRANCH   3   8
BRANCH   1  20
ATOM     20  C   UNK A   0       3.918   2.810  17.322  0.00  0.00    +0.000 C 
BRANCH  20  21
ATOM     21  N   VAL A   1       2.679   2.541  18.075  0.00  0.00    +0.000 NA
ATOM     22  H   VAL A   1       2.128   3.398  18.105  0.00  0.00    +0.000 HD
BRANCH  21  23
ATOM     23  CA  VAL A   1       2.888   2.055  19.456  0.00  0.00    +0.000 C 
BRANCH  23  25
ATOM     24  CG1 VAL A   1       0.860   3.610  19.753  0.00  0.00    +0.000 C 
ATOM     25  CB  VAL A   1       1.725   2.514  20.394  0.00  0.00    +0.000 C 
ATOM     26  CG2 VAL A   1       2.167   2.970  21.787  0.00  0.00    +0.000 C 
ENDBRANCH  23  25
BRANCH  23  27
ATOM     27  C   VAL A   1       4.279   2.439  20.030  0.00  0.00    +0.000 C 
BRANCH  27  28
ATOM     28  O   VAL A   1       5.173   1.327  20.052  0.00  0.00    +0.000 OA
ATOM     29  H   VAL A   1       5.293   1.039  19.130  0.00  0.00    +0.000 HD
ENDBRANCH  27  28
ENDBRANCH  23  27
ENDBRANCH  21  23
ENDBRANCH  20  21
ENDBRANCH   1  20
TORSDOF 10
ENDMDL
MODEL 3
REMARK VINA RESULT:      -7.3      1.357      1.626
REMARK  Name = 
REMARK  12 active torsions:
REMARK  status: ('A' for Active; 'I' for Inactive)
REMARK    1  A    between atoms: CG1_1  and  CB_2
REMARK    2  A    between atoms: CB_2  and  CG2_3
REMARK    3  A    between atoms: CB_2  and  CA_4
REMARK    4  A    between atoms: CA_4  and  C_5
REMARK    5  A    between atoms: CA_4  and  N_7
REMARK    6  A    between atoms: C_5  and  O_6
REMARK    7  A    between atoms: N_7  and  C_8
REMARK    8  A    between atoms: C_8  and  C_9
REMARK    9  A    between atoms: C_11  and  C_12
REMARK   10  A    between atoms: C_15  and  O_16
REMARK   11  A    between atoms: O_16  and  C_17
REMARK   12  A    between atoms: C_17  and  C_18
REMARK                            x       y       z     vdW  Elec       q    Type
REMARK                         _______ _______ _______ _____ _____    ______ ____
ROOT
ATOM      1  C   UNK A   0       3.800   4.594  17.229  0.00  0.00    +0.000 A 
ATOM      2  N   UNK A   0       2.998   5.530  17.817  0.00  0.00    +0.000 NA
ATOM      3  C   UNK A   0       3.382   6.834  17.785  0.00  0.00    +0.000 A 
ATOM      4  C   UNK A   0       4.575   7.226  17.176  0.00  0.00    +0.000 A 
ATOM      5  C   UNK A   0       5.387   6.260  16.582  0.00  0.00    +0.000 A 
ATOM      6  C   UNK A   0       4.995   4.931  16.610  0.00  0.00    +0.000 A 
ATOM      7  F   UNK A   0       5.764   4.004  16.024  0.00  0.00    +0.000 F 
ENDROOT
BRANCH   3   8
ATOM      8  C   UNK A   0       2.467   7.772  18.440  0.00  0.00    +0.000 A 
ATOM      9  C   UNK A   0       1.934   8.869  17.783  0.00  0.00    +0.000 A 
ATOM     10  N   UNK A   0       1.098   9.775  18.336  0.00  0.00    +0.000 NA
ATOM     11  C   UNK A   0       0.779   9.568  19.616  0.00  0.00    +0.000 A 
ATOM     12  N   UNK A   0       1.213   8.547  20.371  0.00  0.00    +0.000 NA
ATOM     13  C   UNK A   0       2.057   7.682  19.759  0.00  0.00    +0.000 A 
BRANCH  11  14
ATOM     14  O   UNK A   0      -0.053  10.514  20.168  0.00  0.00    +0.000 OA
BRANCH  14  15
ATOM     15  C   UNK A   0       0.269  10.817  21.528  0.00  0.00    +0.000 C 
BRANCH  15  16
ATOM     16  C   UNK A   0      -0.925  11.210  22.393  0.00  0.00    +0.000 C 
ATOM     17  F   UNK A   0      -2.045  11.461  21.681  0.00  0.00    +0.000 F 
ATOM     18  F   UNK A   0      -1.225  10.208  23.258  0.00  0.00    +0.000 F 
ATOM     19  F   UNK A   0      -0.655  12.303  23.145  0.00  0.00    +0.000 F 
ENDBRANCH  15  16
ENDBRANCH  14  15
ENDBRANCH  11  14
ENDBRANCH   3   8
BRANCH   1  20
ATOM     20  C   UNK A   0       3.342   3.146  17.278  0.00  0.00    +0.000 C 
BRANCH  20  21
ATOM     21  N   VAL A   1       2.216   2.869  18.189  0.00  0.00    +0.000 NA
ATOM     22  H   VAL A   1       1.691   3.732  18.324  0.00  0.00    +0.000 HD
BRANCH  21  23
ATOM     23  CA  VAL A   1       2.607   2.331  19.509  0.00  0.00    +0.000 C 
BRANCH  23  25
ATOM     24  CG1 VAL A   1       0.847   4.048  20.266  0.00  0.00    +0.000 C 
ATOM     25  CB  VAL A   1       1.574   2.738  20.609  0.00  0.00    +0.000 C 
ATOM     26  CG2 VAL A   1       2.151   2.837  22.025  0.00  0.00    +0.000 C 
ENDBRANCH  23  25
BRANCH  23  27
ATOM     27  C   VAL A   1       4.059   2.706  19.912  0.00  0.00    +0.000 C 
BRANCH  27  28
ATOM     28  O   VAL A   1       4.942   1.588  19.832  0.00  0.00    +0.000 OA
ATOM     29  H   VAL A   1       5.323   1.588  18.937  0.00  0.00    +0.000 HD
ENDBRANCH  27  28
ENDBRANCH  23  27
ENDBRANCH  21  23
ENDBRANCH  20  21
ENDBRANCH   1  20
TORSDOF 10
ENDMDL
MODEL 4
REMARK VINA RESULT:      -7.3      1.729      2.204
REMARK  Name = 
REMARK  12 active torsions:
REMARK  status: ('A' for Active; 'I' for Inactive)
REMARK    1  A    between atoms: CG1_1  and  CB_2
REMARK    2  A    between atoms: CB_2  and  CG2_3
REMARK    3  A    between atoms: CB_2  and  CA_4
REMARK    4  A    between atoms: CA_4  and  C_5
REMARK    5  A    between atoms: CA_4  and  N_7
REMARK    6  A    between atoms: C_5  and  O_6
REMARK    7  A    between atoms: N_7  and  C_8
REMARK    8  A    between atoms: C_8  and  C_9
REMARK    9  A    between atoms: C_11  and  C_12
REMARK   10  A    between atoms: C_15  and  O_16
REMARK   11  A    between atoms: O_16  and  C_17
REMARK   12  A    between atoms: C_17  and  C_18
REMARK                            x       y       z     vdW  Elec       q    Type
REMARK                         _______ _______ _______ _____ _____    ______ ____
ROOT
ATOM      1  C   UNK A   0       4.155   4.345  17.130  0.00  0.00    +0.000 A 
ATOM      2  N   UNK A   0       3.353   5.251  17.764  0.00  0.00    +0.000 NA
ATOM      3  C   UNK A   0       3.595   6.578  17.583  0.00  0.00    +0.000 A 
ATOM      4  C   UNK A   0       4.644   7.022  16.776  0.00  0.00    +0.000 A 
ATOM      5  C   UNK A   0       5.457   6.086  16.138  0.00  0.00    +0.000 A 
ATOM      6  C   UNK A   0       5.209   4.734  16.318  0.00  0.00    +0.000 A 
ATOM      7  F   UNK A   0       5.978   3.833  15.691  0.00  0.00    +0.000 F 
ENDROOT
BRANCH   3   8
ATOM      8  C   UNK A   0       2.692   7.482  18.298  0.00  0.00    +0.000 A 
ATOM      9  C   UNK A   0       2.337   7.280  19.622  0.00  0.00    +0.000 A 
ATOM     10  N   UNK A   0       1.499   8.070  20.330  0.00  0.00    +0.000 NA
ATOM     11  C   UNK A   0       0.994   9.119  19.676  0.00  0.00    +0.000 A 
ATOM     12  N   UNK A   0       1.257   9.440  18.400  0.00  0.00    +0.000 NA
ATOM     13  C   UNK A   0       2.094   8.601  17.744  0.00  0.00    +0.000 A 
BRANCH  11  14
ATOM     14  O   UNK A   0       0.126   9.896  20.406  0.00  0.00    +0.000 OA
BRANCH  14  15
ATOM     15  C   UNK A   0      -0.376   9.233  21.569  0.00  0.00    +0.000 C 
BRANCH  15  16
ATOM     16  C   UNK A   0      -0.384  10.085  22.835  0.00  0.00    +0.000 C 
ATOM     17  F   UNK A   0      -1.615  10.254  23.362  0.00  0.00    +0.000 F 
ATOM     18  F   UNK A   0       0.378   9.501  23.795  0.00  0.00    +0.000 F 
ATOM     19  F   UNK A   0       0.147  11.310  22.612  0.00  0.00    +0.000 F 
ENDBRANCH  15  16
ENDBRANCH  14  15
ENDBRANCH  11  14
ENDBRANCH   3   8
BRANCH   1  20
ATOM     20  C   UNK A   0       3.857   2.871  17.349  0.00  0.00    +0.000 C 
BRANCH  20  21
ATOM     21  N   VAL A   1       2.686   2.581  18.198  0.00  0.00    +0.000 NA
ATOM     22  H   VAL A   1       2.099   3.414  18.232  0.00  0.00    +0.000 HD
BRANCH  21  23
ATOM     23  CA  VAL A   1       3.011   2.164  19.578  0.00  0.00    +0.000 C 
BRANCH  23  25
ATOM     24  CG1 VAL A   1       0.620   3.029  19.968  0.00  0.00    +0.000 C 
ATOM     25  CB  VAL A   1       1.996   2.768  20.601  0.00  0.00    +0.000 C 
ATOM     26  CG2 VAL A   1       2.476   4.039  21.307  0.00  0.00    +0.000 C 
ENDBRANCH  23  25
BRANCH  23  27
ATOM     27  C   VAL A   1       4.481   2.469  19.974  0.00  0.00    +0.000 C 
BRANCH  27  28
ATOM     28  O   VAL A   1       4.911   1.679  21.082  0.00  0.00    +0.000 OA
ATOM     29  H   VAL A   1       5.844   1.451  20.925  0.00  0.00    +0.000 HD
ENDBRANCH  27  28
ENDBRANCH  23  27
ENDBRANCH  21  23
ENDBRANCH  20  21
ENDBRANCH   1  20
TORSDOF 10
ENDMDL
MODEL 5
REMARK VINA RESULT:      -7.3      0.489      1.197
REMARK  Name = 
REMARK  12 active torsions:
REMARK  status: ('A' for Active; 'I' for Inactive)
REMARK    1  A    between atoms: CG1_1  and  CB_2
REMARK    2  A    between atoms: CB_2  and  CG2_3
REMARK    3  A    between atoms: CB_2  and  CA_4
REMARK    4  A    between atoms: CA_4  and  C_5
REMARK    5  A    between atoms: CA_4  and  N_7
REMARK    6  A    between atoms: C_5  and  O_6
REMARK    7  A    between atoms: N_7  and  C_8
REMARK    8  A    between atoms: C_8  and  C_9
REMARK    9  A    between atoms: C_11  and  C_12
REMARK   10  A    between atoms: C_15  and  O_16
REMARK   11  A    between atoms: O_16  and  C_17
REMARK   12  A    between atoms: C_17  and  C_18
REMARK                            x       y       z     vdW  Elec       q    Type
REMARK                         _______ _______ _______ _____ _____    ______ ____
ROOT
ATOM      1  C   UNK A   0       4.046   4.166  17.041  0.00  0.00    +0.000 A 
ATOM      2  N   UNK A   0       3.344   5.169  17.649  0.00  0.00    +0.000 NA
ATOM      3  C   UNK A   0       3.705   6.458  17.409  0.00  0.00    +0.000 A 
ATOM      4  C   UNK A   0       4.774   6.770  16.568  0.00  0.00    +0.000 A 
ATOM      5  C   UNK A   0       5.484   5.737  15.956  0.00  0.00    +0.000 A 
ATOM      6  C   UNK A   0       5.116   4.422  16.196  0.00  0.00    +0.000 A 
ATOM      7  F   UNK A   0       5.784   3.429  15.595  0.00  0.00    +0.000 F 
ENDROOT
BRANCH   3   8
ATOM      8  C   UNK A   0       2.905   7.471  18.101  0.00  0.00    +0.000 A 
ATOM      9  C   UNK A   0       2.408   7.277  19.379  0.00  0.00    +0.000 A 
ATOM     10  N   UNK A   0       1.653   8.166  20.062  0.00  0.00    +0.000 NA
ATOM     11  C   UNK A   0       1.386   9.311  19.429  0.00  0.00    +0.000 A 
ATOM     12  N   UNK A   0       1.807   9.637  18.198  0.00  0.00    +0.000 NA
ATOM     13  C   UNK A   0       2.549   8.697  17.564  0.00  0.00    +0.000 A 
BRANCH  11  14
ATOM     14  O   UNK A   0       0.597  10.192  20.131  0.00  0.00    +0.000 OA
BRANCH  14  15
ATOM     15  C   UNK A   0      -0.802   9.961  19.945  0.00  0.00    +0.000 C 
BRANCH  15  16
ATOM     16  C   UNK A   0      -1.480  10.913  18.964  0.00  0.00    +0.000 C 
ATOM     17  F   UNK A   0      -2.135  10.282  17.967  0.00  0.00    +0.000 F 
ATOM     18  F   UNK A   0      -2.395  11.678  19.614  0.00  0.00    +0.000 F 
ATOM     19  F   UNK A   0      -0.590  11.767  18.405  0.00  0.00    +0.000 F 
ENDBRANCH  15  16
ENDBRANCH  14  15
ENDBRANCH  11  14
ENDBRANCH   3   8
BRANCH   1  20
ATOM     20  C   UNK A   0       3.617   2.737  17.326  0.00  0.00    +0.000 C 
BRANCH  20  21
ATOM     21  N   VAL A   1       2.435   2.592  18.197  0.00  0.00    +0.000 NA
ATOM     22  H   VAL A   1       1.947   3.487  18.228  0.00  0.00    +0.000 HD
BRANCH  21  23
ATOM     23  CA  VAL A   1       2.735   2.158  19.578  0.00  0.00    +0.000 C 
BRANCH  23  25
ATOM     24  CG1 VAL A   1       0.881   3.876  20.057  0.00  0.00    +0.000 C 
ATOM     25  CB  VAL A   1       1.623   2.632  20.569  0.00  0.00    +0.000 C 
ATOM     26  CG2 VAL A   1       2.104   2.884  22.000  0.00  0.00    +0.000 C 
ENDBRANCH  23  25
BRANCH  23  27
ATOM     27  C   VAL A   1       4.151   2.582  20.054  0.00  0.00    +0.000 C 
BRANCH  27  28
ATOM     28  O   VAL A   1       5.045   1.473  20.127  0.00  0.00    +0.000 OA
ATOM     29  H   VAL A   1       4.569   0.699  19.777  0.00  0.00    +0.000 HD
ENDBRANCH  27  28
ENDBRANCH  23  27
ENDBRANCH  21  23
ENDBRANCH  20  21
ENDBRANCH   1  20
TORSDOF 10
ENDMDL
MODEL 6
REMARK VINA RESULT:      -7.2      2.316      3.940
REMARK  Name = 
REMARK  12 active torsions:
REMARK  status: ('A' for Active; 'I' for Inactive)
REMARK    1  A    between atoms: CG1_1  and  CB_2
REMARK    2  A    between atoms: CB_2  and  CG2_3
REMARK    3  A    between atoms: CB_2  and  CA_4
REMARK    4  A    between atoms: CA_4  and  C_5
REMARK    5  A    between atoms: CA_4  and  N_7
REMARK    6  A    between atoms: C_5  and  O_6
REMARK    7  A    between atoms: N_7  and  C_8
REMARK    8  A    between atoms: C_8  and  C_9
REMARK    9  A    between atoms: C_11  and  C_12
REMARK   10  A    between atoms: C_15  and  O_16
REMARK   11  A    between atoms: O_16  and  C_17
REMARK   12  A    between atoms: C_17  and  C_18
REMARK                            x       y       z     vdW  Elec       q    Type
REMARK                         _______ _______ _______ _____ _____    ______ ____
ROOT
ATOM      1  C   UNK A   0       3.802   4.453  18.415  0.00  0.00    +0.000 A 
ATOM      2  N   UNK A   0       3.320   5.729  18.487  0.00  0.00    +0.000 NA
ATOM      3  C   UNK A   0       2.514   6.066  19.530  0.00  0.00    +0.000 A 
ATOM      4  C   UNK A   0       2.169   5.137  20.512  0.00  0.00    +0.000 A 
ATOM      5  C   UNK A   0       2.665   3.837  20.425  0.00  0.00    +0.000 A 
ATOM      6  C   UNK A   0       3.489   3.492  19.365  0.00  0.00    +0.000 A 
ATOM      7  F   UNK A   0       3.981   2.248  19.289  0.00  0.00    +0.000 F 
ENDROOT
BRANCH   3   8
ATOM      8  C   UNK A   0       2.039   7.452  19.531  0.00  0.00    +0.000 A 
ATOM      9  C   UNK A   0       2.087   8.253  18.402  0.00  0.00    +0.000 A 
ATOM     10  N   UNK A   0       1.677   9.539  18.345  0.00  0.00    +0.000 NA
ATOM     11  C   UNK A   0       1.192  10.048  19.480  0.00  0.00    +0.000 A 
ATOM     12  N   UNK A   0       1.079   9.388  20.643  0.00  0.00    +0.000 NA
ATOM     13  C   UNK A   0       1.518   8.106  20.635  0.00  0.00    +0.000 A 
BRANCH  11  14
ATOM     14  O   UNK A   0       0.804  11.365  19.408  0.00  0.00    +0.000 OA
BRANCH  14  15
ATOM     15  C   UNK A   0      -0.220  11.595  18.436  0.00  0.00    +0.000 C 
BRANCH  15  16
ATOM     16  C   UNK A   0      -1.619  11.170  18.872  0.00  0.00    +0.000 C 
ATOM     17  F   UNK A   0      -1.890   9.872  18.619  0.00  0.00    +0.000 F 
ATOM     18  F   UNK A   0      -1.765  11.349  20.210  0.00  0.00    +0.000 F 
ATOM     19  F   UNK A   0      -2.574  11.921  18.274  0.00  0.00    +0.000 F 
ENDBRANCH  15  16
ENDBRANCH  14  15
ENDBRANCH  11  14
ENDBRANCH   3   8
BRANCH   1  20
ATOM     20  C   UNK A   0       4.701   4.108  17.240  0.00  0.00    +0.000 C 
BRANCH  20  21
ATOM     21  N   VAL A   1       6.126   3.915  17.569  0.00  0.00    +0.000 NA
ATOM     22  H   VAL A   1       6.213   3.826  18.580  0.00  0.00    +0.000 HD
BRANCH  21  23
ATOM     23  CA  VAL A   1       7.020   4.996  17.101  0.00  0.00    +0.000 C 
BRANCH  23  25
ATOM     24  CG1 VAL A   1       7.638   7.451  17.555  0.00  0.00    +0.000 C 
ATOM     25  CB  VAL A   1       7.121   6.139  18.163  0.00  0.00    +0.000 C 
ATOM     26  CG2 VAL A   1       7.954   5.792  19.400  0.00  0.00    +0.000 C 
ENDBRANCH  23  25
BRANCH  23  27
ATOM     27  C   VAL A   1       6.632   5.542  15.700  0.00  0.00    +0.000 C 
BRANCH  27  28
ATOM     28  O   VAL A   1       7.666   5.333  14.740  0.00  0.00    +0.000 OA
ATOM     29  H   VAL A   1       7.662   6.103  14.144  0.00  0.00    +0.000 HD
ENDBRANCH  27  28
ENDBRANCH  23  27
ENDBRANCH  21  23
ENDBRANCH  20  21
ENDBRANCH   1  20
TORSDOF 10
ENDMDL
MODEL 7
REMARK VINA RESULT:      -7.2      2.136      3.973
REMARK  Name = 
REMARK  12 active torsions:
REMARK  status: ('A' for Active; 'I' for Inactive)
REMARK    1  A    between atoms: CG1_1  and  CB_2
REMARK    2  A    between atoms: CB_2  and  CG2_3
REMARK    3  A    between atoms: CB_2  and  CA_4
REMARK    4  A    between atoms: CA_4  and  C_5
REMARK    5  A    between atoms: CA_4  and  N_7
REMARK    6  A    between atoms: C_5  and  O_6
REMARK    7  A    between atoms: N_7  and  C_8
REMARK    8  A    between atoms: C_8  and  C_9
REMARK    9  A    between atoms: C_11  and  C_12
REMARK   10  A    between atoms: C_15  and  O_16
REMARK   11  A    between atoms: O_16  and  C_17
REMARK   12  A    between atoms: C_17  and  C_18
REMARK                            x       y       z     vdW  Elec       q    Type
REMARK                         _______ _______ _______ _____ _____    ______ ____
ROOT
ATOM      1  C   UNK A   0       3.727   4.246  19.182  0.00  0.00    +0.000 A 
ATOM      2  N   UNK A   0       3.277   5.530  19.065  0.00  0.00    +0.000 NA
ATOM      3  C   UNK A   0       2.366   5.988  19.966  0.00  0.00    +0.000 A 
ATOM      4  C   UNK A   0       1.884   5.173  20.991  0.00  0.00    +0.000 A 
ATOM      5  C   UNK A   0       2.349   3.863  21.097  0.00  0.00    +0.000 A 
ATOM      6  C   UNK A   0       3.280   3.395  20.182  0.00  0.00    +0.000 A 
ATOM      7  F   UNK A   0       3.742   2.143  20.293  0.00  0.00    +0.000 F 
ENDROOT
BRANCH   3   8
ATOM      8  C   UNK A   0       1.934   7.374  19.769  0.00  0.00    +0.000 A 
ATOM      9  C   UNK A   0       1.318   8.107  20.770  0.00  0.00    +0.000 A 
ATOM     10  N   UNK A   0       0.885   9.381  20.645  0.00  0.00    +0.000 NA
ATOM     11  C   UNK A   0       1.083   9.949  19.453  0.00  0.00    +0.000 A 
ATOM     12  N   UNK A   0       1.672   9.363  18.399  0.00  0.00    +0.000 NA
ATOM     13  C   UNK A   0       2.071   8.082  18.588  0.00  0.00    +0.000 A 
BRANCH  11  14
ATOM     14  O   UNK A   0       0.614  11.237  19.337  0.00  0.00    +0.000 OA
BRANCH  14  15
ATOM     15  C   UNK A   0      -0.806  11.329  19.474  0.00  0.00    +0.000 C 
BRANCH  15  16
ATOM     16  C   UNK A   0      -1.547  11.705  18.193  0.00  0.00    +0.000 C 
ATOM     17  F   UNK A   0      -1.549  10.723  17.266  0.00  0.00    +0.000 F 
ATOM     18  F   UNK A   0      -2.846  11.987  18.471  0.00  0.00    +0.000 F 
ATOM     19  F   UNK A   0      -1.023  12.816  17.625  0.00  0.00    +0.000 F 
ENDBRANCH  15  16
ENDBRANCH  14  15
ENDBRANCH  11  14
ENDBRANCH   3   8
BRANCH   1  20
ATOM     20  C   UNK A   0       4.746   3.764  18.163  0.00  0.00    +0.000 C 
BRANCH  20  21
ATOM     21  N   VAL A   1       6.155   4.044  18.495  0.00  0.00    +0.000 NA
ATOM     22  H   VAL A   1       6.316   3.774  19.465  0.00  0.00    +0.000 HD
BRANCH  21  23
ATOM     23  CA  VAL A   1       6.565   5.453  18.314  0.00  0.00    +0.000 C 
BRANCH  23  25
ATOM     24  CG1 VAL A   1       5.381   6.430  16.249  0.00  0.00    +0.000 C 
ATOM     25  CB  VAL A   1       6.678   5.813  16.797  0.00  0.00    +0.000 C 
ATOM     26  CG2 VAL A   1       7.107   4.654  15.893  0.00  0.00    +0.000 C 
ENDBRANCH  23  25
BRANCH  23  27
ATOM     27  C   VAL A   1       7.860   5.814  19.091  0.00  0.00    +0.000 C 
BRANCH  27  28
ATOM     28  O   VAL A   1       7.792   5.411  20.458  0.00  0.00    +0.000 OA
ATOM     29  H   VAL A   1       8.356   4.623  20.552  0.00  0.00    +0.000 HD
ENDBRANCH  27  28
ENDBRANCH  23  27
ENDBRANCH  21  23
ENDBRANCH  20  21
ENDBRANCH   1  20
TORSDOF 10
ENDMDL
MODEL 8
REMARK VINA RESULT:      -7.2      2.212      4.037
REMARK  Name = 
REMARK  12 active torsions:
REMARK  status: ('A' for Active; 'I' for Inactive)
REMARK    1  A    between atoms: CG1_1  and  CB_2
REMARK    2  A    between atoms: CB_2  and  CG2_3
REMARK    3  A    between atoms: CB_2  and  CA_4
REMARK    4  A    between atoms: CA_4  and  C_5
REMARK    5  A    between atoms: CA_4  and  N_7
REMARK    6  A    between atoms: C_5  and  O_6
REMARK    7  A    between atoms: N_7  and  C_8
REMARK    8  A    between atoms: C_8  and  C_9
REMARK    9  A    between atoms: C_11  and  C_12
REMARK   10  A    between atoms: C_15  and  O_16
REMARK   11  A    between atoms: O_16  and  C_17
REMARK   12  A    between atoms: C_17  and  C_18
REMARK                            x       y       z     vdW  Elec       q    Type
REMARK                         _______ _______ _______ _____ _____    ______ ____
ROOT
ATOM      1  C   UNK A   0       3.811   4.082  18.609  0.00  0.00    +0.000 A 
ATOM      2  N   UNK A   0       3.318   5.353  18.693  0.00  0.00    +0.000 NA
ATOM      3  C   UNK A   0       2.563   5.691  19.773  0.00  0.00    +0.000 A 
ATOM      4  C   UNK A   0       2.279   4.768  20.780  0.00  0.00    +0.000 A 
ATOM      5  C   UNK A   0       2.787   3.472  20.680  0.00  0.00    +0.000 A 
ATOM      6  C   UNK A   0       3.560   3.126  19.583  0.00  0.00    +0.000 A 
ATOM      7  F   UNK A   0       4.062   1.888  19.493  0.00  0.00    +0.000 F 
ENDROOT
BRANCH   3   8
ATOM      8  C   UNK A   0       2.071   7.071  19.785  0.00  0.00    +0.000 A 
ATOM      9  C   UNK A   0       1.437   7.622  20.886  0.00  0.00    +0.000 A 
ATOM     10  N   UNK A   0       0.950   8.881  20.953  0.00  0.00    +0.000 NA
ATOM     11  C   UNK A   0       1.112   9.627  19.858  0.00  0.00    +0.000 A 
ATOM     12  N   UNK A   0       1.713   9.228  18.726  0.00  0.00    +0.000 NA
ATOM     13  C   UNK A   0       2.167   7.951  18.721  0.00  0.00    +0.000 A 
BRANCH  11  14
ATOM     14  O   UNK A   0       0.589  10.896  19.936  0.00  0.00    +0.000 OA
BRANCH  14  15
ATOM     15  C   UNK A   0       0.200  11.421  18.664  0.00  0.00    +0.000 C 
BRANCH  15  16
ATOM     16  C   UNK A   0      -1.246  11.132  18.271  0.00  0.00    +0.000 C 
ATOM     17  F   UNK A   0      -2.096  11.117  19.320  0.00  0.00    +0.000 F 
ATOM     18  F   UNK A   0      -1.696  12.085  17.414  0.00  0.00    +0.000 F 
ATOM     19  F   UNK A   0      -1.357   9.948  17.625  0.00  0.00    +0.000 F 
ENDBRANCH  15  16
ENDBRANCH  14  15
ENDBRANCH  11  14
ENDBRANCH   3   8
BRANCH   1  20
ATOM     20  C   UNK A   0       4.654   3.736  17.393  0.00  0.00    +0.000 C 
BRANCH  20  21
ATOM     21  N   VAL A   1       6.098   4.001  17.526  0.00  0.00    +0.000 NA
ATOM     22  H   VAL A   1       6.336   3.995  18.518  0.00  0.00    +0.000 HD
BRANCH  21  23
ATOM     23  CA  VAL A   1       6.549   5.277  16.931  0.00  0.00    +0.000 C 
BRANCH  23  25
ATOM     24  CG1 VAL A   1       7.658   7.531  17.484  0.00  0.00    +0.000 C 
ATOM     25  CB  VAL A   1       6.885   6.326  18.040  0.00  0.00    +0.000 C 
ATOM     26  CG2 VAL A   1       7.634   5.761  19.251  0.00  0.00    +0.000 C 
ENDBRANCH  23  25
BRANCH  23  27
ATOM     27  C   VAL A   1       5.554   5.843  15.882  0.00  0.00    +0.000 C 
BRANCH  27  28
ATOM     28  O   VAL A   1       4.705   6.845  16.438  0.00  0.00    +0.000 OA
ATOM     29  H   VAL A   1       4.321   7.340  15.693  0.00  0.00    +0.000 HD
ENDBRANCH  27  28
ENDBRANCH  23  27
ENDBRANCH  21  23
ENDBRANCH  20  21
ENDBRANCH   1  20
TORSDOF 10
ENDMDL
MODEL 9
REMARK VINA RESULT:      -7.2      2.277      4.022
REMARK  Name = 
REMARK  12 active torsions:
REMARK  status: ('A' for Active; 'I' for Inactive)
REMARK    1  A    between atoms: CG1_1  and  CB_2
REMARK    2  A    between atoms: CB_2  and  CG2_3
REMARK    3  A    between atoms: CB_2  and  CA_4
REMARK    4  A    between atoms: CA_4  and  C_5
REMARK    5  A    between atoms: CA_4  and  N_7
REMARK    6  A    between atoms: C_5  and  O_6
REMARK    7  A    between atoms: N_7  and  C_8
REMARK    8  A    between atoms: C_8  and  C_9
REMARK    9  A    between atoms: C_11  and  C_12
REMARK   10  A    between atoms: C_15  and  O_16
REMARK   11  A    between atoms: O_16  and  C_17
REMARK   12  A    between atoms: C_17  and  C_18
REMARK                            x       y       z     vdW  Elec       q    Type
REMARK                         _______ _______ _______ _____ _____    ______ ____
ROOT
ATOM      1  C   UNK A   0       3.770   4.239  18.697  0.00  0.00    +0.000 A 
ATOM      2  N   UNK A   0       3.272   5.509  18.769  0.00  0.00    +0.000 NA
ATOM      3  C   UNK A   0       2.479   5.842  19.823  0.00  0.00    +0.000 A 
ATOM      4  C   UNK A   0       2.162   4.914  20.816  0.00  0.00    +0.000 A 
ATOM      5  C   UNK A   0       2.674   3.619  20.729  0.00  0.00    +0.000 A 
ATOM      6  C   UNK A   0       3.486   3.279  19.657  0.00  0.00    +0.000 A 
ATOM      7  F   UNK A   0       3.994   2.042  19.581  0.00  0.00    +0.000 F 
ENDROOT
BRANCH   3   8
ATOM      8  C   UNK A   0       1.985   7.221  19.824  0.00  0.00    +0.000 A 
ATOM      9  C   UNK A   0       1.340   7.776  20.917  0.00  0.00    +0.000 A 
ATOM     10  N   UNK A   0       0.851   9.035  20.973  0.00  0.00    +0.000 NA
ATOM     11  C   UNK A   0       1.021   9.775  19.875  0.00  0.00    +0.000 A 
ATOM     12  N   UNK A   0       1.633   9.371  18.750  0.00  0.00    +0.000 NA
ATOM     13  C   UNK A   0       2.089   8.096  18.757  0.00  0.00    +0.000 A 
BRANCH  11  14
ATOM     14  O   UNK A   0       0.495  11.044  19.942  0.00  0.00    +0.000 OA
BRANCH  14  15
ATOM     15  C   UNK A   0      -0.005  11.510  18.686  0.00  0.00    +0.000 C 
BRANCH  15  16
ATOM     16  C   UNK A   0      -1.502  11.301  18.479  0.00  0.00    +0.000 C 
ATOM     17  F   UNK A   0      -2.029  12.095  17.523  0.00  0.00    +0.000 F 
ATOM     18  F   UNK A   0      -1.747  10.019  18.106  0.00  0.00    +0.000 F 
ATOM     19  F   UNK A   0      -2.195  11.510  19.623  0.00  0.00    +0.000 F 
ENDBRANCH  15  16
ENDBRANCH  14  15
ENDBRANCH  11  14
ENDBRANCH   3   8
BRANCH   1  20
ATOM     20  C   UNK A   0       4.655   3.899  17.510  0.00  0.00    +0.000 C 
BRANCH  20  21
ATOM     21  N   VAL A   1       6.106   3.938  17.770  0.00  0.00    +0.000 NA
ATOM     22  H   VAL A   1       6.250   4.104  18.765  0.00  0.00    +0.000 HD
BRANCH  21  23
ATOM     23  CA  VAL A   1       6.844   4.962  17.000  0.00  0.00    +0.000 C 
BRANCH  23  25
ATOM     24  CG1 VAL A   1       7.281   5.692  19.428  0.00  0.00    +0.000 C 
ATOM     25  CB  VAL A   1       7.643   5.912  17.951  0.00  0.00    +0.000 C 
ATOM     26  CG2 VAL A   1       7.522   7.401  17.617  0.00  0.00    +0.000 C 
ENDBRANCH  23  25
BRANCH  23  27
ATOM     27  C   VAL A   1       5.939   5.754  16.018  0.00  0.00    +0.000 C 
BRANCH  27  28
ATOM     28  O   VAL A   1       6.312   5.543  14.658  0.00  0.00    +0.000 OA
ATOM     29  H   VAL A   1       5.878   6.238  14.132  0.00  0.00    +0.000 HD
ENDBRANCH  27  28
ENDBRANCH  23  27
ENDBRANCH  21  23
ENDBRANCH  20  21
ENDBRANCH   1  20
TORSDOF 10
ENDMDL
