MODEL 1
REMARK VINA RESULT:      -6.2      0.000      0.000
REMARK  Name = 
REMARK  9 active torsions:
REMARK  status: ('A' for Active; 'I' for Inactive)
REMARK    1  A    between atoms: C_1  and  C_2
REMARK    2  A    between atoms: C_2  and  C_4
REMARK    3  A    between atoms: C_7  and  N_8
REMARK    4  A    between atoms: N_10  and  C_11
REMARK    5  A    between atoms: C_14  and  C_15
REMARK    6  A    between atoms: C_21  and  C_22
REMARK    7  A    between atoms: C_21  and  C_23
REMARK    8  A    between atoms: C_24  and  O_25
REMARK    9  A    between atoms: N_26  and  C_27
REMARK                            x       y       z     vdW  Elec       q    Type
REMARK                         _______ _______ _______ _____ _____    ______ ____
ROOT
ATOM      1  N   UNL     1       6.421  14.990  20.421  0.00  0.00    +0.000 N 
ATOM      2  C   UNL     1       7.005  15.092  19.176  0.00  0.00    +0.000 C 
ATOM      3  N   UNL     1       8.293  15.090  19.057  0.00  0.00    +0.000 NA
ATOM      4  N   UNL     1       6.133  15.192  18.118  0.00  0.00    +0.000 N 
ATOM      5  H   UNL     1       5.662  14.319  20.492  0.00  0.00    +0.000 HD
ATOM      6  H   UNL     1       6.269  16.064  17.623  0.00  0.00    +0.000 HD
ENDROOT
BRANCH   3   7
ATOM      7  C   UNL     1       9.022  14.938  17.802  0.00  0.00    +0.000 C 
ATOM      8  C   UNL     1       9.807  13.635  17.840  0.00  0.00    +0.000 A 
ATOM      9  C   UNL     1       9.122  12.415  17.715  0.00  0.00    +0.000 A 
ATOM     10  C   UNL     1       9.709  11.220  18.143  0.00  0.00    +0.000 A 
ATOM     11  C   UNL     1      11.024  11.225  18.607  0.00  0.00    +0.000 A 
ATOM     12  C   UNL     1      11.761  12.411  18.587  0.00  0.00    +0.000 A 
ATOM     13  C   UNL     1      11.154  13.610  18.208  0.00  0.00    +0.000 A 
ATOM     14  O   UNL     1      11.953  14.720  18.239  0.00  0.00    +0.000 OA
ATOM     15  C   UNL     1      11.272  15.948  18.566  0.00  0.00    +0.000 C 
ATOM     16  C   UNL     1      12.280  17.078  18.281  0.00  0.00    +0.000 C 
ATOM     17  C   UNL     1      11.007  15.955  20.084  0.00  0.00    +0.000 C 
ATOM     18  C   UNL     1      10.003  16.132  17.687  0.00  0.00    +0.000 C 
BRANCH  10  19
ATOM     19  C   UNL     1       8.918  10.023  18.192  0.00  0.00    +0.000 C 
ATOM     20  N   UNL     1       8.287   9.051  18.187  0.00  0.00    +0.000 NA
ENDBRANCH  10  19
BRANCH  18  21
ATOM     21  O   UNL     1      10.360  16.309  16.299  0.00  0.00    +0.000 OA
ATOM     22  H   UNL     1      11.013  17.034  16.268  0.00  0.00    +0.000 HD
ENDBRANCH  18  21
ENDBRANCH   3   7
BRANCH   1  26
ATOM     23  C   UNL     1       8.448  15.549  24.099  0.00  0.00    +0.000 A 
ATOM     24  C   UNL     1       8.348  14.272  23.542  0.00  0.00    +0.000 A 
ATOM     25  C   UNL     1       7.673  14.085  22.333  0.00  0.00    +0.000 A 
ATOM     26  C   UNL     1       7.088  15.162  21.655  0.00  0.00    +0.000 A 
ATOM     27  C   UNL     1       7.191  16.439  22.221  0.00  0.00    +0.000 A 
ATOM     28  C   UNL     1       7.863  16.632  23.432  0.00  0.00    +0.000 A 
BRANCH  23  30
ATOM     29  C   UNL     1      10.500  16.485  25.355  0.00  0.00    +0.000 C 
ATOM     30  C   UNL     1       9.161  15.796  25.387  0.00  0.00    +0.000 C 
ATOM     31  O   UNL     1       8.650  15.441  26.447  0.00  0.00    +0.000 OA
ENDBRANCH  23  30
ENDBRANCH   1  26
BRANCH   4  32
ATOM     32  C   UNL     1       4.737  14.875  18.301  0.00  0.00    +0.000 C 
ATOM     33  N   UNL     1       3.608  14.660  18.439  0.00  0.00    +0.000 NA
ENDBRANCH   4  32
TORSDOF 6
ENDMDL
MODEL 2
REMARK VINA RESULT:      -6.2      8.364     12.323
REMARK  Name = 
REMARK  9 active torsions:
REMARK  status: ('A' for Active; 'I' for Inactive)
REMARK    1  A    between atoms: C_1  and  C_2
REMARK    2  A    between atoms: C_2  and  C_4
REMARK    3  A    between atoms: C_7  and  N_8
REMARK    4  A    between atoms: N_10  and  C_11
REMARK    5  A    between atoms: C_14  and  C_15
REMARK    6  A    between atoms: C_21  and  C_22
REMARK    7  A    between atoms: C_21  and  C_23
REMARK    8  A    between atoms: C_24  and  O_25
REMARK    9  A    between atoms: N_26  and  C_27
REMARK                            x       y       z     vdW  Elec       q    Type
REMARK                         _______ _______ _______ _____ _____    ______ ____
ROOT
ATOM      1  N   UNL     1      -0.780  10.676  18.144  0.00  0.00    +0.000 N 
ATOM      2  C   UNL     1       0.105  11.256  19.028  0.00  0.00    +0.000 C 
ATOM      3  N   UNL     1      -0.325  12.050  19.955  0.00  0.00    +0.000 NA
ATOM      4  N   UNL     1       1.428  10.930  18.844  0.00  0.00    +0.000 N 
ATOM      5  H   UNL     1      -0.653   9.680  17.993  0.00  0.00    +0.000 HD
ATOM      6  H   UNL     1       1.976  11.757  18.641  0.00  0.00    +0.000 HD
ENDROOT
BRANCH   3   7
ATOM      7  C   UNL     1       0.461  12.519  21.092  0.00  0.00    +0.000 C 
ATOM      8  C   UNL     1      -0.443  13.308  22.027  0.00  0.00    +0.000 A 
ATOM      9  C   UNL     1      -1.380  12.623  22.819  0.00  0.00    +0.000 A 
ATOM     10  C   UNL     1      -2.479  13.293  23.366  0.00  0.00    +0.000 A 
ATOM     11  C   UNL     1      -2.593  14.674  23.205  0.00  0.00    +0.000 A 
ATOM     12  C   UNL     1      -1.583  15.382  22.551  0.00  0.00    +0.000 A 
ATOM     13  C   UNL     1      -0.516  14.702  21.962  0.00  0.00    +0.000 A 
ATOM     14  O   UNL     1       0.412  15.481  21.328  0.00  0.00    +0.000 OA
ATOM     15  C   UNL     1       1.040  14.867  20.185  0.00  0.00    +0.000 C 
ATOM     16  C   UNL     1       2.215  15.789  19.802  0.00  0.00    +0.000 C 
ATOM     17  C   UNL     1       0.040  14.904  19.014  0.00  0.00    +0.000 C 
ATOM     18  C   UNL     1       1.571  13.448  20.537  0.00  0.00    +0.000 C 
BRANCH  10  19
ATOM     19  C   UNL     1      -3.523  12.538  23.998  0.00  0.00    +0.000 C 
ATOM     20  N   UNL     1      -4.380  11.967  24.528  0.00  0.00    +0.000 NA
ENDBRANCH  10  19
BRANCH  18  21
ATOM     21  O   UNL     1       2.641  13.523  21.504  0.00  0.00    +0.000 OA
ATOM     22  H   UNL     1       2.220  13.607  22.380  0.00  0.00    +0.000 HD
ENDBRANCH  18  21
ENDBRANCH   3   7
BRANCH   1  26
ATOM     23  C   UNL     1      -4.820  11.834  17.615  0.00  0.00    +0.000 A 
ATOM     24  C   UNL     1      -4.112  11.264  16.556  0.00  0.00    +0.000 A 
ATOM     25  C   UNL     1      -2.776  10.889  16.726  0.00  0.00    +0.000 A 
ATOM     26  C   UNL     1      -2.123  11.071  17.951  0.00  0.00    +0.000 A 
ATOM     27  C   UNL     1      -2.839  11.645  19.008  0.00  0.00    +0.000 A 
ATOM     28  C   UNL     1      -4.176  12.024  18.843  0.00  0.00    +0.000 A 
BRANCH  23  30
ATOM     29  C   UNL     1      -6.563  13.568  16.825  0.00  0.00    +0.000 C 
ATOM     30  C   UNL     1      -6.248  12.248  17.479  0.00  0.00    +0.000 C 
ATOM     31  O   UNL     1      -7.141  11.512  17.896  0.00  0.00    +0.000 OA
ENDBRANCH  23  30
ENDBRANCH   1  26
BRANCH   4  32
ATOM     32  C   UNL     1       1.786   9.813  18.004  0.00  0.00    +0.000 C 
ATOM     33  N   UNL     1       2.074   8.893  17.363  0.00  0.00    +0.000 NA
ENDBRANCH   4  32
TORSDOF 6
ENDMDL
MODEL 3
REMARK VINA RESULT:      -6.2      1.148      1.625
REMARK  Name = 
REMARK  9 active torsions:
REMARK  status: ('A' for Active; 'I' for Inactive)
REMARK    1  A    between atoms: C_1  and  C_2
REMARK    2  A    between atoms: C_2  and  C_4
REMARK    3  A    between atoms: C_7  and  N_8
REMARK    4  A    between atoms: N_10  and  C_11
REMARK    5  A    between atoms: C_14  and  C_15
REMARK    6  A    between atoms: C_21  and  C_22
REMARK    7  A    between atoms: C_21  and  C_23
REMARK    8  A    between atoms: C_24  and  O_25
REMARK    9  A    between atoms: N_26  and  C_27
REMARK                            x       y       z     vdW  Elec       q    Type
REMARK                         _______ _______ _______ _____ _____    ______ ____
ROOT
ATOM      1  N   UNL     1       6.243  15.470  20.577  0.00  0.00    +0.000 N 
ATOM      2  C   UNL     1       6.970  15.652  19.420  0.00  0.00    +0.000 C 
ATOM      3  N   UNL     1       8.133  15.102  19.287  0.00  0.00    +0.000 NA
ATOM      4  N   UNL     1       6.374  16.436  18.461  0.00  0.00    +0.000 N 
ATOM      5  H   UNL     1       5.266  15.227  20.443  0.00  0.00    +0.000 HD
ATOM      6  H   UNL     1       6.938  17.254  18.266  0.00  0.00    +0.000 HD
ENDROOT
BRANCH   3   7
ATOM      7  C   UNL     1       8.881  15.006  18.037  0.00  0.00    +0.000 C 
ATOM      8  C   UNL     1       9.703  13.726  18.049  0.00  0.00    +0.000 A 
ATOM      9  C   UNL     1       9.055  12.490  17.881  0.00  0.00    +0.000 A 
ATOM     10  C   UNL     1       9.670  11.301  18.282  0.00  0.00    +0.000 A 
ATOM     11  C   UNL     1      10.979  11.331  18.763  0.00  0.00    +0.000 A 
ATOM     12  C   UNL     1      11.682  12.537  18.785  0.00  0.00    +0.000 A 
ATOM     13  C   UNL     1      11.046  13.728  18.433  0.00  0.00    +0.000 A 
ATOM     14  O   UNL     1      11.812  14.859  18.506  0.00  0.00    +0.000 OA
ATOM     15  C   UNL     1      11.093  16.057  18.859  0.00  0.00    +0.000 C 
ATOM     16  C   UNL     1      12.071  17.223  18.619  0.00  0.00    +0.000 C 
ATOM     17  C   UNL     1      10.809  16.014  20.372  0.00  0.00    +0.000 C 
ATOM     18  C   UNL     1       9.829  16.231  17.969  0.00  0.00    +0.000 C 
BRANCH  10  19
ATOM     19  C   UNL     1       8.913  10.082  18.287  0.00  0.00    +0.000 C 
ATOM     20  N   UNL     1       8.290   9.106  18.249  0.00  0.00    +0.000 NA
ENDBRANCH  10  19
BRANCH  18  21
ATOM     21  O   UNL     1      10.197  16.458  16.591  0.00  0.00    +0.000 OA
ATOM     22  H   UNL     1      10.303  17.422  16.485  0.00  0.00    +0.000 HD
ENDBRANCH  18  21
ENDBRANCH   3   7
BRANCH   1  26
ATOM     23  C   UNL     1       7.713  13.918  24.235  0.00  0.00    +0.000 A 
ATOM     24  C   UNL     1       8.160  15.157  23.771  0.00  0.00    +0.000 A 
ATOM     25  C   UNL     1       7.682  15.667  22.560  0.00  0.00    +0.000 A 
ATOM     26  C   UNL     1       6.751  14.957  21.792  0.00  0.00    +0.000 A 
ATOM     27  C   UNL     1       6.309  13.715  22.263  0.00  0.00    +0.000 A 
ATOM     28  C   UNL     1       6.786  13.198  23.472  0.00  0.00    +0.000 A 
BRANCH  23  30
ATOM     29  C   UNL     1       7.524  12.097  26.055  0.00  0.00    +0.000 C 
ATOM     30  C   UNL     1       8.195  13.336  25.522  0.00  0.00    +0.000 C 
ATOM     31  O   UNL     1       9.126  13.867  26.124  0.00  0.00    +0.000 OA
ENDBRANCH  23  30
ENDBRANCH   1  26
BRANCH   4  32
ATOM     32  C   UNL     1       4.968  16.747  18.555  0.00  0.00    +0.000 C 
ATOM     33  N   UNL     1       3.838  16.999  18.589  0.00  0.00    +0.000 NA
ENDBRANCH   4  32
TORSDOF 6
ENDMDL
MODEL 4
REMARK VINA RESULT:      -5.8      8.990     13.062
REMARK  Name = 
REMARK  9 active torsions:
REMARK  status: ('A' for Active; 'I' for Inactive)
REMARK    1  A    between atoms: C_1  and  C_2
REMARK    2  A    between atoms: C_2  and  C_4
REMARK    3  A    between atoms: C_7  and  N_8
REMARK    4  A    between atoms: N_10  and  C_11
REMARK    5  A    between atoms: C_14  and  C_15
REMARK    6  A    between atoms: C_21  and  C_22
REMARK    7  A    between atoms: C_21  and  C_23
REMARK    8  A    between atoms: C_24  and  O_25
REMARK    9  A    between atoms: N_26  and  C_27
REMARK                            x       y       z     vdW  Elec       q    Type
REMARK                         _______ _______ _______ _____ _____    ______ ____
ROOT
ATOM      1  N   UNL     1      -4.808  12.051  19.428  0.00  0.00    +0.000 N 
ATOM      2  C   UNL     1      -3.961  12.276  20.494  0.00  0.00    +0.000 C 
ATOM      3  N   UNL     1      -2.680  12.295  20.316  0.00  0.00    +0.000 NA
ATOM      4  N   UNL     1      -4.575  12.469  21.709  0.00  0.00    +0.000 N 
ATOM      5  H   UNL     1      -5.595  12.688  19.357  0.00  0.00    +0.000 HD
ATOM      6  H   UNL     1      -4.292  11.758  22.370  0.00  0.00    +0.000 HD
ENDROOT
BRANCH   3   7
ATOM      7  C   UNL     1      -1.702  12.766  21.292  0.00  0.00    +0.000 C 
ATOM      8  C   UNL     1      -0.591  13.505  20.563  0.00  0.00    +0.000 A 
ATOM      9  C   UNL     1      -0.842  14.783  20.038  0.00  0.00    +0.000 A 
ATOM     10  C   UNL     1      -0.026  15.318  19.037  0.00  0.00    +0.000 A 
ATOM     11  C   UNL     1       1.107  14.617  18.625  0.00  0.00    +0.000 A 
ATOM     12  C   UNL     1       1.448  13.417  19.254  0.00  0.00    +0.000 A 
ATOM     13  C   UNL     1       0.601  12.863  20.216  0.00  0.00    +0.000 A 
ATOM     14  O   UNL     1       1.010  11.677  20.760  0.00  0.00    +0.000 OA
ATOM     15  C   UNL     1      -0.055  10.783  21.138  0.00  0.00    +0.000 C 
ATOM     16  C   UNL     1       0.608   9.659  21.959  0.00  0.00    +0.000 C 
ATOM     17  C   UNL     1      -0.610  10.134  19.855  0.00  0.00    +0.000 C 
ATOM     18  C   UNL     1      -1.118  11.518  22.003  0.00  0.00    +0.000 C 
BRANCH  10  19
ATOM     19  C   UNL     1      -0.419  16.531  18.379  0.00  0.00    +0.000 C 
ATOM     20  N   UNL     1      -0.772  17.488  17.829  0.00  0.00    +0.000 NA
ENDBRANCH  10  19
BRANCH  18  21
ATOM     21  O   UNL     1      -0.559  11.924  23.271  0.00  0.00    +0.000 OA
ATOM     22  H   UNL     1      -0.460  11.113  23.805  0.00  0.00    +0.000 HD
ENDBRANCH  18  21
ENDBRANCH   3   7
BRANCH   1  26
ATOM     23  C   UNL     1      -3.698  10.551  15.625  0.00  0.00    +0.000 A 
ATOM     24  C   UNL     1      -3.116  10.026  16.781  0.00  0.00    +0.000 A 
ATOM     25  C   UNL     1      -3.476  10.525  18.037  0.00  0.00    +0.000 A 
ATOM     26  C   UNL     1      -4.419  11.552  18.165  0.00  0.00    +0.000 A 
ATOM     27  C   UNL     1      -4.996  12.075  17.001  0.00  0.00    +0.000 A 
ATOM     28  C   UNL     1      -4.639  11.581  15.742  0.00  0.00    +0.000 A 
BRANCH  23  30
ATOM     29  C   UNL     1      -4.436   9.925  13.231  0.00  0.00    +0.000 C 
ATOM     30  C   UNL     1      -3.346  10.047  14.265  0.00  0.00    +0.000 C 
ATOM     31  O   UNL     1      -2.183   9.744  14.006  0.00  0.00    +0.000 OA
ENDBRANCH  23  30
ENDBRANCH   1  26
BRANCH   4  32
ATOM     32  C   UNL     1      -5.991  12.742  21.767  0.00  0.00    +0.000 C 
ATOM     33  N   UNL     1      -7.133  12.926  21.793  0.00  0.00    +0.000 NA
ENDBRANCH   4  32
TORSDOF 6
ENDMDL
MODEL 5
REMARK VINA RESULT:      -5.7      1.023      1.384
REMARK  Name = 
REMARK  9 active torsions:
REMARK  status: ('A' for Active; 'I' for Inactive)
REMARK    1  A    between atoms: C_1  and  C_2
REMARK    2  A    between atoms: C_2  and  C_4
REMARK    3  A    between atoms: C_7  and  N_8
REMARK    4  A    between atoms: N_10  and  C_11
REMARK    5  A    between atoms: C_14  and  C_15
REMARK    6  A    between atoms: C_21  and  C_22
REMARK    7  A    between atoms: C_21  and  C_23
REMARK    8  A    between atoms: C_24  and  O_25
REMARK    9  A    between atoms: N_26  and  C_27
REMARK                            x       y       z     vdW  Elec       q    Type
REMARK                         _______ _______ _______ _____ _____    ______ ____
ROOT
ATOM      1  N   UNL     1       6.044  14.578  20.961  0.00  0.00    +0.000 N 
ATOM      2  C   UNL     1       6.705  14.871  19.788  0.00  0.00    +0.000 C 
ATOM      3  N   UNL     1       7.998  14.834  19.740  0.00  0.00    +0.000 NA
ATOM      4  N   UNL     1       5.903  15.194  18.719  0.00  0.00    +0.000 N 
ATOM      5  H   UNL     1       5.260  13.939  20.870  0.00  0.00    +0.000 HD
ATOM      6  H   UNL     1       6.098  16.133  18.395  0.00  0.00    +0.000 HD
ENDROOT
BRANCH   3   7
ATOM      7  C   UNL     1       8.796  14.873  18.519  0.00  0.00    +0.000 C 
ATOM      8  C   UNL     1       9.616  13.596  18.422  0.00  0.00    +0.000 A 
ATOM      9  C   UNL     1       8.976  12.389  18.093  0.00  0.00    +0.000 A 
ATOM     10  C   UNL     1       9.575  11.160  18.386  0.00  0.00    +0.000 A 
ATOM     11  C   UNL     1      10.863  11.131  18.919  0.00  0.00    +0.000 A 
ATOM     12  C   UNL     1      11.565  12.324  19.103  0.00  0.00    +0.000 A 
ATOM     13  C   UNL     1      10.943  13.550  18.859  0.00  0.00    +0.000 A 
ATOM     14  O   UNL     1      11.705  14.663  19.087  0.00  0.00    +0.000 OA
ATOM     15  C   UNL     1      10.972  15.818  19.541  0.00  0.00    +0.000 C 
ATOM     16  C   UNL     1      11.959  16.999  19.471  0.00  0.00    +0.000 C 
ATOM     17  C   UNL     1      10.626  15.609  21.027  0.00  0.00    +0.000 C 
ATOM     18  C   UNL     1       9.746  16.094  18.625  0.00  0.00    +0.000 C 
BRANCH  10  19
ATOM     19  C   UNL     1       8.818   9.951  18.225  0.00  0.00    +0.000 C 
ATOM     20  N   UNL     1       8.209   8.969  18.141  0.00  0.00    +0.000 NA
ENDBRANCH  10  19
BRANCH  18  21
ATOM     21  O   UNL     1      10.170  16.470  17.296  0.00  0.00    +0.000 OA
ATOM     22  H   UNL     1       9.909  17.402  17.173  0.00  0.00    +0.000 HD
ENDBRANCH  18  21
ENDBRANCH   3   7
BRANCH   1  26
ATOM     23  C   UNL     1       7.803  14.297  24.805  0.00  0.00    +0.000 A 
ATOM     24  C   UNL     1       7.267  15.510  24.368  0.00  0.00    +0.000 A 
ATOM     25  C   UNL     1       6.693  15.607  23.097  0.00  0.00    +0.000 A 
ATOM     26  C   UNL     1       6.640  14.500  22.240  0.00  0.00    +0.000 A 
ATOM     27  C   UNL     1       7.181  13.288  22.685  0.00  0.00    +0.000 A 
ATOM     28  C   UNL     1       7.758  13.185  23.955  0.00  0.00    +0.000 A 
BRANCH  23  30
ATOM     29  C   UNL     1       9.711  14.872  26.447  0.00  0.00    +0.000 C 
ATOM     30  C   UNL     1       8.422  14.147  26.155  0.00  0.00    +0.000 C 
ATOM     31  O   UNL     1       7.878  13.445  27.004  0.00  0.00    +0.000 OA
ENDBRANCH  23  30
ENDBRANCH   1  26
BRANCH   4  32
ATOM     32  C   UNL     1       4.489  14.911  18.767  0.00  0.00    +0.000 C 
ATOM     33  N   UNL     1       3.361  14.649  18.786  0.00  0.00    +0.000 NA
ENDBRANCH   4  32
TORSDOF 6
ENDMDL
MODEL 6
REMARK VINA RESULT:      -5.7      8.800     12.970
REMARK  Name = 
REMARK  9 active torsions:
REMARK  status: ('A' for Active; 'I' for Inactive)
REMARK    1  A    between atoms: C_1  and  C_2
REMARK    2  A    between atoms: C_2  and  C_4
REMARK    3  A    between atoms: C_7  and  N_8
REMARK    4  A    between atoms: N_10  and  C_11
REMARK    5  A    between atoms: C_14  and  C_15
REMARK    6  A    between atoms: C_21  and  C_22
REMARK    7  A    between atoms: C_21  and  C_23
REMARK    8  A    between atoms: C_24  and  O_25
REMARK    9  A    between atoms: N_26  and  C_27
REMARK                            x       y       z     vdW  Elec       q    Type
REMARK                         _______ _______ _______ _____ _____    ______ ____
ROOT
ATOM      1  N   UNL     1      -0.134  12.317  21.379  0.00  0.00    +0.000 N 
ATOM      2  C   UNL     1      -1.217  12.185  22.223  0.00  0.00    +0.000 C 
ATOM      3  N   UNL     1      -2.183  13.044  22.183  0.00  0.00    +0.000 NA
ATOM      4  N   UNL     1      -1.178  11.106  23.074  0.00  0.00    +0.000 N 
ATOM      5  H   UNL     1       0.150  11.468  20.900  0.00  0.00    +0.000 HD
ATOM      6  H   UNL     1      -1.188  11.410  24.039  0.00  0.00    +0.000 HD
ENDROOT
BRANCH   3   7
ATOM      7  C   UNL     1      -3.481  12.881  22.831  0.00  0.00    +0.000 C 
ATOM      8  C   UNL     1      -4.573  13.324  21.870  0.00  0.00    +0.000 A 
ATOM      9  C   UNL     1      -4.898  12.509  20.772  0.00  0.00    +0.000 A 
ATOM     10  C   UNL     1      -5.572  13.036  19.666  0.00  0.00    +0.000 A 
ATOM     11  C   UNL     1      -6.013  14.358  19.694  0.00  0.00    +0.000 A 
ATOM     12  C   UNL     1      -5.830  15.126  20.846  0.00  0.00    +0.000 A 
ATOM     13  C   UNL     1      -5.111  14.612  21.926  0.00  0.00    +0.000 A 
ATOM     14  O   UNL     1      -4.968  15.447  23.000  0.00  0.00    +0.000 OA
ATOM     15  C   UNL     1      -3.739  15.286  23.735  0.00  0.00    +0.000 C 
ATOM     16  C   UNL     1      -3.907  16.110  25.026  0.00  0.00    +0.000 C 
ATOM     17  C   UNL     1      -2.609  15.949  22.923  0.00  0.00    +0.000 C 
ATOM     18  C   UNL     1      -3.491  13.791  24.085  0.00  0.00    +0.000 C 
BRANCH  10  19
ATOM     19  C   UNL     1      -5.712  12.239  18.480  0.00  0.00    +0.000 C 
ATOM     20  N   UNL     1      -5.852  11.628  17.506  0.00  0.00    +0.000 NA
ENDBRANCH  10  19
BRANCH  18  21
ATOM     21  O   UNL     1      -4.494  13.305  25.004  0.00  0.00    +0.000 OA
ATOM     22  H   UNL     1      -5.060  14.068  25.230  0.00  0.00    +0.000 HD
ENDBRANCH  18  21
ENDBRANCH   3   7
BRANCH   1  26
ATOM     23  C   UNL     1       0.820  15.816  19.190  0.00  0.00    +0.000 A 
ATOM     24  C   UNL     1      -0.017  14.848  18.631  0.00  0.00    +0.000 A 
ATOM     25  C   UNL     1      -0.326  13.689  19.349  0.00  0.00    +0.000 A 
ATOM     26  C   UNL     1       0.188  13.474  20.634  0.00  0.00    +0.000 A 
ATOM     27  C   UNL     1       1.028  14.449  21.186  0.00  0.00    +0.000 A 
ATOM     28  C   UNL     1       1.343  15.609  20.472  0.00  0.00    +0.000 A 
BRANCH  23  30
ATOM     29  C   UNL     1       0.106  17.776  17.667  0.00  0.00    +0.000 C 
ATOM     30  C   UNL     1       1.175  17.069  18.460  0.00  0.00    +0.000 C 
ATOM     31  O   UNL     1       2.322  17.507  18.517  0.00  0.00    +0.000 OA
ENDBRANCH  23  30
ENDBRANCH   1  26
BRANCH   4  32
ATOM     32  C   UNL     1      -0.235  10.038  22.843  0.00  0.00    +0.000 C 
ATOM     33  N   UNL     1       0.550   9.210  22.646  0.00  0.00    +0.000 NA
ENDBRANCH   4  32
TORSDOF 6
ENDMDL
MODEL 7
REMARK VINA RESULT:      -5.7      9.143     13.382
REMARK  Name = 
REMARK  9 active torsions:
REMARK  status: ('A' for Active; 'I' for Inactive)
REMARK    1  A    between atoms: C_1  and  C_2
REMARK    2  A    between atoms: C_2  and  C_4
REMARK    3  A    between atoms: C_7  and  N_8
REMARK    4  A    between atoms: N_10  and  C_11
REMARK    5  A    between atoms: C_14  and  C_15
REMARK    6  A    between atoms: C_21  and  C_22
REMARK    7  A    between atoms: C_21  and  C_23
REMARK    8  A    between atoms: C_24  and  O_25
REMARK    9  A    between atoms: N_26  and  C_27
REMARK                            x       y       z     vdW  Elec       q    Type
REMARK                         _______ _______ _______ _____ _____    ______ ____
ROOT
ATOM      1  N   UNL     1      -2.158  12.228  18.129  0.00  0.00    +0.000 N 
ATOM      2  C   UNL     1      -3.332  12.039  18.827  0.00  0.00    +0.000 C 
ATOM      3  N   UNL     1      -3.476  12.542  20.010  0.00  0.00    +0.000 NA
ATOM      4  N   UNL     1      -4.294  11.299  18.181  0.00  0.00    +0.000 N 
ATOM      5  H   UNL     1      -2.269  12.515  17.161  0.00  0.00    +0.000 HD
ATOM      6  H   UNL     1      -4.516  10.463  18.706  0.00  0.00    +0.000 HD
ENDROOT
BRANCH   3   7
ATOM      7  C   UNL     1      -4.737  12.631  20.739  0.00  0.00    +0.000 C 
ATOM      8  C   UNL     1      -5.483  13.877  20.288  0.00  0.00    +0.000 A 
ATOM      9  C   UNL     1      -6.090  13.896  19.021  0.00  0.00    +0.000 A 
ATOM     10  C   UNL     1      -6.418  15.108  18.404  0.00  0.00    +0.000 A 
ATOM     11  C   UNL     1      -6.232  16.305  19.095  0.00  0.00    +0.000 A 
ATOM     12  C   UNL     1      -5.775  16.281  20.414  0.00  0.00    +0.000 A 
ATOM     13  C   UNL     1      -5.399  15.073  21.006  0.00  0.00    +0.000 A 
ATOM     14  O   UNL     1      -4.946  15.154  22.294  0.00  0.00    +0.000 OA
ATOM     15  C   UNL     1      -3.943  14.180  22.646  0.00  0.00    +0.000 C 
ATOM     16  C   UNL     1      -3.782  14.275  24.176  0.00  0.00    +0.000 C 
ATOM     17  C   UNL     1      -2.606  14.627  22.025  0.00  0.00    +0.000 C 
ATOM     18  C   UNL     1      -4.395  12.747  22.246  0.00  0.00    +0.000 C 
BRANCH  10  19
ATOM     19  C   UNL     1      -6.848  15.109  17.035  0.00  0.00    +0.000 C 
ATOM     20  N   UNL     1      -7.192  15.155  15.930  0.00  0.00    +0.000 NA
ENDBRANCH  10  19
BRANCH  18  21
ATOM     21  O   UNL     1      -5.544  12.335  23.017  0.00  0.00    +0.000 OA
ATOM     22  H   UNL     1      -5.710  13.041  23.671  0.00  0.00    +0.000 HD
ENDBRANCH  18  21
ENDBRANCH   3   7
BRANCH   1  26
ATOM     23  C   UNL     1       1.472  13.601  19.828  0.00  0.00    +0.000 A 
ATOM     24  C   UNL     1       0.636  14.491  19.149  0.00  0.00    +0.000 A 
ATOM     25  C   UNL     1      -0.558  14.038  18.581  0.00  0.00    +0.000 A 
ATOM     26  C   UNL     1      -0.943  12.695  18.680  0.00  0.00    +0.000 A 
ATOM     27  C   UNL     1      -0.099  11.809  19.359  0.00  0.00    +0.000 A 
ATOM     28  C   UNL     1       1.098  12.256  19.928  0.00  0.00    +0.000 A 
BRANCH  23  30
ATOM     29  C   UNL     1       3.618  15.032  19.714  0.00  0.00    +0.000 C 
ATOM     30  C   UNL     1       2.754  14.041  20.451  0.00  0.00    +0.000 C 
ATOM     31  O   UNL     1       3.086  13.598  21.549  0.00  0.00    +0.000 OA
ENDBRANCH  23  30
ENDBRANCH   1  26
BRANCH   4  32
ATOM     32  C   UNL     1      -4.180  11.046  16.765  0.00  0.00    +0.000 C 
ATOM     33  N   UNL     1      -4.056  10.869  15.627  0.00  0.00    +0.000 NA
ENDBRANCH   4  32
TORSDOF 6
ENDMDL
MODEL 8
REMARK VINA RESULT:      -5.6      6.192      9.142
REMARK  Name = 
REMARK  9 active torsions:
REMARK  status: ('A' for Active; 'I' for Inactive)
REMARK    1  A    between atoms: C_1  and  C_2
REMARK    2  A    between atoms: C_2  and  C_4
REMARK    3  A    between atoms: C_7  and  N_8
REMARK    4  A    between atoms: N_10  and  C_11
REMARK    5  A    between atoms: C_14  and  C_15
REMARK    6  A    between atoms: C_21  and  C_22
REMARK    7  A    between atoms: C_21  and  C_23
REMARK    8  A    between atoms: C_24  and  O_25
REMARK    9  A    between atoms: N_26  and  C_27
REMARK                            x       y       z     vdW  Elec       q    Type
REMARK                         _______ _______ _______ _____ _____    ______ ____
ROOT
ATOM      1  N   UNL     1       0.677  11.234  19.800  0.00  0.00    +0.000 N 
ATOM      2  C   UNL     1       1.525  12.104  19.148  0.00  0.00    +0.000 C 
ATOM      3  N   UNL     1       1.682  13.311  19.584  0.00  0.00    +0.000 NA
ATOM      4  N   UNL     1       2.160  11.595  18.040  0.00  0.00    +0.000 N 
ATOM      5  H   UNL     1       1.054  10.307  19.973  0.00  0.00    +0.000 HD
ATOM      6  H   UNL     1       1.911  12.119  17.211  0.00  0.00    +0.000 HD
ENDROOT
BRANCH   3   7
ATOM      7  C   UNL     1       2.723  14.236  19.146  0.00  0.00    +0.000 C 
ATOM      8  C   UNL     1       3.303  14.942  20.362  0.00  0.00    +0.000 A 
ATOM      9  C   UNL     1       4.149  14.233  21.232  0.00  0.00    +0.000 A 
ATOM     10  C   UNL     1       4.369  14.683  22.537  0.00  0.00    +0.000 A 
ATOM     11  C   UNL     1       3.824  15.898  22.948  0.00  0.00    +0.000 A 
ATOM     12  C   UNL     1       3.112  16.682  22.038  0.00  0.00    +0.000 A 
ATOM     13  C   UNL     1       2.850  16.204  20.753  0.00  0.00    +0.000 A 
ATOM     14  O   UNL     1       2.129  17.036  19.941  0.00  0.00    +0.000 OA
ATOM     15  C   UNL     1       1.273  16.367  18.994  0.00  0.00    +0.000 C 
ATOM     16  C   UNL     1       0.779  17.460  18.026  0.00  0.00    +0.000 C 
ATOM     17  C   UNL     1       0.037  15.847  19.753  0.00  0.00    +0.000 C 
ATOM     18  C   UNL     1       2.056  15.276  18.210  0.00  0.00    +0.000 C 
BRANCH  10  19
ATOM     19  C   UNL     1       5.070  13.841  23.465  0.00  0.00    +0.000 C 
ATOM     20  N   UNL     1       5.650  13.136  24.178  0.00  0.00    +0.000 NA
ENDBRANCH  10  19
BRANCH  18  21
ATOM     21  O   UNL     1       3.074  15.871  17.376  0.00  0.00    +0.000 OA
ATOM     22  H   UNL     1       3.526  15.137  16.919  0.00  0.00    +0.000 HD
ENDBRANCH  18  21
ENDBRANCH   3   7
BRANCH   1  26
ATOM     23  C   UNL     1      -2.203  12.382  22.687  0.00  0.00    +0.000 A 
ATOM     24  C   UNL     1      -1.156  11.530  23.044  0.00  0.00    +0.000 A 
ATOM     25  C   UNL     1      -0.209  11.143  22.091  0.00  0.00    +0.000 A 
ATOM     26  C   UNL     1      -0.285  11.599  20.769  0.00  0.00    +0.000 A 
ATOM     27  C   UNL     1      -1.339  12.451  20.418  0.00  0.00    +0.000 A 
ATOM     28  C   UNL     1      -2.291  12.839  21.367  0.00  0.00    +0.000 A 
BRANCH  23  30
ATOM     29  C   UNL     1      -3.309  14.279  24.044  0.00  0.00    +0.000 C 
ATOM     30  C   UNL     1      -3.234  12.821  23.672  0.00  0.00    +0.000 C 
ATOM     31  O   UNL     1      -4.005  11.998  24.161  0.00  0.00    +0.000 OA
ENDBRANCH  23  30
ENDBRANCH   1  26
BRANCH   4  32
ATOM     32  C   UNL     1       2.175  10.171  17.807  0.00  0.00    +0.000 C 
ATOM     33  N   UNL     1       2.183   9.036  17.579  0.00  0.00    +0.000 NA
ENDBRANCH   4  32
TORSDOF 6
ENDMDL
MODEL 9
REMARK VINA RESULT:      -5.6      1.964      2.294
REMARK  Name = 
REMARK  9 active torsions:
REMARK  status: ('A' for Active; 'I' for Inactive)
REMARK    1  A    between atoms: C_1  and  C_2
REMARK    2  A    between atoms: C_2  and  C_4
REMARK    3  A    between atoms: C_7  and  N_8
REMARK    4  A    between atoms: N_10  and  C_11
REMARK    5  A    between atoms: C_14  and  C_15
REMARK    6  A    between atoms: C_21  and  C_22
REMARK    7  A    between atoms: C_21  and  C_23
REMARK    8  A    between atoms: C_24  and  O_25
REMARK    9  A    between atoms: N_26  and  C_27
REMARK                            x       y       z     vdW  Elec       q    Type
REMARK                         _______ _______ _______ _____ _____    ______ ____
ROOT
ATOM      1  N   UNL     1       5.651  14.424  21.478  0.00  0.00    +0.000 N 
ATOM      2  C   UNL     1       6.472  14.909  20.482  0.00  0.00    +0.000 C 
ATOM      3  N   UNL     1       7.753  14.745  20.555  0.00  0.00    +0.000 NA
ATOM      4  N   UNL     1       5.834  15.556  19.450  0.00  0.00    +0.000 N 
ATOM      5  H   UNL     1       4.835  13.912  21.158  0.00  0.00    +0.000 HD
ATOM      6  H   UNL     1       6.143  16.517  19.384  0.00  0.00    +0.000 HD
ENDROOT
BRANCH   3   7
ATOM      7  C   UNL     1       8.695  14.980  19.465  0.00  0.00    +0.000 C 
ATOM      8  C   UNL     1       9.558  13.741  19.280  0.00  0.00    +0.000 A 
ATOM      9  C   UNL     1       8.998  12.594  18.693  0.00  0.00    +0.000 A 
ATOM     10  C   UNL     1       9.592  11.340  18.869  0.00  0.00    +0.000 A 
ATOM     11  C   UNL     1      10.804  11.242  19.551  0.00  0.00    +0.000 A 
ATOM     12  C   UNL     1      11.443  12.399  20.001  0.00  0.00    +0.000 A 
ATOM     13  C   UNL     1      10.821  13.642  19.869  0.00  0.00    +0.000 A 
ATOM     14  O   UNL     1      11.516  14.713  20.358  0.00  0.00    +0.000 OA
ATOM     15  C   UNL     1      10.699  15.777  20.886  0.00  0.00    +0.000 C 
ATOM     16  C   UNL     1      11.652  16.965  21.122  0.00  0.00    +0.000 C 
ATOM     17  C   UNL     1      10.178  15.338  22.268  0.00  0.00    +0.000 C 
ATOM     18  C   UNL     1       9.588  16.179  19.875  0.00  0.00    +0.000 C 
BRANCH  10  19
ATOM     19  C   UNL     1       8.897  10.163  18.432  0.00  0.00    +0.000 C 
ATOM     20  N   UNL     1       8.312   9.214  18.119  0.00  0.00    +0.000 NA
ENDBRANCH  10  19
BRANCH  18  21
ATOM     21  O   UNL     1      10.162  16.760  18.683  0.00  0.00    +0.000 OA
ATOM     22  H   UNL     1       9.530  17.434  18.369  0.00  0.00    +0.000 HD
ENDBRANCH  18  21
ENDBRANCH   3   7
BRANCH   1  26
ATOM     23  C   UNL     1       6.970  13.160  25.300  0.00  0.00    +0.000 A 
ATOM     24  C   UNL     1       6.791  12.226  24.278  0.00  0.00    +0.000 A 
ATOM     25  C   UNL     1       6.349  12.640  23.018  0.00  0.00    +0.000 A 
ATOM     26  C   UNL     1       6.078  13.989  22.753  0.00  0.00    +0.000 A 
ATOM     27  C   UNL     1       6.258  14.918  23.784  0.00  0.00    +0.000 A 
ATOM     28  C   UNL     1       6.698  14.510  25.047  0.00  0.00    +0.000 A 
BRANCH  23  30
ATOM     29  C   UNL     1       6.894  11.504  27.280  0.00  0.00    +0.000 C 
ATOM     30  C   UNL     1       7.442  12.763  26.659  0.00  0.00    +0.000 C 
ATOM     31  O   UNL     1       8.267  13.458  27.248  0.00  0.00    +0.000 OA
ENDBRANCH  23  30
ENDBRANCH   1  26
BRANCH   4  32
ATOM     32  C   UNL     1       4.407  15.423  19.287  0.00  0.00    +0.000 C 
ATOM     33  N   UNL     1       3.265  15.331  19.118  0.00  0.00    +0.000 NA
ENDBRANCH   4  32
TORSDOF 6
ENDMDL
