MODEL 1
REMARK VINA RESULT:      -8.0      0.000      0.000
REMARK  Name = 
REMARK  6 active torsions:
REMARK  status: ('A' for Active; 'I' for Inactive)
REMARK    1  A    between atoms: N_10  and  C_11
REMARK    2  A    between atoms: C_11  and  C_12
REMARK    3  A    between atoms: C_13  and  C_14
REMARK    4  A    between atoms: C_14  and  N_15
REMARK    5  A    between atoms: N_15  and  C_16
REMARK    6  A    between atoms: C_16  and  C_17
REMARK                            x       y       z     vdW  Elec       q    Type
REMARK                         _______ _______ _______ _____ _____    ______ ____
ROOT
ATOM      1  C   UNL     1       7.891   6.292  18.781  0.00  0.00    +0.000 C 
ENDROOT
BRANCH   1   3
ATOM      2  C   UNL     1       8.497   9.016  18.355  0.00  0.00    +0.000 C 
ATOM      3  C   UNL     1       8.217   7.759  18.552  0.00  0.00    +0.000 C 
BRANCH   2   4
ATOM      4  C   UNL     1       8.822  10.483  18.125  0.00  0.00    +0.000 C 
BRANCH   4  14
ATOM      5  O   UNL     1      11.417  11.524  17.472  0.00  0.00    +0.000 OA
ATOM      6  C   UNL     1      10.998  11.533  18.616  0.00  0.00    +0.000 C 
ATOM      7  C   UNL     1      11.648  12.219  19.774  0.00  0.00    +0.000 C 
ATOM      8  C   UNL     1      11.733  13.747  19.647  0.00  0.00    +0.000 C 
ATOM      9  C   UNL     1      10.395  14.207  20.231  0.00  0.00    +0.000 C 
ATOM     10  C   UNL     1      10.259  13.259  21.429  0.00  0.00    +0.000 C 
ATOM     11  N   UNL     1      10.651  12.023  20.808  0.00  0.00    +0.000 N 
ATOM     12  C   UNL     1       9.648  11.260  20.300  0.00  0.00    +0.000 C 
ATOM     13  O   UNL     1       8.596  11.060  20.883  0.00  0.00    +0.000 OA
ATOM     14  N   UNL     1       9.831  11.000  19.006  0.00  0.00    +0.000 N 
ENDBRANCH   4  14
ENDBRANCH   2   4
ENDBRANCH   1   3
BRANCH   1  15
ATOM     15  N   UNL     1       7.724   5.576  17.520  0.00  0.00    +0.000 NA
ATOM     16  H   UNL     1       8.526   4.907  17.433  0.00  0.00    +0.000 HD
BRANCH  15  17
ATOM     17  C   UNL     1       6.494   4.776  17.500  0.00  0.00    +0.000 C 
BRANCH  17  18
ATOM     18  C   UNL     1       5.645   4.930  16.194  0.00  0.00    +0.000 C 
ATOM     19  C   UNL     1       5.071   6.346  16.122  0.00  0.00    +0.000 C 
ATOM     20  C   UNL     1       4.260   6.626  17.401  0.00  0.00    +0.000 C 
ATOM     21  C   UNL     1       3.406   5.426  17.775  0.00  0.00    +0.000 A 
ATOM     22  C   UNL     1       2.488   5.511  18.823  0.00  0.00    +0.000 A 
ATOM     23  C   UNL     1       1.681   4.415  19.136  0.00  0.00    +0.000 A 
ATOM     24  C   UNL     1       1.776   3.232  18.394  0.00  0.00    +0.000 A 
ATOM     25  C   UNL     1       2.723   3.117  17.374  0.00  0.00    +0.000 A 
ATOM     26  C   UNL     1       3.565   4.194  17.089  0.00  0.00    +0.000 A 
ATOM     27  O   UNL     1       4.576   4.046  16.193  0.00  0.00    +0.000 OA
ENDBRANCH  17  18
ENDBRANCH  15  17
ENDBRANCH   1  15
TORSDOF 6
ENDMDL
MODEL 2
REMARK VINA RESULT:      -7.8      2.049     10.346
REMARK  Name = 
REMARK  6 active torsions:
REMARK  status: ('A' for Active; 'I' for Inactive)
REMARK    1  A    between atoms: N_10  and  C_11
REMARK    2  A    between atoms: C_11  and  C_12
REMARK    3  A    between atoms: C_13  and  C_14
REMARK    4  A    between atoms: C_14  and  N_15
REMARK    5  A    between atoms: N_15  and  C_16
REMARK    6  A    between atoms: C_16  and  C_17
REMARK                            x       y       z     vdW  Elec       q    Type
REMARK                         _______ _______ _______ _____ _____    ______ ____
ROOT
ATOM      1  C   UNL     1       8.400  10.503  18.126  0.00  0.00    +0.000 C 
ENDROOT
BRANCH   1   3
ATOM      2  C   UNL     1       7.663   7.815  17.675  0.00  0.00    +0.000 C 
ATOM      3  C   UNL     1       8.003   9.056  17.883  0.00  0.00    +0.000 C 
BRANCH   2   4
ATOM      4  C   UNL     1       7.266   6.368  17.432  0.00  0.00    +0.000 C 
BRANCH   4  14
ATOM      5  O   UNL     1       4.697   6.589  16.170  0.00  0.00    +0.000 OA
ATOM      6  C   UNL     1       4.821   6.094  17.275  0.00  0.00    +0.000 C 
ATOM      7  C   UNL     1       3.747   5.387  18.037  0.00  0.00    +0.000 C 
ATOM      8  C   UNL     1       3.227   4.105  17.369  0.00  0.00    +0.000 C 
ATOM      9  C   UNL     1       4.189   3.038  17.897  0.00  0.00    +0.000 C 
ATOM     10  C   UNL     1       4.335   3.475  19.360  0.00  0.00    +0.000 C 
ATOM     11  N   UNL     1       4.493   4.892  19.177  0.00  0.00    +0.000 N 
ATOM     12  C   UNL     1       5.770   5.348  19.086  0.00  0.00    +0.000 C 
ATOM     13  O   UNL     1       6.671   4.969  19.814  0.00  0.00    +0.000 OA
ATOM     14  N   UNL     1       5.975   6.023  17.955  0.00  0.00    +0.000 N 
ENDBRANCH   4  14
ENDBRANCH   2   4
ENDBRANCH   1   3
BRANCH   1  15
ATOM     15  N   UNL     1       9.833  10.632  18.373  0.00  0.00    +0.000 NA
ATOM     16  H   UNL     1      10.310   9.860  17.850  0.00  0.00    +0.000 HD
BRANCH  15  17
ATOM     17  C   UNL     1      10.369  11.896  17.855  0.00  0.00    +0.000 C 
BRANCH  17  18
ATOM     18  C   UNL     1      11.870  12.157  18.217  0.00  0.00    +0.000 C 
ATOM     19  C   UNL     1      12.006  12.343  19.729  0.00  0.00    +0.000 C 
ATOM     20  C   UNL     1      11.074  13.481  20.183  0.00  0.00    +0.000 C 
ATOM     21  C   UNL     1      11.138  14.651  19.216  0.00  0.00    +0.000 A 
ATOM     22  C   UNL     1      10.475  15.845  19.508  0.00  0.00    +0.000 A 
ATOM     23  C   UNL     1      10.570  16.929  18.632  0.00  0.00    +0.000 A 
ATOM     24  C   UNL     1      11.338  16.831  17.466  0.00  0.00    +0.000 A 
ATOM     25  C   UNL     1      11.966  15.628  17.138  0.00  0.00    +0.000 A 
ATOM     26  C   UNL     1      11.835  14.527  17.987  0.00  0.00    +0.000 A 
ATOM     27  O   UNL     1      12.329  13.318  17.611  0.00  0.00    +0.000 OA
ENDBRANCH  17  18
ENDBRANCH  15  17
ENDBRANCH   1  15
TORSDOF 6
ENDMDL
MODEL 3
REMARK VINA RESULT:      -7.8      6.692      9.815
REMARK  Name = 
REMARK  6 active torsions:
REMARK  status: ('A' for Active; 'I' for Inactive)
REMARK    1  A    between atoms: N_10  and  C_11
REMARK    2  A    between atoms: C_11  and  C_12
REMARK    3  A    between atoms: C_13  and  C_14
REMARK    4  A    between atoms: C_14  and  N_15
REMARK    5  A    between atoms: N_15  and  C_16
REMARK    6  A    between atoms: C_16  and  C_17
REMARK                            x       y       z     vdW  Elec       q    Type
REMARK                         _______ _______ _______ _____ _____    ______ ____
ROOT
ATOM      1  C   UNL     1       1.190   8.503  21.407  0.00  0.00    +0.000 C 
ENDROOT
BRANCH   1   3
ATOM      2  C   UNL     1       2.324   7.144  19.208  0.00  0.00    +0.000 C 
ATOM      3  C   UNL     1       1.800   7.771  20.223  0.00  0.00    +0.000 C 
BRANCH   2   4
ATOM      4  C   UNL     1       2.934   6.412  18.023  0.00  0.00    +0.000 C 
BRANCH   4  14
ATOM      5  O   UNL     1       4.918   5.008  19.551  0.00  0.00    +0.000 OA
ATOM      6  C   UNL     1       3.998   4.420  19.011  0.00  0.00    +0.000 C 
ATOM      7  C   UNL     1       3.660   2.976  19.199  0.00  0.00    +0.000 C 
ATOM      8  C   UNL     1       3.245   2.597  20.629  0.00  0.00    +0.000 C 
ATOM      9  C   UNL     1       1.738   2.865  20.624  0.00  0.00    +0.000 C 
ATOM     10  C   UNL     1       1.352   2.326  19.240  0.00  0.00    +0.000 C 
ATOM     11  N   UNL     1       2.419   2.882  18.454  0.00  0.00    +0.000 N 
ATOM     12  C   UNL     1       2.175   4.085  17.872  0.00  0.00    +0.000 C 
ATOM     13  O   UNL     1       1.126   4.359  17.313  0.00  0.00    +0.000 OA
ATOM     14  N   UNL     1       3.079   4.998  18.224  0.00  0.00    +0.000 N 
ENDBRANCH   4  14
ENDBRANCH   2   4
ENDBRANCH   1   3
BRANCH   1  15
ATOM     15  N   UNL     1      -0.134   9.028  21.090  0.00  0.00    +0.000 NA
ATOM     16  H   UNL     1      -0.803   8.630  21.790  0.00  0.00    +0.000 HD
BRANCH  15  17
ATOM     17  C   UNL     1      -0.193  10.489  21.222  0.00  0.00    +0.000 C 
BRANCH  17  18
ATOM     18  C   UNL     1       0.496  11.271  20.054  0.00  0.00    +0.000 C 
ATOM     19  C   UNL     1       0.002  12.718  20.048  0.00  0.00    +0.000 C 
ATOM     20  C   UNL     1      -1.535  12.726  19.950  0.00  0.00    +0.000 C 
ATOM     21  C   UNL     1      -2.018  11.703  18.936  0.00  0.00    +0.000 A 
ATOM     22  C   UNL     1      -3.369  11.637  18.589  0.00  0.00    +0.000 A 
ATOM     23  C   UNL     1      -3.799  10.718  17.628  0.00  0.00    +0.000 A 
ATOM     24  C   UNL     1      -2.880   9.871  16.998  0.00  0.00    +0.000 A 
ATOM     25  C   UNL     1      -1.534   9.894  17.371  0.00  0.00    +0.000 A 
ATOM     26  C   UNL     1      -1.107  10.777  18.365  0.00  0.00    +0.000 A 
ATOM     27  O   UNL     1       0.169  10.713  18.826  0.00  0.00    +0.000 OA
ENDBRANCH  17  18
ENDBRANCH  15  17
ENDBRANCH   1  15
TORSDOF 6
ENDMDL
MODEL 4
REMARK VINA RESULT:      -7.8      1.810     10.163
REMARK  Name = 
REMARK  6 active torsions:
REMARK  status: ('A' for Active; 'I' for Inactive)
REMARK    1  A    between atoms: N_10  and  C_11
REMARK    2  A    between atoms: C_11  and  C_12
REMARK    3  A    between atoms: C_13  and  C_14
REMARK    4  A    between atoms: C_14  and  N_15
REMARK    5  A    between atoms: N_15  and  C_16
REMARK    6  A    between atoms: C_16  and  C_17
REMARK                            x       y       z     vdW  Elec       q    Type
REMARK                         _______ _______ _______ _____ _____    ______ ____
ROOT
ATOM      1  C   UNL     1       8.019   9.293  17.738  0.00  0.00    +0.000 C 
ENDROOT
BRANCH   1   3
ATOM      2  C   UNL     1       7.438   6.530  17.751  0.00  0.00    +0.000 C 
ATOM      3  C   UNL     1       7.706   7.806  17.745  0.00  0.00    +0.000 C 
BRANCH   2   4
ATOM      4  C   UNL     1       7.125   5.043  17.757  0.00  0.00    +0.000 C 
BRANCH   4  14
ATOM      5  O   UNL     1       5.643   3.520  15.826  0.00  0.00    +0.000 OA
ATOM      6  C   UNL     1       5.112   3.965  16.828  0.00  0.00    +0.000 C 
ATOM      7  C   UNL     1       3.726   3.651  17.289  0.00  0.00    +0.000 C 
ATOM      8  C   UNL     1       3.490   2.176  17.651  0.00  0.00    +0.000 C 
ATOM      9  C   UNL     1       3.904   2.122  19.124  0.00  0.00    +0.000 C 
ATOM     10  C   UNL     1       3.310   3.438  19.642  0.00  0.00    +0.000 C 
ATOM     11  N   UNL     1       3.702   4.320  18.576  0.00  0.00    +0.000 N 
ATOM     12  C   UNL     1       4.879   4.977  18.740  0.00  0.00    +0.000 C 
ATOM     13  O   UNL     1       5.215   5.499  19.790  0.00  0.00    +0.000 OA
ATOM     14  N   UNL     1       5.722   4.743  17.735  0.00  0.00    +0.000 N 
ENDBRANCH   4  14
ENDBRANCH   2   4
ENDBRANCH   1   3
BRANCH   1  15
ATOM     15  N   UNL     1       9.027   9.634  18.737  0.00  0.00    +0.000 NA
ATOM     16  H   UNL     1       9.925   9.183  18.440  0.00  0.00    +0.000 HD
BRANCH  15  17
ATOM     17  C   UNL     1       9.273  11.080  18.798  0.00  0.00    +0.000 C 
BRANCH  17  18
ATOM     18  C   UNL     1      10.531  11.555  17.996  0.00  0.00    +0.000 C 
ATOM     19  C   UNL     1      11.771  11.455  18.885  0.00  0.00    +0.000 C 
ATOM     20  C   UNL     1      11.537  12.270  20.171  0.00  0.00    +0.000 C 
ATOM     21  C   UNL     1      10.874  13.600  19.855  0.00  0.00    +0.000 A 
ATOM     22  C   UNL     1      10.695  14.555  20.857  0.00  0.00    +0.000 A 
ATOM     23  C   UNL     1      10.118  15.791  20.551  0.00  0.00    +0.000 A 
ATOM     24  C   UNL     1       9.731  16.084  19.238  0.00  0.00    +0.000 A 
ATOM     25  C   UNL     1       9.861  15.120  18.236  0.00  0.00    +0.000 A 
ATOM     26  C   UNL     1      10.393  13.867  18.547  0.00  0.00    +0.000 A 
ATOM     27  O   UNL     1      10.399  12.882  17.612  0.00  0.00    +0.000 OA
ENDBRANCH  17  18
ENDBRANCH  15  17
ENDBRANCH   1  15
TORSDOF 6
ENDMDL
MODEL 5
REMARK VINA RESULT:      -7.7      1.833      9.655
REMARK  Name = 
REMARK  6 active torsions:
REMARK  status: ('A' for Active; 'I' for Inactive)
REMARK    1  A    between atoms: N_10  and  C_11
REMARK    2  A    between atoms: C_11  and  C_12
REMARK    3  A    between atoms: C_13  and  C_14
REMARK    4  A    between atoms: C_14  and  N_15
REMARK    5  A    between atoms: N_15  and  C_16
REMARK    6  A    between atoms: C_16  and  C_17
REMARK                            x       y       z     vdW  Elec       q    Type
REMARK                         _______ _______ _______ _____ _____    ______ ____
ROOT
ATOM      1  C   UNL     1       8.198   8.921  17.934  0.00  0.00    +0.000 C 
ENDROOT
BRANCH   1   3
ATOM      2  C   UNL     1       7.340   6.242  17.693  0.00  0.00    +0.000 C 
ATOM      3  C   UNL     1       7.736   7.479  17.805  0.00  0.00    +0.000 C 
BRANCH   2   4
ATOM      4  C   UNL     1       6.877   4.800  17.563  0.00  0.00    +0.000 C 
BRANCH   4  14
ATOM      5  O   UNL     1       5.458   3.304  19.562  0.00  0.00    +0.000 OA
ATOM      6  C   UNL     1       4.869   3.964  18.724  0.00  0.00    +0.000 C 
ATOM      7  C   UNL     1       3.401   4.242  18.712  0.00  0.00    +0.000 C 
ATOM      8  C   UNL     1       2.894   5.058  19.910  0.00  0.00    +0.000 C 
ATOM      9  C   UNL     1       3.088   6.502  19.440  0.00  0.00    +0.000 C 
ATOM     10  C   UNL     1       2.639   6.395  17.977  0.00  0.00    +0.000 C 
ATOM     11  N   UNL     1       3.304   5.175  17.606  0.00  0.00    +0.000 N 
ATOM     12  C   UNL     1       4.535   5.308  17.046  0.00  0.00    +0.000 C 
ATOM     13  O   UNL     1       4.799   6.143  16.198  0.00  0.00    +0.000 OA
ATOM     14  N   UNL     1       5.461   4.627  17.719  0.00  0.00    +0.000 N 
ENDBRANCH   4  14
ENDBRANCH   2   4
ENDBRANCH   1   3
BRANCH   1  15
ATOM     15  N   UNL     1       8.966   9.131  19.158  0.00  0.00    +0.000 NA
ATOM     16  H   UNL     1       9.864   8.600  19.057  0.00  0.00    +0.000 HD
BRANCH  15  17
ATOM     17  C   UNL     1       9.321  10.542  19.350  0.00  0.00    +0.000 C 
BRANCH  17  18
ATOM     18  C   UNL     1       9.984  11.215  18.102  0.00  0.00    +0.000 C 
ATOM     19  C   UNL     1      11.479  11.409  18.361  0.00  0.00    +0.000 C 
ATOM     20  C   UNL     1      11.666  12.225  19.654  0.00  0.00    +0.000 C 
ATOM     21  C   UNL     1      10.679  13.380  19.711  0.00  0.00    +0.000 A 
ATOM     22  C   UNL     1      10.763  14.330  20.731  0.00  0.00    +0.000 A 
ATOM     23  C   UNL     1       9.876  15.409  20.756  0.00  0.00    +0.000 A 
ATOM     24  C   UNL     1       8.910  15.553  19.753  0.00  0.00    +0.000 A 
ATOM     25  C   UNL     1       8.784  14.585  18.755  0.00  0.00    +0.000 A 
ATOM     26  C   UNL     1       9.637  13.479  18.753  0.00  0.00    +0.000 A 
ATOM     27  O   UNL     1       9.436  12.469  17.868  0.00  0.00    +0.000 OA
ENDBRANCH  17  18
ENDBRANCH  15  17
ENDBRANCH   1  15
TORSDOF 6
ENDMDL
MODEL 6
REMARK VINA RESULT:      -7.7      1.356      1.592
REMARK  Name = 
REMARK  6 active torsions:
REMARK  status: ('A' for Active; 'I' for Inactive)
REMARK    1  A    between atoms: N_10  and  C_11
REMARK    2  A    between atoms: C_11  and  C_12
REMARK    3  A    between atoms: C_13  and  C_14
REMARK    4  A    between atoms: C_14  and  N_15
REMARK    5  A    between atoms: N_15  and  C_16
REMARK    6  A    between atoms: C_16  and  C_17
REMARK                            x       y       z     vdW  Elec       q    Type
REMARK                         _______ _______ _______ _____ _____    ______ ____
ROOT
ATOM      1  C   UNL     1       7.605   6.554  17.770  0.00  0.00    +0.000 C 
ENDROOT
BRANCH   1   3
ATOM      2  C   UNL     1       8.215   9.306  17.928  0.00  0.00    +0.000 C 
ATOM      3  C   UNL     1       7.934   8.035  17.855  0.00  0.00    +0.000 C 
BRANCH   2   4
ATOM      4  C   UNL     1       8.543  10.788  18.013  0.00  0.00    +0.000 C 
BRANCH   4  14
ATOM      5  O   UNL     1      11.257  11.436  17.333  0.00  0.00    +0.000 OA
ATOM      6  C   UNL     1      10.870  11.451  18.487  0.00  0.00    +0.000 C 
ATOM      7  C   UNL     1      11.647  11.964  19.657  0.00  0.00    +0.000 C 
ATOM      8  C   UNL     1      11.973  13.465  19.600  0.00  0.00    +0.000 C 
ATOM      9  C   UNL     1      10.739  14.100  20.246  0.00  0.00    +0.000 C 
ATOM     10  C   UNL     1      10.479  13.125  21.401  0.00  0.00    +0.000 C 
ATOM     11  N   UNL     1      10.654  11.876  20.710  0.00  0.00    +0.000 N 
ATOM     12  C   UNL     1       9.531  11.309  20.197  0.00  0.00    +0.000 C 
ATOM     13  O   UNL     1       8.474  11.249  20.801  0.00  0.00    +0.000 OA
ATOM     14  N   UNL     1       9.642  11.091  18.887  0.00  0.00    +0.000 N 
ENDBRANCH   4  14
ENDBRANCH   2   4
ENDBRANCH   1   3
BRANCH   1  15
ATOM     15  N   UNL     1       7.416   5.969  19.094  0.00  0.00    +0.000 NA
ATOM     16  H   UNL     1       7.539   6.738  19.795  0.00  0.00    +0.000 HD
BRANCH  15  17
ATOM     17  C   UNL     1       6.059   5.439  19.273  0.00  0.00    +0.000 C 
BRANCH  17  18
ATOM     18  C   UNL     1       5.742   4.174  18.408  0.00  0.00    +0.000 C 
ATOM     19  C   UNL     1       4.814   4.563  17.255  0.00  0.00    +0.000 C 
ATOM     20  C   UNL     1       3.550   5.230  17.828  0.00  0.00    +0.000 C 
ATOM     21  C   UNL     1       3.049   4.479  19.050  0.00  0.00    +0.000 A 
ATOM     22  C   UNL     1       1.837   4.832  19.647  0.00  0.00    +0.000 A 
ATOM     23  C   UNL     1       1.364   4.112  20.748  0.00  0.00    +0.000 A 
ATOM     24  C   UNL     1       2.094   3.028  21.250  0.00  0.00    +0.000 A 
ATOM     25  C   UNL     1       3.331   2.696  20.692  0.00  0.00    +0.000 A 
ATOM     26  C   UNL     1       3.829   3.441  19.622  0.00  0.00    +0.000 A 
ATOM     27  O   UNL     1       5.087   3.211  19.162  0.00  0.00    +0.000 OA
ENDBRANCH  17  18
ENDBRANCH  15  17
ENDBRANCH   1  15
TORSDOF 6
ENDMDL
MODEL 7
REMARK VINA RESULT:      -7.7      1.931     10.037
REMARK  Name = 
REMARK  6 active torsions:
REMARK  status: ('A' for Active; 'I' for Inactive)
REMARK    1  A    between atoms: N_10  and  C_11
REMARK    2  A    between atoms: C_11  and  C_12
REMARK    3  A    between atoms: C_13  and  C_14
REMARK    4  A    between atoms: C_14  and  N_15
REMARK    5  A    between atoms: N_15  and  C_16
REMARK    6  A    between atoms: C_16  and  C_17
REMARK                            x       y       z     vdW  Elec       q    Type
REMARK                         _______ _______ _______ _____ _____    ______ ____
ROOT
ATOM      1  C   UNL     1       8.249   9.211  18.044  0.00  0.00    +0.000 C 
ENDROOT
BRANCH   1   3
ATOM      2  C   UNL     1       7.562   6.477  17.873  0.00  0.00    +0.000 C 
ATOM      3  C   UNL     1       7.880   7.739  17.952  0.00  0.00    +0.000 C 
BRANCH   2   4
ATOM      4  C   UNL     1       7.192   5.006  17.781  0.00  0.00    +0.000 C 
BRANCH   4  14
ATOM      5  O   UNL     1       5.670   3.577  15.810  0.00  0.00    +0.000 OA
ATOM      6  C   UNL     1       5.147   4.026  16.814  0.00  0.00    +0.000 C 
ATOM      7  C   UNL     1       3.744   3.760  17.256  0.00  0.00    +0.000 C 
ATOM      8  C   UNL     1       3.445   2.291  17.591  0.00  0.00    +0.000 C 
ATOM      9  C   UNL     1       3.841   2.196  19.066  0.00  0.00    +0.000 C 
ATOM     10  C   UNL     1       3.295   3.526  19.601  0.00  0.00    +0.000 C 
ATOM     11  N   UNL     1       3.734   4.409  18.553  0.00  0.00    +0.000 N 
ATOM     12  C   UNL     1       4.935   5.015  18.740  0.00  0.00    +0.000 C 
ATOM     13  O   UNL     1       5.280   5.505  19.802  0.00  0.00    +0.000 OA
ATOM     14  N   UNL     1       5.777   4.764  17.739  0.00  0.00    +0.000 N 
ENDBRANCH   4  14
ENDBRANCH   2   4
ENDBRANCH   1   3
BRANCH   1  15
ATOM     15  N   UNL     1       9.194   9.460  19.128  0.00  0.00    +0.000 NA
ATOM     16  H   UNL     1      10.158   9.396  18.722  0.00  0.00    +0.000 HD
BRANCH  15  17
ATOM     17  C   UNL     1       9.051  10.811  19.683  0.00  0.00    +0.000 C 
BRANCH  17  18
ATOM     18  C   UNL     1      10.277  11.295  20.527  0.00  0.00    +0.000 C 
ATOM     19  C   UNL     1       9.914  12.587  21.261  0.00  0.00    +0.000 C 
ATOM     20  C   UNL     1       9.441  13.634  20.236  0.00  0.00    +0.000 C 
ATOM     21  C   UNL     1      10.332  13.627  19.005  0.00  0.00    +0.000 A 
ATOM     22  C   UNL     1      10.167  14.591  18.008  0.00  0.00    +0.000 A 
ATOM     23  C   UNL     1      11.015  14.601  16.898  0.00  0.00    +0.000 A 
ATOM     24  C   UNL     1      12.042  13.656  16.784  0.00  0.00    +0.000 A 
ATOM     25  C   UNL     1      12.187  12.658  17.749  0.00  0.00    +0.000 A 
ATOM     26  C   UNL     1      11.312  12.615  18.837  0.00  0.00    +0.000 A 
ATOM     27  O   UNL     1      11.362  11.573  19.707  0.00  0.00    +0.000 OA
ENDBRANCH  17  18
ENDBRANCH  15  17
ENDBRANCH   1  15
TORSDOF 6
ENDMDL
MODEL 8
REMARK VINA RESULT:      -7.7      1.927      9.675
REMARK  Name = 
REMARK  6 active torsions:
REMARK  status: ('A' for Active; 'I' for Inactive)
REMARK    1  A    between atoms: N_10  and  C_11
REMARK    2  A    between atoms: C_11  and  C_12
REMARK    3  A    between atoms: C_13  and  C_14
REMARK    4  A    between atoms: C_14  and  N_15
REMARK    5  A    between atoms: N_15  and  C_16
REMARK    6  A    between atoms: C_16  and  C_17
REMARK                            x       y       z     vdW  Elec       q    Type
REMARK                         _______ _______ _______ _____ _____    ______ ____
ROOT
ATOM      1  C   UNL     1       9.092  10.065  19.033  0.00  0.00    +0.000 C 
ENDROOT
BRANCH   1   3
ATOM      2  C   UNL     1       7.887   7.761  17.932  0.00  0.00    +0.000 C 
ATOM      3  C   UNL     1       8.444   8.825  18.440  0.00  0.00    +0.000 C 
BRANCH   2   4
ATOM      4  C   UNL     1       7.238   6.521  17.340  0.00  0.00    +0.000 C 
BRANCH   4  14
ATOM      5  O   UNL     1       4.581   6.813  16.293  0.00  0.00    +0.000 OA
ATOM      6  C   UNL     1       4.785   6.277  17.367  0.00  0.00    +0.000 C 
ATOM      7  C   UNL     1       3.764   5.555  18.186  0.00  0.00    +0.000 C 
ATOM      8  C   UNL     1       3.178   4.302  17.517  0.00  0.00    +0.000 C 
ATOM      9  C   UNL     1       4.164   3.207  17.930  0.00  0.00    +0.000 C 
ATOM     10  C   UNL     1       4.430   3.591  19.391  0.00  0.00    +0.000 C 
ATOM     11  N   UNL     1       4.592   5.012  19.246  0.00  0.00    +0.000 N 
ATOM     12  C   UNL     1       5.863   5.458  19.070  0.00  0.00    +0.000 C 
ATOM     13  O   UNL     1       6.814   5.043  19.712  0.00  0.00    +0.000 OA
ATOM     14  N   UNL     1       5.988   6.171  17.952  0.00  0.00    +0.000 N 
ENDBRANCH   4  14
ENDBRANCH   2   4
ENDBRANCH   1   3
BRANCH   1  15
ATOM     15  N   UNL     1       9.288  11.102  18.025  0.00  0.00    +0.000 NA
ATOM     16  H   UNL     1       8.613  11.875  18.237  0.00  0.00    +0.000 HD
BRANCH  15  17
ATOM     17  C   UNL     1      10.636  11.682  18.087  0.00  0.00    +0.000 C 
BRANCH  17  18
ATOM     18  C   UNL     1      10.743  13.128  17.498  0.00  0.00    +0.000 C 
ATOM     19  C   UNL     1      11.980  13.822  18.069  0.00  0.00    +0.000 C 
ATOM     20  C   UNL     1      11.902  13.806  19.607  0.00  0.00    +0.000 C 
ATOM     21  C   UNL     1      10.497  14.139  20.081  0.00  0.00    +0.000 A 
ATOM     22  C   UNL     1      10.234  14.314  21.441  0.00  0.00    +0.000 A 
ATOM     23  C   UNL     1       8.948  14.657  21.866  0.00  0.00    +0.000 A 
ATOM     24  C   UNL     1       7.920  14.841  20.932  0.00  0.00    +0.000 A 
ATOM     25  C   UNL     1       8.159  14.622  19.574  0.00  0.00    +0.000 A 
ATOM     26  C   UNL     1       9.431  14.233  19.149  0.00  0.00    +0.000 A 
ATOM     27  O   UNL     1       9.638  13.889  17.851  0.00  0.00    +0.000 OA
ENDBRANCH  17  18
ENDBRANCH  15  17
ENDBRANCH   1  15
TORSDOF 6
ENDMDL
MODEL 9
REMARK VINA RESULT:      -7.6      2.058      9.949
REMARK  Name = 
REMARK  6 active torsions:
REMARK  status: ('A' for Active; 'I' for Inactive)
REMARK    1  A    between atoms: N_10  and  C_11
REMARK    2  A    between atoms: C_11  and  C_12
REMARK    3  A    between atoms: C_13  and  C_14
REMARK    4  A    between atoms: C_14  and  N_15
REMARK    5  A    between atoms: N_15  and  C_16
REMARK    6  A    between atoms: C_16  and  C_17
REMARK                            x       y       z     vdW  Elec       q    Type
REMARK                         _______ _______ _______ _____ _____    ______ ____
ROOT
ATOM      1  C   UNL     1       8.179   8.165  17.797  0.00  0.00    +0.000 C 
ENDROOT
BRANCH   1   3
ATOM      2  C   UNL     1       5.706   6.883  17.334  0.00  0.00    +0.000 C 
ATOM      3  C   UNL     1       6.848   7.475  17.548  0.00  0.00    +0.000 C 
BRANCH   2   4
ATOM      4  C   UNL     1       4.374   6.194  17.085  0.00  0.00    +0.000 C 
BRANCH   4  14
ATOM      5  O   UNL     1       2.908   6.573  19.524  0.00  0.00    +0.000 OA
ATOM      6  C   UNL     1       3.277   5.468  19.170  0.00  0.00    +0.000 C 
ATOM      7  C   UNL     1       2.888   4.174  19.810  0.00  0.00    +0.000 C 
ATOM      8  C   UNL     1       1.388   3.850  19.736  0.00  0.00    +0.000 C 
ATOM      9  C   UNL     1       1.267   3.125  18.393  0.00  0.00    +0.000 C 
ATOM     10  C   UNL     1       2.531   2.255  18.416  0.00  0.00    +0.000 C 
ATOM     11  N   UNL     1       3.483   3.220  18.895  0.00  0.00    +0.000 N 
ATOM     12  C   UNL     1       4.173   3.906  17.947  0.00  0.00    +0.000 C 
ATOM     13  O   UNL     1       4.648   3.384  16.953  0.00  0.00    +0.000 OA
ATOM     14  N   UNL     1       4.026   5.224  18.084  0.00  0.00    +0.000 N 
ENDBRANCH   4  14
ENDBRANCH   2   4
ENDBRANCH   1   3
BRANCH   1  15
ATOM     15  N   UNL     1       8.020   9.612  17.907  0.00  0.00    +0.000 NA
ATOM     16  H   UNL     1       7.117   9.789  18.407  0.00  0.00    +0.000 HD
BRANCH  15  17
ATOM     17  C   UNL     1       9.084  10.221  18.715  0.00  0.00    +0.000 C 
BRANCH  17  18
ATOM     18  C   UNL     1       9.882  11.351  17.983  0.00  0.00    +0.000 C 
ATOM     19  C   UNL     1      11.258  11.508  18.632  0.00  0.00    +0.000 C 
ATOM     20  C   UNL     1      11.079  11.779  20.137  0.00  0.00    +0.000 C 
ATOM     21  C   UNL     1       9.954  12.773  20.377  0.00  0.00    +0.000 A 
ATOM     22  C   UNL     1       9.710  13.266  21.660  0.00  0.00    +0.000 A 
ATOM     23  C   UNL     1       8.699  14.208  21.867  0.00  0.00    +0.000 A 
ATOM     24  C   UNL     1       7.936  14.673  20.789  0.00  0.00    +0.000 A 
ATOM     25  C   UNL     1       8.138  14.153  19.509  0.00  0.00    +0.000 A 
ATOM     26  C   UNL     1       9.115  13.176  19.306  0.00  0.00    +0.000 A 
ATOM     27  O   UNL     1       9.228  12.570  18.096  0.00  0.00    +0.000 OA
ENDBRANCH  17  18
ENDBRANCH  15  17
ENDBRANCH   1  15
TORSDOF 6
ENDMDL
