MODEL 1
REMARK VINA RESULT:      -7.0      0.000      0.000
REMARK  Name = 
REMARK  8 active torsions:
REMARK  status: ('A' for Active; 'I' for Inactive)
REMARK    1  A    between atoms: C_1  and  C_2
REMARK    2  A    between atoms: C_2  and  C_3
REMARK    3  A    between atoms: C_2  and  C_4
REMARK    4  A    between atoms: C_6  and  N_7
REMARK    5  A    between atoms: N_7  and  C_8
REMARK    6  A    between atoms: N_7  and  C_15
REMARK    7  A    between atoms: C_8  and  C_9
REMARK    8  A    between atoms: N_23  and  C_24
REMARK                            x       y       z     vdW  Elec       q    Type
REMARK                         _______ _______ _______ _____ _____    ______ ____
ROOT
ATOM      1  C   UNL     1       1.461   7.987  19.917  0.00  0.00    +0.000 C 
ATOM      2  C   UNL     1       2.956   7.603  20.073  0.00  0.00    +0.000 C 
ATOM      3  C   UNL     1       3.485   6.821  18.862  0.00  0.00    +0.000 C 
ATOM      4  C   UNL     1       3.302   7.773  17.672  0.00  0.00    +0.000 C 
ATOM      5  C   UNL     1       1.859   8.273  17.526  0.00  0.00    +0.000 C 
ATOM      6  N   UNL     1       1.381   8.963  18.773  0.00  0.00    +0.000 N 
ENDROOT
BRANCH   6   7
ATOM      7  C   UNL     1       0.659  10.149  18.663  0.00  0.00    +0.000 A 
ATOM      8  C   UNL     1       1.178  11.410  19.010  0.00  0.00    +0.000 A 
ATOM      9  C   UNL     1       0.434  12.606  18.976  0.00  0.00    +0.000 A 
ATOM     10  C   UNL     1      -0.893  12.607  18.580  0.00  0.00    +0.000 A 
ATOM     11  C   UNL     1      -1.447  11.402  18.206  0.00  0.00    +0.000 A 
ATOM     12  C   UNL     1      -0.676  10.231  18.247  0.00  0.00    +0.000 A 
ENDBRANCH   6   7
BRANCH   1  14
ATOM     13  C   UNL     1       1.537   9.191  22.264  0.00  0.00    +0.000 C 
ATOM     14  C   UNL     1       0.843   8.192  21.323  0.00  0.00    +0.000 C 
ATOM     15  C   UNL     1      -0.698   8.170  21.316  0.00  0.00    +0.000 C 
ENDBRANCH   1  14
BRANCH   3  16
ATOM     16  N   UNL     1       2.941   5.441  18.600  0.00  0.00    +0.000 N 
BRANCH  16  17
ATOM     17  C   UNL     1       2.292   4.638  19.534  0.00  0.00    +0.000 A 
ATOM     18  C   UNL     1       2.776   4.490  20.845  0.00  0.00    +0.000 A 
ATOM     19  C   UNL     1       2.233   3.545  21.727  0.00  0.00    +0.000 A 
ATOM     20  C   UNL     1       1.205   2.709  21.310  0.00  0.00    +0.000 A 
ATOM     21  C   UNL     1       0.652   2.895  20.053  0.00  0.00    +0.000 A 
ATOM     22  C   UNL     1       1.153   3.893  19.212  0.00  0.00    +0.000 A 
ENDBRANCH  16  17
BRANCH  16  23
ATOM     23  C   UNL     1       3.218   4.816  17.288  0.00  0.00    +0.000 C 
BRANCH  23  24
ATOM     24  C   UNL     1       4.697   4.648  16.973  0.00  0.00    +0.000 A 
ATOM     25  C   UNL     1       5.153   4.752  15.645  0.00  0.00    +0.000 A 
ATOM     26  C   UNL     1       6.520   4.753  15.349  0.00  0.00    +0.000 A 
ATOM     27  C   UNL     1       7.452   4.655  16.386  0.00  0.00    +0.000 A 
ATOM     28  C   UNL     1       7.017   4.517  17.702  0.00  0.00    +0.000 A 
ATOM     29  C   UNL     1       5.650   4.513  17.990  0.00  0.00    +0.000 A 
ENDBRANCH  23  24
ENDBRANCH  16  23
ENDBRANCH   3  16
TORSDOF 6
ENDMDL
MODEL 2
REMARK VINA RESULT:      -6.7      2.139      6.916
REMARK  Name = 
REMARK  8 active torsions:
REMARK  status: ('A' for Active; 'I' for Inactive)
REMARK    1  A    between atoms: C_1  and  C_2
REMARK    2  A    between atoms: C_2  and  C_3
REMARK    3  A    between atoms: C_2  and  C_4
REMARK    4  A    between atoms: C_6  and  N_7
REMARK    5  A    between atoms: N_7  and  C_8
REMARK    6  A    between atoms: N_7  and  C_15
REMARK    7  A    between atoms: C_8  and  C_9
REMARK    8  A    between atoms: N_23  and  C_24
REMARK                            x       y       z     vdW  Elec       q    Type
REMARK                         _______ _______ _______ _____ _____    ______ ____
ROOT
ATOM      1  C   UNL     1       6.223   5.344  17.331  0.00  0.00    +0.000 C 
ATOM      2  C   UNL     1       6.418   4.369  18.521  0.00  0.00    +0.000 C 
ATOM      3  C   UNL     1       5.116   3.648  18.903  0.00  0.00    +0.000 C 
ATOM      4  C   UNL     1       4.717   2.872  17.640  0.00  0.00    +0.000 C 
ATOM      5  C   UNL     1       4.609   3.767  16.400  0.00  0.00    +0.000 C 
ATOM      6  N   UNL     1       5.894   4.498  16.128  0.00  0.00    +0.000 N 
ENDROOT
BRANCH   6   7
ATOM      7  C   UNL     1       6.366   4.587  14.821  0.00  0.00    +0.000 A 
ATOM      8  C   UNL     1       5.840   3.839  13.751  0.00  0.00    +0.000 A 
ATOM      9  C   UNL     1       6.358   3.863  12.442  0.00  0.00    +0.000 A 
ATOM     10  C   UNL     1       7.447   4.657  12.122  0.00  0.00    +0.000 A 
ATOM     11  C   UNL     1       7.988   5.429  13.126  0.00  0.00    +0.000 A 
ATOM     12  C   UNL     1       7.445   5.385  14.419  0.00  0.00    +0.000 A 
ENDBRANCH   6   7
BRANCH   1  14
ATOM     13  C   UNL     1       6.944   7.841  16.877  0.00  0.00    +0.000 C 
ATOM     14  C   UNL     1       7.316   6.440  17.391  0.00  0.00    +0.000 C 
ATOM     15  C   UNL     1       8.192   6.353  18.656  0.00  0.00    +0.000 C 
ENDBRANCH   1  14
BRANCH   3  16
ATOM     16  N   UNL     1       3.985   4.457  19.478  0.00  0.00    +0.000 N 
BRANCH  16  17
ATOM     17  C   UNL     1       2.677   4.011  19.648  0.00  0.00    +0.000 A 
ATOM     18  C   UNL     1       2.190   3.614  20.905  0.00  0.00    +0.000 A 
ATOM     19  C   UNL     1       0.939   2.994  21.046  0.00  0.00    +0.000 A 
ATOM     20  C   UNL     1       0.155   2.739  19.928  0.00  0.00    +0.000 A 
ATOM     21  C   UNL     1       0.574   3.200  18.691  0.00  0.00    +0.000 A 
ATOM     22  C   UNL     1       1.788   3.884  18.576  0.00  0.00    +0.000 A 
ENDBRANCH  16  17
BRANCH  16  23
ATOM     23  C   UNL     1       4.227   5.885  19.779  0.00  0.00    +0.000 C 
BRANCH  23  24
ATOM     24  C   UNL     1       3.180   6.832  19.209  0.00  0.00    +0.000 A 
ATOM     25  C   UNL     1       2.188   7.376  20.047  0.00  0.00    +0.000 A 
ATOM     26  C   UNL     1       1.312   8.362  19.583  0.00  0.00    +0.000 A 
ATOM     27  C   UNL     1       1.423   8.822  18.268  0.00  0.00    +0.000 A 
ATOM     28  C   UNL     1       2.376   8.270  17.416  0.00  0.00    +0.000 A 
ATOM     29  C   UNL     1       3.246   7.283  17.884  0.00  0.00    +0.000 A 
ENDBRANCH  23  24
ENDBRANCH  16  23
ENDBRANCH   3  16
TORSDOF 6
ENDMDL
MODEL 3
REMARK VINA RESULT:      -6.5      3.484      9.302
REMARK  Name = 
REMARK  8 active torsions:
REMARK  status: ('A' for Active; 'I' for Inactive)
REMARK    1  A    between atoms: C_1  and  C_2
REMARK    2  A    between atoms: C_2  and  C_3
REMARK    3  A    between atoms: C_2  and  C_4
REMARK    4  A    between atoms: C_6  and  N_7
REMARK    5  A    between atoms: N_7  and  C_8
REMARK    6  A    between atoms: N_7  and  C_15
REMARK    7  A    between atoms: C_8  and  C_9
REMARK    8  A    between atoms: N_23  and  C_24
REMARK                            x       y       z     vdW  Elec       q    Type
REMARK                         _______ _______ _______ _____ _____    ______ ____
ROOT
ATOM      1  C   UNL     1      -0.809  11.669  18.914  0.00  0.00    +0.000 C 
ATOM      2  C   UNL     1      -0.802  12.955  18.046  0.00  0.00    +0.000 C 
ATOM      3  C   UNL     1      -0.177  14.150  18.781  0.00  0.00    +0.000 C 
ATOM      4  C   UNL     1       1.260  13.710  19.090  0.00  0.00    +0.000 C 
ATOM      5  C   UNL     1       1.324  12.385  19.860  0.00  0.00    +0.000 C 
ATOM      6  N   UNL     1       0.631  11.276  19.118  0.00  0.00    +0.000 N 
ENDROOT
BRANCH   6   7
ATOM      7  C   UNL     1       1.229  10.021  19.051  0.00  0.00    +0.000 A 
ATOM      8  C   UNL     1       1.892   9.535  17.908  0.00  0.00    +0.000 A 
ATOM      9  C   UNL     1       2.434   8.240  17.801  0.00  0.00    +0.000 A 
ATOM     10  C   UNL     1       2.346   7.343  18.852  0.00  0.00    +0.000 A 
ATOM     11  C   UNL     1       1.728   7.773  20.006  0.00  0.00    +0.000 A 
ATOM     12  C   UNL     1       1.203   9.072  20.081  0.00  0.00    +0.000 A 
ENDBRANCH   6   7
BRANCH   1  14
ATOM     13  C   UNL     1      -3.377  11.277  18.451  0.00  0.00    +0.000 C 
ATOM     14  C   UNL     1      -1.939  10.732  18.420  0.00  0.00    +0.000 C 
ATOM     15  C   UNL     1      -1.527   9.874  17.208  0.00  0.00    +0.000 C 
ENDBRANCH   1  14
BRANCH   3  16
ATOM     16  N   UNL     1      -0.891  14.713  19.981  0.00  0.00    +0.000 N 
BRANCH  16  17
ATOM     17  C   UNL     1      -1.451  13.963  21.013  0.00  0.00    +0.000 A 
ATOM     18  C   UNL     1      -0.665  13.432  22.050  0.00  0.00    +0.000 A 
ATOM     19  C   UNL     1      -1.193  12.529  22.984  0.00  0.00    +0.000 A 
ATOM     20  C   UNL     1      -2.517  12.119  22.889  0.00  0.00    +0.000 A 
ATOM     21  C   UNL     1      -3.335  12.696  21.931  0.00  0.00    +0.000 A 
ATOM     22  C   UNL     1      -2.814  13.652  21.053  0.00  0.00    +0.000 A 
ENDBRANCH  16  17
BRANCH  16  23
ATOM     23  C   UNL     1      -1.142  16.170  20.029  0.00  0.00    +0.000 C 
BRANCH  23  24
ATOM     24  C   UNL     1      -0.341  16.977  19.018  0.00  0.00    +0.000 A 
ATOM     25  C   UNL     1       1.061  17.057  19.129  0.00  0.00    +0.000 A 
ATOM     26  C   UNL     1       1.831  17.664  18.132  0.00  0.00    +0.000 A 
ATOM     27  C   UNL     1       1.204  18.194  17.001  0.00  0.00    +0.000 A 
ATOM     28  C   UNL     1      -0.184  18.153  16.892  0.00  0.00    +0.000 A 
ATOM     29  C   UNL     1      -0.948  17.550  17.893  0.00  0.00    +0.000 A 
ENDBRANCH  23  24
ENDBRANCH  16  23
ENDBRANCH   3  16
TORSDOF 6
ENDMDL
MODEL 4
REMARK VINA RESULT:      -6.5      4.108     10.118
REMARK  Name = 
REMARK  8 active torsions:
REMARK  status: ('A' for Active; 'I' for Inactive)
REMARK    1  A    between atoms: C_1  and  C_2
REMARK    2  A    between atoms: C_2  and  C_3
REMARK    3  A    between atoms: C_2  and  C_4
REMARK    4  A    between atoms: C_6  and  N_7
REMARK    5  A    between atoms: N_7  and  C_8
REMARK    6  A    between atoms: N_7  and  C_15
REMARK    7  A    between atoms: C_8  and  C_9
REMARK    8  A    between atoms: N_23  and  C_24
REMARK                            x       y       z     vdW  Elec       q    Type
REMARK                         _______ _______ _______ _____ _____    ______ ____
ROOT
ATOM      1  C   UNL     1      -1.823  11.004  18.925  0.00  0.00    +0.000 C 
ATOM      2  C   UNL     1      -1.946  12.535  18.706  0.00  0.00    +0.000 C 
ATOM      3  C   UNL     1      -2.066  13.305  20.030  0.00  0.00    +0.000 C 
ATOM      4  C   UNL     1      -0.773  12.978  20.789  0.00  0.00    +0.000 C 
ATOM      5  C   UNL     1      -0.540  11.470  20.947  0.00  0.00    +0.000 C 
ATOM      6  N   UNL     1      -0.507  10.770  19.618  0.00  0.00    +0.000 N 
ENDROOT
BRANCH   6   7
ATOM      7  C   UNL     1       0.464   9.800  19.380  0.00  0.00    +0.000 A 
ATOM      8  C   UNL     1       1.056   9.585  18.122  0.00  0.00    +0.000 A 
ATOM      9  C   UNL     1       1.982   8.559  17.850  0.00  0.00    +0.000 A 
ATOM     10  C   UNL     1       2.379   7.679  18.843  0.00  0.00    +0.000 A 
ATOM     11  C   UNL     1       1.849   7.858  20.102  0.00  0.00    +0.000 A 
ATOM     12  C   UNL     1       0.933   8.893  20.339  0.00  0.00    +0.000 A 
ENDBRANCH   6   7
BRANCH   1  14
ATOM     13  C   UNL     1      -3.509   9.313  17.803  0.00  0.00    +0.000 C 
ATOM     14  C   UNL     1      -2.316  10.271  17.652  0.00  0.00    +0.000 C 
ATOM     15  C   UNL     1      -2.262  11.150  16.388  0.00  0.00    +0.000 C 
ENDBRANCH   1  14
BRANCH   3  16
ATOM     16  N   UNL     1      -3.304  13.113  20.866  0.00  0.00    +0.000 N 
BRANCH  16  17
ATOM     17  C   UNL     1      -3.476  13.567  22.171  0.00  0.00    +0.000 A 
ATOM     18  C   UNL     1      -3.330  14.924  22.506  0.00  0.00    +0.000 A 
ATOM     19  C   UNL     1      -3.321  15.355  23.840  0.00  0.00    +0.000 A 
ATOM     20  C   UNL     1      -3.436  14.434  24.874  0.00  0.00    +0.000 A 
ATOM     21  C   UNL     1      -3.668  13.103  24.568  0.00  0.00    +0.000 A 
ATOM     22  C   UNL     1      -3.751  12.698  23.232  0.00  0.00    +0.000 A 
ENDBRANCH  16  17
BRANCH  16  23
ATOM     23  C   UNL     1      -4.391  12.268  20.326  0.00  0.00    +0.000 C 
BRANCH  23  24
ATOM     24  C   UNL     1      -5.293  12.972  19.323  0.00  0.00    +0.000 A 
ATOM     25  C   UNL     1      -5.570  12.374  18.079  0.00  0.00    +0.000 A 
ATOM     26  C   UNL     1      -6.512  12.926  17.206  0.00  0.00    +0.000 A 
ATOM     27  C   UNL     1      -7.197  14.088  17.572  0.00  0.00    +0.000 A 
ATOM     28  C   UNL     1      -6.910  14.712  18.784  0.00  0.00    +0.000 A 
ATOM     29  C   UNL     1      -5.965  14.157  19.650  0.00  0.00    +0.000 A 
ENDBRANCH  23  24
ENDBRANCH  16  23
ENDBRANCH   3  16
TORSDOF 6
ENDMDL
MODEL 5
REMARK VINA RESULT:      -6.5      7.035     11.236
REMARK  Name = 
REMARK  8 active torsions:
REMARK  status: ('A' for Active; 'I' for Inactive)
REMARK    1  A    between atoms: C_1  and  C_2
REMARK    2  A    between atoms: C_2  and  C_3
REMARK    3  A    between atoms: C_2  and  C_4
REMARK    4  A    between atoms: C_6  and  N_7
REMARK    5  A    between atoms: N_7  and  C_8
REMARK    6  A    between atoms: N_7  and  C_15
REMARK    7  A    between atoms: C_8  and  C_9
REMARK    8  A    between atoms: N_23  and  C_24
REMARK                            x       y       z     vdW  Elec       q    Type
REMARK                         _______ _______ _______ _____ _____    ______ ____
ROOT
ATOM      1  C   UNL     1      -4.948  12.642  19.839  0.00  0.00    +0.000 C 
ATOM      2  C   UNL     1      -4.787  14.146  20.183  0.00  0.00    +0.000 C 
ATOM      3  C   UNL     1      -3.716  14.388  21.256  0.00  0.00    +0.000 C 
ATOM      4  C   UNL     1      -2.420  13.842  20.641  0.00  0.00    +0.000 C 
ATOM      5  C   UNL     1      -2.546  12.383  20.183  0.00  0.00    +0.000 C 
ATOM      6  N   UNL     1      -3.660  12.207  19.190  0.00  0.00    +0.000 N 
ENDROOT
BRANCH   6   7
ATOM      7  C   UNL     1      -3.455  11.410  18.067  0.00  0.00    +0.000 A 
ATOM      8  C   UNL     1      -2.472  10.405  17.995  0.00  0.00    +0.000 A 
ATOM      9  C   UNL     1      -2.203   9.645  16.840  0.00  0.00    +0.000 A 
ATOM     10  C   UNL     1      -2.919   9.848  15.673  0.00  0.00    +0.000 A 
ATOM     11  C   UNL     1      -3.911  10.805  15.692  0.00  0.00    +0.000 A 
ATOM     12  C   UNL     1      -4.155  11.541  16.861  0.00  0.00    +0.000 A 
ENDBRANCH   6   7
BRANCH   1  14
ATOM     13  C   UNL     1      -6.887  10.954  19.246  0.00  0.00    +0.000 C 
ATOM     14  C   UNL     1      -6.370  12.402  19.273  0.00  0.00    +0.000 C 
ATOM     15  C   UNL     1      -7.369  13.510  19.657  0.00  0.00    +0.000 C 
ENDBRANCH   1  14
BRANCH   3  16
ATOM     16  N   UNL     1      -3.964  13.879  22.651  0.00  0.00    +0.000 N 
BRANCH  16  17
ATOM     17  C   UNL     1      -5.194  13.878  23.304  0.00  0.00    +0.000 A 
ATOM     18  C   UNL     1      -5.844  12.681  23.651  0.00  0.00    +0.000 A 
ATOM     19  C   UNL     1      -7.159  12.673  24.139  0.00  0.00    +0.000 A 
ATOM     20  C   UNL     1      -7.863  13.863  24.271  0.00  0.00    +0.000 A 
ATOM     21  C   UNL     1      -7.215  15.062  24.019  0.00  0.00    +0.000 A 
ATOM     22  C   UNL     1      -5.880  15.059  23.605  0.00  0.00    +0.000 A 
ENDBRANCH  16  17
BRANCH  16  23
ATOM     23  C   UNL     1      -2.800  13.458  23.462  0.00  0.00    +0.000 C 
BRANCH  23  24
ATOM     24  C   UNL     1      -2.078  14.600  24.161  0.00  0.00    +0.000 A 
ATOM     25  C   UNL     1      -0.949  15.194  23.563  0.00  0.00    +0.000 A 
ATOM     26  C   UNL     1      -0.362  16.339  24.110  0.00  0.00    +0.000 A 
ATOM     27  C   UNL     1      -0.903  16.911  25.264  0.00  0.00    +0.000 A 
ATOM     28  C   UNL     1      -1.998  16.316  25.888  0.00  0.00    +0.000 A 
ATOM     29  C   UNL     1      -2.578  15.170  25.339  0.00  0.00    +0.000 A 
ENDBRANCH  23  24
ENDBRANCH  16  23
ENDBRANCH   3  16
TORSDOF 6
ENDMDL
MODEL 6
REMARK VINA RESULT:      -6.4      0.242      1.282
REMARK  Name = 
REMARK  8 active torsions:
REMARK  status: ('A' for Active; 'I' for Inactive)
REMARK    1  A    between atoms: C_1  and  C_2
REMARK    2  A    between atoms: C_2  and  C_3
REMARK    3  A    between atoms: C_2  and  C_4
REMARK    4  A    between atoms: C_6  and  N_7
REMARK    5  A    between atoms: N_7  and  C_8
REMARK    6  A    between atoms: N_7  and  C_15
REMARK    7  A    between atoms: C_8  and  C_9
REMARK    8  A    between atoms: N_23  and  C_24
REMARK                            x       y       z     vdW  Elec       q    Type
REMARK                         _______ _______ _______ _____ _____    ______ ____
ROOT
ATOM      1  C   UNL     1       1.492   7.894  19.883  0.00  0.00    +0.000 C 
ATOM      2  C   UNL     1       2.989   7.526  20.055  0.00  0.00    +0.000 C 
ATOM      3  C   UNL     1       3.554   6.792  18.830  0.00  0.00    +0.000 C 
ATOM      4  C   UNL     1       3.380   7.782  17.670  0.00  0.00    +0.000 C 
ATOM      5  C   UNL     1       1.933   8.266  17.511  0.00  0.00    +0.000 C 
ATOM      6  N   UNL     1       1.420   8.907  18.770  0.00  0.00    +0.000 N 
ENDROOT
BRANCH   6   7
ATOM      7  C   UNL     1       0.683  10.085  18.686  0.00  0.00    +0.000 A 
ATOM      8  C   UNL     1       1.147  11.328  19.157  0.00  0.00    +0.000 A 
ATOM      9  C   UNL     1       0.382  12.511  19.147  0.00  0.00    +0.000 A 
ATOM     10  C   UNL     1      -0.911  12.518  18.652  0.00  0.00    +0.000 A 
ATOM     11  C   UNL     1      -1.409  11.333  18.156  0.00  0.00    +0.000 A 
ATOM     12  C   UNL     1      -0.618  10.174  18.176  0.00  0.00    +0.000 A 
ENDBRANCH   6   7
BRANCH   1  14
ATOM     13  C   UNL     1       1.503   9.019  22.269  0.00  0.00    +0.000 C 
ATOM     14  C   UNL     1       0.843   8.042  21.281  0.00  0.00    +0.000 C 
ATOM     15  C   UNL     1      -0.696   7.996  21.243  0.00  0.00    +0.000 C 
ENDBRANCH   1  14
BRANCH   3  16
ATOM     16  N   UNL     1       3.036   5.415  18.511  0.00  0.00    +0.000 N 
BRANCH  16  17
ATOM     17  C   UNL     1       2.470   4.532  19.427  0.00  0.00    +0.000 A 
ATOM     18  C   UNL     1       1.290   3.826  19.140  0.00  0.00    +0.000 A 
ATOM     19  C   UNL     1       0.621   3.081  20.123  0.00  0.00    +0.000 A 
ATOM     20  C   UNL     1       1.108   3.043  21.423  0.00  0.00    +0.000 A 
ATOM     21  C   UNL     1       2.317   3.657  21.709  0.00  0.00    +0.000 A 
ATOM     22  C   UNL     1       3.011   4.333  20.701  0.00  0.00    +0.000 A 
ENDBRANCH  16  17
BRANCH  16  23
ATOM     23  C   UNL     1       3.247   4.886  17.146  0.00  0.00    +0.000 C 
BRANCH  23  24
ATOM     24  C   UNL     1       4.703   4.857  16.703  0.00  0.00    +0.000 A 
ATOM     25  C   UNL     1       5.727   4.679  17.652  0.00  0.00    +0.000 A 
ATOM     26  C   UNL     1       7.056   4.498  17.256  0.00  0.00    +0.000 A 
ATOM     27  C   UNL     1       7.376   4.486  15.895  0.00  0.00    +0.000 A 
ATOM     28  C   UNL     1       6.379   4.695  14.944  0.00  0.00    +0.000 A 
ATOM     29  C   UNL     1       5.055   4.879  15.347  0.00  0.00    +0.000 A 
ENDBRANCH  23  24
ENDBRANCH  16  23
ENDBRANCH   3  16
TORSDOF 6
ENDMDL
MODEL 7
REMARK VINA RESULT:      -6.4      4.010     10.160
REMARK  Name = 
REMARK  8 active torsions:
REMARK  status: ('A' for Active; 'I' for Inactive)
REMARK    1  A    between atoms: C_1  and  C_2
REMARK    2  A    between atoms: C_2  and  C_3
REMARK    3  A    between atoms: C_2  and  C_4
REMARK    4  A    between atoms: C_6  and  N_7
REMARK    5  A    between atoms: N_7  and  C_8
REMARK    6  A    between atoms: N_7  and  C_15
REMARK    7  A    between atoms: C_8  and  C_9
REMARK    8  A    between atoms: N_23  and  C_24
REMARK                            x       y       z     vdW  Elec       q    Type
REMARK                         _______ _______ _______ _____ _____    ______ ____
ROOT
ATOM      1  C   UNL     1      -1.645  11.033  18.970  0.00  0.00    +0.000 C 
ATOM      2  C   UNL     1      -1.733  12.556  18.693  0.00  0.00    +0.000 C 
ATOM      3  C   UNL     1      -1.740  13.384  19.986  0.00  0.00    +0.000 C 
ATOM      4  C   UNL     1      -0.409  13.045  20.672  0.00  0.00    +0.000 C 
ATOM      5  C   UNL     1      -0.214  11.538  20.881  0.00  0.00    +0.000 C 
ATOM      6  N   UNL     1      -0.293  10.782  19.585  0.00  0.00    +0.000 N 
ENDROOT
BRANCH   6   7
ATOM      7  C   UNL     1       0.629   9.770  19.327  0.00  0.00    +0.000 A 
ATOM      8  C   UNL     1       1.207   9.549  18.063  0.00  0.00    +0.000 A 
ATOM      9  C   UNL     1       2.081   8.484  17.770  0.00  0.00    +0.000 A 
ATOM     10  C   UNL     1       2.435   7.567  18.745  0.00  0.00    +0.000 A 
ATOM     11  C   UNL     1       1.917   7.748  20.009  0.00  0.00    +0.000 A 
ATOM     12  C   UNL     1       1.053   8.823  20.267  0.00  0.00    +0.000 A 
ENDBRANCH   6   7
BRANCH   1  14
ATOM     13  C   UNL     1      -3.448   9.346  18.039  0.00  0.00    +0.000 C 
ATOM     14  C   UNL     1      -2.245  10.265  17.766  0.00  0.00    +0.000 C 
ATOM     15  C   UNL     1      -2.260  11.092  16.466  0.00  0.00    +0.000 C 
ENDBRANCH   1  14
BRANCH   3  16
ATOM     16  N   UNL     1      -2.923  13.271  20.910  0.00  0.00    +0.000 N 
BRANCH  16  17
ATOM     17  C   UNL     1      -3.038  13.883  22.156  0.00  0.00    +0.000 A 
ATOM     18  C   UNL     1      -3.307  13.143  23.319  0.00  0.00    +0.000 A 
ATOM     19  C   UNL     1      -3.604  13.771  24.538  0.00  0.00    +0.000 A 
ATOM     20  C   UNL     1      -3.661  15.157  24.614  0.00  0.00    +0.000 A 
ATOM     21  C   UNL     1      -3.313  15.908  23.503  0.00  0.00    +0.000 A 
ATOM     22  C   UNL     1      -2.945  15.269  22.316  0.00  0.00    +0.000 A 
ENDBRANCH  16  17
BRANCH  16  23
ATOM     23  C   UNL     1      -4.012  12.338  20.543  0.00  0.00    +0.000 C 
BRANCH  23  24
ATOM     24  C   UNL     1      -5.090  12.950  19.661  0.00  0.00    +0.000 A 
ATOM     25  C   UNL     1      -5.664  14.190  20.003  0.00  0.00    +0.000 A 
ATOM     26  C   UNL     1      -6.544  14.842  19.134  0.00  0.00    +0.000 A 
ATOM     27  C   UNL     1      -6.856  14.262  17.902  0.00  0.00    +0.000 A 
ATOM     28  C   UNL     1      -6.324  13.020  17.563  0.00  0.00    +0.000 A 
ATOM     29  C   UNL     1      -5.450  12.371  18.437  0.00  0.00    +0.000 A 
ENDBRANCH  23  24
ENDBRANCH  16  23
ENDBRANCH   3  16
TORSDOF 6
ENDMDL
MODEL 8
REMARK VINA RESULT:      -6.3      4.063     10.109
REMARK  Name = 
REMARK  8 active torsions:
REMARK  status: ('A' for Active; 'I' for Inactive)
REMARK    1  A    between atoms: C_1  and  C_2
REMARK    2  A    between atoms: C_2  and  C_3
REMARK    3  A    between atoms: C_2  and  C_4
REMARK    4  A    between atoms: C_6  and  N_7
REMARK    5  A    between atoms: N_7  and  C_8
REMARK    6  A    between atoms: N_7  and  C_15
REMARK    7  A    between atoms: C_8  and  C_9
REMARK    8  A    between atoms: N_23  and  C_24
REMARK                            x       y       z     vdW  Elec       q    Type
REMARK                         _______ _______ _______ _____ _____    ______ ____
ROOT
ATOM      1  C   UNL     1      -1.819  10.891  18.860  0.00  0.00    +0.000 C 
ATOM      2  C   UNL     1      -1.929  12.414  18.588  0.00  0.00    +0.000 C 
ATOM      3  C   UNL     1      -1.962  13.237  19.885  0.00  0.00    +0.000 C 
ATOM      4  C   UNL     1      -0.633  12.916  20.583  0.00  0.00    +0.000 C 
ATOM      5  C   UNL     1      -0.416  11.412  20.788  0.00  0.00    +0.000 C 
ATOM      6  N   UNL     1      -0.469  10.660  19.488  0.00  0.00    +0.000 N 
ENDROOT
BRANCH   6   7
ATOM      7  C   UNL     1       0.471   9.664  19.235  0.00  0.00    +0.000 A 
ATOM      8  C   UNL     1       0.938   8.769  20.215  0.00  0.00    +0.000 A 
ATOM      9  C   UNL     1       1.944   7.808  19.992  0.00  0.00    +0.000 A 
ATOM     10  C   UNL     1       2.545   7.683  18.750  0.00  0.00    +0.000 A 
ATOM     11  C   UNL     1       2.109   8.519  17.745  0.00  0.00    +0.000 A 
ATOM     12  C   UNL     1       1.102   9.462  18.001  0.00  0.00    +0.000 A 
ENDBRANCH   6   7
BRANCH   1  14
ATOM     13  C   UNL     1      -3.668   9.288  17.876  0.00  0.00    +0.000 C 
ATOM     14  C   UNL     1      -2.394  10.119  17.647  0.00  0.00    +0.000 C 
ATOM     15  C   UNL     1      -2.278  10.897  16.323  0.00  0.00    +0.000 C 
ENDBRANCH   1  14
BRANCH   3  16
ATOM     16  N   UNL     1      -3.153  13.100  20.796  0.00  0.00    +0.000 N 
BRANCH  16  17
ATOM     17  C   UNL     1      -3.225  13.564  22.107  0.00  0.00    +0.000 A 
ATOM     18  C   UNL     1      -3.417  12.690  23.190  0.00  0.00    +0.000 A 
ATOM     19  C   UNL     1      -3.673  13.167  24.484  0.00  0.00    +0.000 A 
ATOM     20  C   UNL     1      -3.763  14.533  24.720  0.00  0.00    +0.000 A 
ATOM     21  C   UNL     1      -3.491  15.416  23.688  0.00  0.00    +0.000 A 
ATOM     22  C   UNL     1      -3.162  14.926  22.420  0.00  0.00    +0.000 A 
ENDBRANCH  16  17
BRANCH  16  23
ATOM     23  C   UNL     1      -4.306  12.302  20.327  0.00  0.00    +0.000 C 
BRANCH  23  24
ATOM     24  C   UNL     1      -5.229  13.039  19.367  0.00  0.00    +0.000 A 
ATOM     25  C   UNL     1      -5.577  12.456  18.133  0.00  0.00    +0.000 A 
ATOM     26  C   UNL     1      -6.539  13.041  17.304  0.00  0.00    +0.000 A 
ATOM     27  C   UNL     1      -7.173  14.220  17.705  0.00  0.00    +0.000 A 
ATOM     28  C   UNL     1      -6.816  14.828  18.907  0.00  0.00    +0.000 A 
ATOM     29  C   UNL     1      -5.852  14.241  19.728  0.00  0.00    +0.000 A 
ENDBRANCH  23  24
ENDBRANCH  16  23
ENDBRANCH   3  16
TORSDOF 6
ENDMDL
MODEL 9
REMARK VINA RESULT:      -6.2      4.229     10.161
REMARK  Name = 
REMARK  8 active torsions:
REMARK  status: ('A' for Active; 'I' for Inactive)
REMARK    1  A    between atoms: C_1  and  C_2
REMARK    2  A    between atoms: C_2  and  C_3
REMARK    3  A    between atoms: C_2  and  C_4
REMARK    4  A    between atoms: C_6  and  N_7
REMARK    5  A    between atoms: N_7  and  C_8
REMARK    6  A    between atoms: N_7  and  C_15
REMARK    7  A    between atoms: C_8  and  C_9
REMARK    8  A    between atoms: N_23  and  C_24
REMARK                            x       y       z     vdW  Elec       q    Type
REMARK                         _______ _______ _______ _____ _____    ______ ____
ROOT
ATOM      1  C   UNL     1      -1.499  10.936  19.040  0.00  0.00    +0.000 C 
ATOM      2  C   UNL     1      -1.577  12.472  18.836  0.00  0.00    +0.000 C 
ATOM      3  C   UNL     1      -1.550  13.239  20.166  0.00  0.00    +0.000 C 
ATOM      4  C   UNL     1      -0.211  12.856  20.809  0.00  0.00    +0.000 C 
ATOM      5  C   UNL     1      -0.026  11.339  20.944  0.00  0.00    +0.000 C 
ATOM      6  N   UNL     1      -0.138  10.645  19.616  0.00  0.00    +0.000 N 
ENDROOT
BRANCH   6   7
ATOM      7  C   UNL     1       0.768   9.638  19.293  0.00  0.00    +0.000 A 
ATOM      8  C   UNL     1       1.331   9.480  18.013  0.00  0.00    +0.000 A 
ATOM      9  C   UNL     1       2.188   8.422  17.653  0.00  0.00    +0.000 A 
ATOM     10  C   UNL     1       2.542   7.449  18.572  0.00  0.00    +0.000 A 
ATOM     11  C   UNL     1       2.038   7.566  19.849  0.00  0.00    +0.000 A 
ATOM     12  C   UNL     1       1.191   8.636  20.175  0.00  0.00    +0.000 A 
ENDBRANCH   6   7
BRANCH   1  14
ATOM     13  C   UNL     1      -3.416   9.419  18.047  0.00  0.00    +0.000 C 
ATOM     14  C   UNL     1      -2.130  10.231  17.814  0.00  0.00    +0.000 C 
ATOM     15  C   UNL     1      -2.037  11.063  16.521  0.00  0.00    +0.000 C 
ENDBRANCH   1  14
BRANCH   3  16
ATOM     16  N   UNL     1      -2.717  13.093  21.107  0.00  0.00    +0.000 N 
BRANCH  16  17
ATOM     17  C   UNL     1      -4.035  13.441  20.821  0.00  0.00    +0.000 A 
ATOM     18  C   UNL     1      -4.461  14.780  20.817  0.00  0.00    +0.000 A 
ATOM     19  C   UNL     1      -5.817  15.119  20.711  0.00  0.00    +0.000 A 
ATOM     20  C   UNL     1      -6.783  14.124  20.628  0.00  0.00    +0.000 A 
ATOM     21  C   UNL     1      -6.382  12.801  20.541  0.00  0.00    +0.000 A 
ATOM     22  C   UNL     1      -5.021  12.481  20.571  0.00  0.00    +0.000 A 
ENDBRANCH  16  17
BRANCH  16  23
ATOM     23  C   UNL     1      -2.447  12.666  22.497  0.00  0.00    +0.000 C 
BRANCH  23  24
ATOM     24  C   UNL     1      -2.350  13.809  23.497  0.00  0.00    +0.000 A 
ATOM     25  C   UNL     1      -3.440  14.110  24.335  0.00  0.00    +0.000 A 
ATOM     26  C   UNL     1      -3.323  15.052  25.362  0.00  0.00    +0.000 A 
ATOM     27  C   UNL     1      -2.105  15.704  25.567  0.00  0.00    +0.000 A 
ATOM     28  C   UNL     1      -1.026  15.444  24.724  0.00  0.00    +0.000 A 
ATOM     29  C   UNL     1      -1.150  14.504  23.698  0.00  0.00    +0.000 A 
ENDBRANCH  23  24
ENDBRANCH  16  23
ENDBRANCH   3  16
TORSDOF 6
ENDMDL
