MODEL 1
REMARK VINA RESULT:      -8.3      0.000      0.000
REMARK  Name = 
REMARK  4 active torsions:
REMARK  status: ('A' for Active; 'I' for Inactive)
REMARK    1  A    between atoms: C_6  and  C_7
REMARK    2  A    between atoms: C_7  and  N_8
REMARK    3  A    between atoms: N_12  and  C_13
REMARK    4  A    between atoms: N_21  and  C_22
REMARK                            x       y       z     vdW  Elec       q    Type
REMARK                         _______ _______ _______ _____ _____    ______ ____
ROOT
ATOM      1  N   UNL     1       0.921  10.677  18.423  0.00  0.00    +0.000 N 
ATOM      2  C   UNL     1       0.892  10.099  19.680  0.00  0.00    +0.000 A 
ATOM      3  N   UNL     1       1.420   8.899  19.790  0.00  0.00    +0.000 NA
ATOM      4  C   UNL     1       1.343   8.326  20.985  0.00  0.00    +0.000 A 
ATOM      5  N   UNL     1       1.814   7.014  21.136  0.00  0.00    +0.000 N 
ATOM      6  N   UNL     1       0.857   8.928  22.070  0.00  0.00    +0.000 NA
ATOM      7  C   UNL     1       0.357  10.143  21.866  0.00  0.00    +0.000 A 
ATOM      8  N   UNL     1      -0.154  10.841  22.962  0.00  0.00    +0.000 N 
ATOM      9  N   UNL     1       0.341  10.746  20.685  0.00  0.00    +0.000 NA
ATOM     10  H   UNL     1       1.888  10.890  18.208  0.00  0.00    +0.000 HD
ATOM     11  H   UNL     1       1.601   6.701  22.074  0.00  0.00    +0.000 HD
ATOM     12  H   UNL     1      -0.074  10.308  23.815  0.00  0.00    +0.000 HD
ENDROOT
BRANCH   5  13
ATOM     13  C   UNL     1       1.729   5.977  20.180  0.00  0.00    +0.000 A 
ATOM     14  C   UNL     1       2.360   6.146  18.942  0.00  0.00    +0.000 A 
ATOM     15  C   UNL     1       2.319   5.144  17.970  0.00  0.00    +0.000 A 
ATOM     16  C   UNL     1       1.677   3.935  18.238  0.00  0.00    +0.000 A 
ATOM     17  C   UNL     1       1.075   3.736  19.479  0.00  0.00    +0.000 A 
ATOM     18  C   UNL     1       1.101   4.750  20.442  0.00  0.00    +0.000 A 
ENDBRANCH   5  13
BRANCH   8  19
ATOM     19  C   UNL     1      -1.164  11.821  22.952  0.00  0.00    +0.000 A 
ATOM     20  C   UNL     1      -0.911  13.150  22.571  0.00  0.00    +0.000 A 
ATOM     21  C   UNL     1      -1.924  14.111  22.584  0.00  0.00    +0.000 A 
ATOM     22  C   UNL     1      -3.207  13.761  22.992  0.00  0.00    +0.000 A 
ATOM     23  C   UNL     1      -3.476  12.448  23.376  0.00  0.00    +0.000 A 
ATOM     24  C   UNL     1      -2.463  11.482  23.345  0.00  0.00    +0.000 A 
ENDBRANCH   8  19
BRANCH   1  25
ATOM     25  C   UNL     1       0.017  11.796  18.231  0.00  0.00    +0.000 C 
BRANCH  25  31
ATOM     26  F   UNL     1      -4.807  11.868  19.022  0.00  0.00    +0.000 F 
ATOM     27  C   UNL     1      -3.750  11.296  18.429  0.00  0.00    +0.000 A 
ATOM     28  C   UNL     1      -3.933  10.171  17.630  0.00  0.00    +0.000 A 
ATOM     29  C   UNL     1      -2.839   9.571  17.022  0.00  0.00    +0.000 A 
ATOM     30  C   UNL     1      -1.563  10.104  17.216  0.00  0.00    +0.000 A 
ATOM     31  C   UNL     1      -1.374  11.247  18.017  0.00  0.00    +0.000 A 
ATOM     32  C   UNL     1      -2.484  11.838  18.632  0.00  0.00    +0.000 A 
ENDBRANCH  25  31
ENDBRANCH   1  25
TORSDOF 4
ENDMDL
MODEL 2
REMARK VINA RESULT:      -8.3      0.078      1.265
REMARK  Name = 
REMARK  4 active torsions:
REMARK  status: ('A' for Active; 'I' for Inactive)
REMARK    1  A    between atoms: C_6  and  C_7
REMARK    2  A    between atoms: C_7  and  N_8
REMARK    3  A    between atoms: N_12  and  C_13
REMARK    4  A    between atoms: N_21  and  C_22
REMARK                            x       y       z     vdW  Elec       q    Type
REMARK                         _______ _______ _______ _____ _____    ______ ____
ROOT
ATOM      1  N   UNL     1       0.958  10.682  18.423  0.00  0.00    +0.000 N 
ATOM      2  C   UNL     1       0.923  10.094  19.675  0.00  0.00    +0.000 A 
ATOM      3  N   UNL     1       1.460   8.897  19.781  0.00  0.00    +0.000 NA
ATOM      4  C   UNL     1       1.378   8.315  20.970  0.00  0.00    +0.000 A 
ATOM      5  N   UNL     1       1.857   7.005  21.114  0.00  0.00    +0.000 N 
ATOM      6  N   UNL     1       0.878   8.904  22.056  0.00  0.00    +0.000 NA
ATOM      7  C   UNL     1       0.371  10.116  21.857  0.00  0.00    +0.000 A 
ATOM      8  N   UNL     1      -0.155  10.802  22.955  0.00  0.00    +0.000 N 
ATOM      9  N   UNL     1       0.359  10.729  20.681  0.00  0.00    +0.000 NA
ATOM     10  H   UNL     1       1.924  10.905  18.218  0.00  0.00    +0.000 HD
ATOM     11  H   UNL     1       1.639   6.683  22.048  0.00  0.00    +0.000 HD
ATOM     12  H   UNL     1      -0.078  10.262  23.804  0.00  0.00    +0.000 HD
ENDROOT
BRANCH   5  13
ATOM     13  C   UNL     1       1.789   5.975  20.150  0.00  0.00    +0.000 A 
ATOM     14  C   UNL     1       1.132   4.783  20.480  0.00  0.00    +0.000 A 
ATOM     15  C   UNL     1       1.022   3.741  19.557  0.00  0.00    +0.000 A 
ATOM     16  C   UNL     1       1.537   3.891  18.269  0.00  0.00    +0.000 A 
ATOM     17  C   UNL     1       2.162   5.084  17.912  0.00  0.00    +0.000 A 
ATOM     18  C   UNL     1       2.288   6.118  18.847  0.00  0.00    +0.000 A 
ENDBRANCH   5  13
BRANCH   8  19
ATOM     19  C   UNL     1      -1.173  11.774  22.944  0.00  0.00    +0.000 A 
ATOM     20  C   UNL     1      -2.482  11.489  23.366  0.00  0.00    +0.000 A 
ATOM     21  C   UNL     1      -3.482  12.463  23.332  0.00  0.00    +0.000 A 
ATOM     22  C   UNL     1      -3.191  13.739  22.859  0.00  0.00    +0.000 A 
ATOM     23  C   UNL     1      -1.898  14.039  22.433  0.00  0.00    +0.000 A 
ATOM     24  C   UNL     1      -0.893  13.066  22.485  0.00  0.00    +0.000 A 
ENDBRANCH   8  19
BRANCH   1  25
ATOM     25  C   UNL     1       0.046  11.796  18.232  0.00  0.00    +0.000 C 
BRANCH  25  31
ATOM     26  F   UNL     1      -4.775  11.842  19.045  0.00  0.00    +0.000 F 
ATOM     27  C   UNL     1      -3.716  11.274  18.449  0.00  0.00    +0.000 A 
ATOM     28  C   UNL     1      -3.897  10.147  17.654  0.00  0.00    +0.000 A 
ATOM     29  C   UNL     1      -2.802   9.552  17.041  0.00  0.00    +0.000 A 
ATOM     30  C   UNL     1      -1.529  10.092  17.229  0.00  0.00    +0.000 A 
ATOM     31  C   UNL     1      -1.342  11.239  18.026  0.00  0.00    +0.000 A 
ATOM     32  C   UNL     1      -2.453  11.824  18.645  0.00  0.00    +0.000 A 
ENDBRANCH  25  31
ENDBRANCH   1  25
TORSDOF 4
ENDMDL
MODEL 3
REMARK VINA RESULT:      -8.1      0.873      1.533
REMARK  Name = 
REMARK  4 active torsions:
REMARK  status: ('A' for Active; 'I' for Inactive)
REMARK    1  A    between atoms: C_6  and  C_7
REMARK    2  A    between atoms: C_7  and  N_8
REMARK    3  A    between atoms: N_12  and  C_13
REMARK    4  A    between atoms: N_21  and  C_22
REMARK                            x       y       z     vdW  Elec       q    Type
REMARK                         _______ _______ _______ _____ _____    ______ ____
ROOT
ATOM      1  N   UNL     1       0.867  10.876  18.470  0.00  0.00    +0.000 N 
ATOM      2  C   UNL     1       0.835  10.290  19.724  0.00  0.00    +0.000 A 
ATOM      3  N   UNL     1       1.384   9.099  19.833  0.00  0.00    +0.000 NA
ATOM      4  C   UNL     1       1.304   8.518  21.024  0.00  0.00    +0.000 A 
ATOM      5  N   UNL     1       1.796   7.214  21.173  0.00  0.00    +0.000 N 
ATOM      6  N   UNL     1       0.797   9.106  22.108  0.00  0.00    +0.000 NA
ATOM      7  C   UNL     1       0.279  10.313  21.905  0.00  0.00    +0.000 A 
ATOM      8  N   UNL     1      -0.255  10.996  22.999  0.00  0.00    +0.000 N 
ATOM      9  N   UNL     1       0.264  10.922  20.727  0.00  0.00    +0.000 NA
ATOM     10  H   UNL     1       1.833  11.107  18.266  0.00  0.00    +0.000 HD
ATOM     11  H   UNL     1       1.579   6.892  22.106  0.00  0.00    +0.000 HD
ATOM     12  H   UNL     1      -0.175  10.459  23.851  0.00  0.00    +0.000 HD
ENDROOT
BRANCH   5  13
ATOM     13  C   UNL     1       1.739   6.180  20.211  0.00  0.00    +0.000 A 
ATOM     14  C   UNL     1       2.354   6.379  18.969  0.00  0.00    +0.000 A 
ATOM     15  C   UNL     1       2.339   5.382  17.990  0.00  0.00    +0.000 A 
ATOM     16  C   UNL     1       1.740   4.151  18.255  0.00  0.00    +0.000 A 
ATOM     17  C   UNL     1       1.154   3.923  19.499  0.00  0.00    +0.000 A 
ATOM     18  C   UNL     1       1.153   4.932  20.469  0.00  0.00    +0.000 A 
ENDBRANCH   5  13
BRANCH   8  19
ATOM     19  C   UNL     1      -1.282  11.959  22.984  0.00  0.00    +0.000 A 
ATOM     20  C   UNL     1      -2.609  11.640  23.318  0.00  0.00    +0.000 A 
ATOM     21  C   UNL     1      -3.616  12.606  23.281  0.00  0.00    +0.000 A 
ATOM     22  C   UNL     1      -3.315  13.908  22.893  0.00  0.00    +0.000 A 
ATOM     23  C   UNL     1      -2.004  14.241  22.555  0.00  0.00    +0.000 A 
ATOM     24  C   UNL     1      -0.993  13.275  22.610  0.00  0.00    +0.000 A 
ENDBRANCH   8  19
BRANCH   1  25
ATOM     25  C   UNL     1      -0.054  11.980  18.275  0.00  0.00    +0.000 C 
BRANCH  25  31
ATOM     26  F   UNL     1      -3.130   9.015  15.897  0.00  0.00    +0.000 F 
ATOM     27  C   UNL     1      -2.932   9.946  16.842  0.00  0.00    +0.000 A 
ATOM     28  C   UNL     1      -4.011  10.407  17.590  0.00  0.00    +0.000 A 
ATOM     29  C   UNL     1      -3.811  11.377  18.564  0.00  0.00    +0.000 A 
ATOM     30  C   UNL     1      -2.528  11.879  18.784  0.00  0.00    +0.000 A 
ATOM     31  C   UNL     1      -1.431  11.409  18.035  0.00  0.00    +0.000 A 
ATOM     32  C   UNL     1      -1.647  10.437  17.051  0.00  0.00    +0.000 A 
ENDBRANCH  25  31
ENDBRANCH   1  25
TORSDOF 4
ENDMDL
MODEL 4
REMARK VINA RESULT:      -8.1      1.434      1.979
REMARK  Name = 
REMARK  4 active torsions:
REMARK  status: ('A' for Active; 'I' for Inactive)
REMARK    1  A    between atoms: C_6  and  C_7
REMARK    2  A    between atoms: C_7  and  N_8
REMARK    3  A    between atoms: N_12  and  C_13
REMARK    4  A    between atoms: N_21  and  C_22
REMARK                            x       y       z     vdW  Elec       q    Type
REMARK                         _______ _______ _______ _____ _____    ______ ____
ROOT
ATOM      1  N   UNL     1       0.192  11.574  18.626  0.00  0.00    +0.000 N 
ATOM      2  C   UNL     1       0.189  10.960  19.866  0.00  0.00    +0.000 A 
ATOM      3  N   UNL     1       0.965   9.906  20.004  0.00  0.00    +0.000 NA
ATOM      4  C   UNL     1       0.919   9.288  21.178  0.00  0.00    +0.000 A 
ATOM      5  N   UNL     1       1.661   8.111  21.350  0.00  0.00    +0.000 N 
ATOM      6  N   UNL     1       0.219   9.726  22.225  0.00  0.00    +0.000 NA
ATOM      7  C   UNL     1      -0.523  10.804  21.995  0.00  0.00    +0.000 A 
ATOM      8  N   UNL     1      -1.270  11.330  23.052  0.00  0.00    +0.000 N 
ATOM      9  N   UNL     1      -0.577  11.430  20.828  0.00  0.00    +0.000 NA
ATOM     10  H   UNL     1       1.099  12.007  18.502  0.00  0.00    +0.000 HD
ATOM     11  H   UNL     1       1.446   7.725  22.259  0.00  0.00    +0.000 HD
ATOM     12  H   UNL     1      -1.144  10.798  23.900  0.00  0.00    +0.000 HD
ENDROOT
BRANCH   5  13
ATOM     13  C   UNL     1       1.894   7.116  20.374  0.00  0.00    +0.000 A 
ATOM     14  C   UNL     1       1.567   5.788  20.672  0.00  0.00    +0.000 A 
ATOM     15  C   UNL     1       1.763   4.770  19.736  0.00  0.00    +0.000 A 
ATOM     16  C   UNL     1       2.256   5.073  18.467  0.00  0.00    +0.000 A 
ATOM     17  C   UNL     1       2.554   6.395  18.141  0.00  0.00    +0.000 A 
ATOM     18  C   UNL     1       2.375   7.408  19.089  0.00  0.00    +0.000 A 
ENDBRANCH   5  13
BRANCH   8  19
ATOM     19  C   UNL     1      -2.472  12.058  22.966  0.00  0.00    +0.000 A 
ATOM     20  C   UNL     1      -2.832  12.770  21.810  0.00  0.00    +0.000 A 
ATOM     21  C   UNL     1      -4.021  13.500  21.751  0.00  0.00    +0.000 A 
ATOM     22  C   UNL     1      -4.865  13.541  22.856  0.00  0.00    +0.000 A 
ATOM     23  C   UNL     1      -4.522  12.843  24.013  0.00  0.00    +0.000 A 
ATOM     24  C   UNL     1      -3.338  12.098  24.063  0.00  0.00    +0.000 A 
ENDBRANCH   8  19
BRANCH   1  25
ATOM     25  C   UNL     1      -0.923  12.468  18.371  0.00  0.00    +0.000 C 
BRANCH  25  31
ATOM     26  F   UNL     1      -2.834   9.223  15.253  0.00  0.00    +0.000 F 
ATOM     27  C   UNL     1      -3.002  10.050  16.294  0.00  0.00    +0.000 A 
ATOM     28  C   UNL     1      -4.257  10.170  16.884  0.00  0.00    +0.000 A 
ATOM     29  C   UNL     1      -4.435  11.032  17.958  0.00  0.00    +0.000 A 
ATOM     30  C   UNL     1      -3.352  11.770  18.438  0.00  0.00    +0.000 A 
ATOM     31  C   UNL     1      -2.077  11.645  17.849  0.00  0.00    +0.000 A 
ATOM     32  C   UNL     1      -1.912  10.780  16.762  0.00  0.00    +0.000 A 
ENDBRANCH  25  31
ENDBRANCH   1  25
TORSDOF 4
ENDMDL
MODEL 5
REMARK VINA RESULT:      -8.0      0.805      1.237
REMARK  Name = 
REMARK  4 active torsions:
REMARK  status: ('A' for Active; 'I' for Inactive)
REMARK    1  A    between atoms: C_6  and  C_7
REMARK    2  A    between atoms: C_7  and  N_8
REMARK    3  A    between atoms: N_12  and  C_13
REMARK    4  A    between atoms: N_21  and  C_22
REMARK                            x       y       z     vdW  Elec       q    Type
REMARK                         _______ _______ _______ _____ _____    ______ ____
ROOT
ATOM      1  N   UNL     1       0.116  10.759  18.327  0.00  0.00    +0.000 N 
ATOM      2  C   UNL     1       0.383  10.283  19.598  0.00  0.00    +0.000 A 
ATOM      3  N   UNL     1       1.071   9.164  19.678  0.00  0.00    +0.000 NA
ATOM      4  C   UNL     1       1.280   8.684  20.897  0.00  0.00    +0.000 A 
ATOM      5  N   UNL     1       1.933   7.450  21.033  0.00  0.00    +0.000 N 
ATOM      6  N   UNL     1       0.920   9.310  22.018  0.00  0.00    +0.000 NA
ATOM      7  C   UNL     1       0.242  10.439  21.840  0.00  0.00    +0.000 A 
ATOM      8  N   UNL     1      -0.153  11.159  22.970  0.00  0.00    +0.000 N 
ATOM      9  N   UNL     1      -0.059  10.941  20.650  0.00  0.00    +0.000 NA
ATOM     10  H   UNL     1       0.995  11.065  17.925  0.00  0.00    +0.000 HD
ATOM     11  H   UNL     1       1.930   7.191  22.011  0.00  0.00    +0.000 HD
ATOM     12  H   UNL     1       0.143  10.708  23.823  0.00  0.00    +0.000 HD
ENDROOT
BRANCH   5  13
ATOM     13  C   UNL     1       1.813   6.337  20.171  0.00  0.00    +0.000 A 
ATOM     14  C   UNL     1       2.380   6.409  18.893  0.00  0.00    +0.000 A 
ATOM     15  C   UNL     1       2.304   5.330  18.009  0.00  0.00    +0.000 A 
ATOM     16  C   UNL     1       1.689   4.143  18.407  0.00  0.00    +0.000 A 
ATOM     17  C   UNL     1       1.151   4.042  19.688  0.00  0.00    +0.000 A 
ATOM     18  C   UNL     1       1.212   5.132  20.563  0.00  0.00    +0.000 A 
ENDBRANCH   5  13
BRANCH   8  19
ATOM     19  C   UNL     1      -1.265  12.013  23.090  0.00  0.00    +0.000 A 
ATOM     20  C   UNL     1      -2.555  11.525  23.356  0.00  0.00    +0.000 A 
ATOM     21  C   UNL     1      -3.649  12.387  23.456  0.00  0.00    +0.000 A 
ATOM     22  C   UNL     1      -3.472  13.755  23.275  0.00  0.00    +0.000 A 
ATOM     23  C   UNL     1      -2.200  14.257  23.007  0.00  0.00    +0.000 A 
ATOM     24  C   UNL     1      -1.102  13.392  22.925  0.00  0.00    +0.000 A 
ENDBRANCH   8  19
BRANCH   1  25
ATOM     25  C   UNL     1      -0.943  11.748  18.241  0.00  0.00    +0.000 C 
BRANCH  25  31
ATOM     26  F   UNL     1      -5.608  11.637  16.783  0.00  0.00    +0.000 F 
ATOM     27  C   UNL     1      -4.370  11.128  16.710  0.00  0.00    +0.000 A 
ATOM     28  C   UNL     1      -4.121  10.041  15.878  0.00  0.00    +0.000 A 
ATOM     29  C   UNL     1      -2.841   9.505  15.806  0.00  0.00    +0.000 A 
ATOM     30  C   UNL     1      -1.816  10.065  16.570  0.00  0.00    +0.000 A 
ATOM     31  C   UNL     1      -2.062  11.171  17.408  0.00  0.00    +0.000 A 
ATOM     32  C   UNL     1      -3.357  11.696  17.478  0.00  0.00    +0.000 A 
ENDBRANCH  25  31
ENDBRANCH   1  25
TORSDOF 4
ENDMDL
MODEL 6
REMARK VINA RESULT:      -8.0      0.951      1.609
REMARK  Name = 
REMARK  4 active torsions:
REMARK  status: ('A' for Active; 'I' for Inactive)
REMARK    1  A    between atoms: C_6  and  C_7
REMARK    2  A    between atoms: C_7  and  N_8
REMARK    3  A    between atoms: N_12  and  C_13
REMARK    4  A    between atoms: N_21  and  C_22
REMARK                            x       y       z     vdW  Elec       q    Type
REMARK                         _______ _______ _______ _____ _____    ______ ____
ROOT
ATOM      1  N   UNL     1       0.333  11.535  18.544  0.00  0.00    +0.000 N 
ATOM      2  C   UNL     1       0.349  10.965  19.805  0.00  0.00    +0.000 A 
ATOM      3  N   UNL     1       1.091   9.889  19.957  0.00  0.00    +0.000 NA
ATOM      4  C   UNL     1       1.063   9.315  21.154  0.00  0.00    +0.000 A 
ATOM      5  N   UNL     1       1.767   8.117  21.345  0.00  0.00    +0.000 N 
ATOM      6  N   UNL     1       0.414   9.816  22.206  0.00  0.00    +0.000 NA
ATOM      7  C   UNL     1      -0.296  10.912  21.961  0.00  0.00    +0.000 A 
ATOM      8  N   UNL     1      -0.988  11.503  23.021  0.00  0.00    +0.000 N 
ATOM      9  N   UNL     1      -0.366  11.498  20.774  0.00  0.00    +0.000 NA
ATOM     10  H   UNL     1       1.251  11.929  18.376  0.00  0.00    +0.000 HD
ATOM     11  H   UNL     1       1.569   7.772  22.274  0.00  0.00    +0.000 HD
ATOM     12  H   UNL     1      -0.852  10.996  23.884  0.00  0.00    +0.000 HD
ENDROOT
BRANCH   5  13
ATOM     13  C   UNL     1       1.931   7.081  20.399  0.00  0.00    +0.000 A 
ATOM     14  C   UNL     1       1.529   5.784  20.741  0.00  0.00    +0.000 A 
ATOM     15  C   UNL     1       1.655   4.728  19.836  0.00  0.00    +0.000 A 
ATOM     16  C   UNL     1       2.152   4.962  18.554  0.00  0.00    +0.000 A 
ATOM     17  C   UNL     1       2.524   6.253  18.184  0.00  0.00    +0.000 A 
ATOM     18  C   UNL     1       2.415   7.304  19.101  0.00  0.00    +0.000 A 
ENDBRANCH   5  13
BRANCH   8  19
ATOM     19  C   UNL     1      -2.164  12.271  22.947  0.00  0.00    +0.000 A 
ATOM     20  C   UNL     1      -3.242  12.071  23.825  0.00  0.00    +0.000 A 
ATOM     21  C   UNL     1      -4.408  12.833  23.725  0.00  0.00    +0.000 A 
ATOM     22  C   UNL     1      -4.521  13.801  22.732  0.00  0.00    +0.000 A 
ATOM     23  C   UNL     1      -3.462  14.012  21.850  0.00  0.00    +0.000 A 
ATOM     24  C   UNL     1      -2.287  13.258  21.964  0.00  0.00    +0.000 A 
ENDBRANCH   8  19
BRANCH   1  25
ATOM     25  C   UNL     1      -0.757  12.460  18.293  0.00  0.00    +0.000 C 
BRANCH  25  31
ATOM     26  F   UNL     1      -5.491  11.387  18.871  0.00  0.00    +0.000 F 
ATOM     27  C   UNL     1      -4.324  11.137  18.262  0.00  0.00    +0.000 A 
ATOM     28  C   UNL     1      -4.242  10.110  17.325  0.00  0.00    +0.000 A 
ATOM     29  C   UNL     1      -3.032   9.843  16.698  0.00  0.00    +0.000 A 
ATOM     30  C   UNL     1      -1.909  10.610  17.012  0.00  0.00    +0.000 A 
ATOM     31  C   UNL     1      -1.989  11.656  17.953  0.00  0.00    +0.000 A 
ATOM     32  C   UNL     1      -3.212  11.909  18.584  0.00  0.00    +0.000 A 
ENDBRANCH  25  31
ENDBRANCH   1  25
TORSDOF 4
ENDMDL
MODEL 7
REMARK VINA RESULT:      -7.9      7.939     11.055
REMARK  Name = 
REMARK  4 active torsions:
REMARK  status: ('A' for Active; 'I' for Inactive)
REMARK    1  A    between atoms: C_6  and  C_7
REMARK    2  A    between atoms: C_7  and  N_8
REMARK    3  A    between atoms: N_12  and  C_13
REMARK    4  A    between atoms: N_21  and  C_22
REMARK                            x       y       z     vdW  Elec       q    Type
REMARK                         _______ _______ _______ _____ _____    ______ ____
ROOT
ATOM      1  N   UNL     1       6.891  15.691  21.269  0.00  0.00    +0.000 N 
ATOM      2  C   UNL     1       6.826  15.224  19.968  0.00  0.00    +0.000 A 
ATOM      3  N   UNL     1       5.665  15.336  19.358  0.00  0.00    +0.000 NA
ATOM      4  C   UNL     1       5.593  14.841  18.129  0.00  0.00    +0.000 A 
ATOM      5  N   UNL     1       4.357  14.857  17.467  0.00  0.00    +0.000 N 
ATOM      6  N   UNL     1       6.633  14.336  17.466  0.00  0.00    +0.000 NA
ATOM      7  C   UNL     1       7.767  14.276  18.156  0.00  0.00    +0.000 A 
ATOM      8  N   UNL     1       8.904  13.775  17.519  0.00  0.00    +0.000 N 
ATOM      9  N   UNL     1       7.892  14.691  19.409  0.00  0.00    +0.000 NA
ATOM     10  H   UNL     1       6.807  16.700  21.236  0.00  0.00    +0.000 HD
ATOM     11  H   UNL     1       4.455  14.366  16.588  0.00  0.00    +0.000 HD
ATOM     12  H   UNL     1       8.711  13.509  16.564  0.00  0.00    +0.000 HD
ENDROOT
BRANCH   5  13
ATOM     13  C   UNL     1       3.086  14.672  18.057  0.00  0.00    +0.000 A 
ATOM     14  C   UNL     1       2.650  13.370  18.328  0.00  0.00    +0.000 A 
ATOM     15  C   UNL     1       1.409  13.136  18.925  0.00  0.00    +0.000 A 
ATOM     16  C   UNL     1       0.599  14.208  19.298  0.00  0.00    +0.000 A 
ATOM     17  C   UNL     1       1.033  15.512  19.068  0.00  0.00    +0.000 A 
ATOM     18  C   UNL     1       2.267  15.742  18.451  0.00  0.00    +0.000 A 
ENDBRANCH   5  13
BRANCH   8  19
ATOM     19  C   UNL     1      10.001  13.128  18.118  0.00  0.00    +0.000 A 
ATOM     20  C   UNL     1       9.897  11.843  18.674  0.00  0.00    +0.000 A 
ATOM     21  C   UNL     1      10.993  11.224  19.279  0.00  0.00    +0.000 A 
ATOM     22  C   UNL     1      12.212  11.891  19.351  0.00  0.00    +0.000 A 
ATOM     23  C   UNL     1      12.333  13.169  18.808  0.00  0.00    +0.000 A 
ATOM     24  C   UNL     1      11.237  13.779  18.186  0.00  0.00    +0.000 A 
ENDBRANCH   8  19
BRANCH   1  25
ATOM     25  C   UNL     1       8.027  15.222  22.042  0.00  0.00    +0.000 C 
BRANCH  25  31
ATOM     26  F   UNL     1       5.302  12.991  25.433  0.00  0.00    +0.000 F 
ATOM     27  C   UNL     1       6.254  12.914  24.493  0.00  0.00    +0.000 A 
ATOM     28  C   UNL     1       6.873  11.694  24.238  0.00  0.00    +0.000 A 
ATOM     29  C   UNL     1       7.865  11.612  23.270  0.00  0.00    +0.000 A 
ATOM     30  C   UNL     1       8.231  12.757  22.559  0.00  0.00    +0.000 A 
ATOM     31  C   UNL     1       7.601  13.992  22.808  0.00  0.00    +0.000 A 
ATOM     32  C   UNL     1       6.609  14.063  23.792  0.00  0.00    +0.000 A 
ENDBRANCH  25  31
ENDBRANCH   1  25
TORSDOF 4
ENDMDL
MODEL 8
REMARK VINA RESULT:      -7.9      2.275      3.490
REMARK  Name = 
REMARK  4 active torsions:
REMARK  status: ('A' for Active; 'I' for Inactive)
REMARK    1  A    between atoms: C_6  and  C_7
REMARK    2  A    between atoms: C_7  and  N_8
REMARK    3  A    between atoms: N_12  and  C_13
REMARK    4  A    between atoms: N_21  and  C_22
REMARK                            x       y       z     vdW  Elec       q    Type
REMARK                         _______ _______ _______ _____ _____    ______ ____
ROOT
ATOM      1  N   UNL     1       0.971  10.452  18.310  0.00  0.00    +0.000 N 
ATOM      2  C   UNL     1       0.962   9.885  19.572  0.00  0.00    +0.000 A 
ATOM      3  N   UNL     1       1.496   8.687  19.685  0.00  0.00    +0.000 NA
ATOM      4  C   UNL     1       1.439   8.125  20.886  0.00  0.00    +0.000 A 
ATOM      5  N   UNL     1       1.916   6.816  21.042  0.00  0.00    +0.000 N 
ATOM      6  N   UNL     1       0.968   8.736  21.974  0.00  0.00    +0.000 NA
ATOM      7  C   UNL     1       0.462   9.947  21.766  0.00  0.00    +0.000 A 
ATOM      8  N   UNL     1      -0.035  10.654  22.863  0.00  0.00    +0.000 N 
ATOM      9  N   UNL     1       0.426  10.539  20.580  0.00  0.00    +0.000 NA
ATOM     10  H   UNL     1       1.933  10.666  18.078  0.00  0.00    +0.000 HD
ATOM     11  H   UNL     1       1.718   6.511  21.985  0.00  0.00    +0.000 HD
ATOM     12  H   UNL     1       0.059  10.128  23.720  0.00  0.00    +0.000 HD
ENDROOT
BRANCH   5  13
ATOM     13  C   UNL     1       1.820   5.770  20.097  0.00  0.00    +0.000 A 
ATOM     14  C   UNL     1       1.132   4.603  20.449  0.00  0.00    +0.000 A 
ATOM     15  C   UNL     1       0.995   3.546  19.545  0.00  0.00    +0.000 A 
ATOM     16  C   UNL     1       1.513   3.659  18.255  0.00  0.00    +0.000 A 
ATOM     17  C   UNL     1       2.170   4.828  17.876  0.00  0.00    +0.000 A 
ATOM     18  C   UNL     1       2.323   5.875  18.791  0.00  0.00    +0.000 A 
ENDBRANCH   5  13
BRANCH   8  19
ATOM     19  C   UNL     1      -1.048  11.631  22.860  0.00  0.00    +0.000 A 
ATOM     20  C   UNL     1      -2.327  11.381  23.385  0.00  0.00    +0.000 A 
ATOM     21  C   UNL     1      -3.324  12.359  23.357  0.00  0.00    +0.000 A 
ATOM     22  C   UNL     1      -3.062  13.600  22.788  0.00  0.00    +0.000 A 
ATOM     23  C   UNL     1      -1.799  13.864  22.258  0.00  0.00    +0.000 A 
ATOM     24  C   UNL     1      -0.796  12.889  22.303  0.00  0.00    +0.000 A 
ENDBRANCH   8  19
BRANCH   1  25
ATOM     25  C   UNL     1       0.060  11.566  18.122  0.00  0.00    +0.000 C 
BRANCH  25  31
ATOM     26  F   UNL     1       4.216  14.141  18.050  0.00  0.00    +0.000 F 
ATOM     27  C   UNL     1       2.898  14.096  18.290  0.00  0.00    +0.000 A 
ATOM     28  C   UNL     1       2.242  15.233  18.754  0.00  0.00    +0.000 A 
ATOM     29  C   UNL     1       0.878  15.186  19.011  0.00  0.00    +0.000 A 
ATOM     30  C   UNL     1       0.177  13.998  18.801  0.00  0.00    +0.000 A 
ATOM     31  C   UNL     1       0.834  12.847  18.323  0.00  0.00    +0.000 A 
ATOM     32  C   UNL     1       2.211  12.904  18.076  0.00  0.00    +0.000 A 
ENDBRANCH  25  31
ENDBRANCH   1  25
TORSDOF 4
ENDMDL
MODEL 9
REMARK VINA RESULT:      -7.9      7.893     10.991
REMARK  Name = 
REMARK  4 active torsions:
REMARK  status: ('A' for Active; 'I' for Inactive)
REMARK    1  A    between atoms: C_6  and  C_7
REMARK    2  A    between atoms: C_7  and  N_8
REMARK    3  A    between atoms: N_12  and  C_13
REMARK    4  A    between atoms: N_21  and  C_22
REMARK                            x       y       z     vdW  Elec       q    Type
REMARK                         _______ _______ _______ _____ _____    ______ ____
ROOT
ATOM      1  N   UNL     1       6.869  15.716  21.234  0.00  0.00    +0.000 N 
ATOM      2  C   UNL     1       6.793  15.232  19.940  0.00  0.00    +0.000 A 
ATOM      3  N   UNL     1       5.631  15.349  19.333  0.00  0.00    +0.000 NA
ATOM      4  C   UNL     1       5.547  14.836  18.112  0.00  0.00    +0.000 A 
ATOM      5  N   UNL     1       4.308  14.857  17.455  0.00  0.00    +0.000 N 
ATOM      6  N   UNL     1       6.579  14.309  17.452  0.00  0.00    +0.000 NA
ATOM      7  C   UNL     1       7.714  14.246  18.138  0.00  0.00    +0.000 A 
ATOM      8  N   UNL     1       8.843  13.722  17.504  0.00  0.00    +0.000 N 
ATOM      9  N   UNL     1       7.850  14.677  19.385  0.00  0.00    +0.000 NA
ATOM     10  H   UNL     1       6.796  16.725  21.187  0.00  0.00    +0.000 HD
ATOM     11  H   UNL     1       4.397  14.353  16.583  0.00  0.00    +0.000 HD
ATOM     12  H   UNL     1       8.642  13.444  16.554  0.00  0.00    +0.000 HD
ENDROOT
BRANCH   5  13
ATOM     13  C   UNL     1       3.038  14.697  18.052  0.00  0.00    +0.000 A 
ATOM     14  C   UNL     1       2.262  15.834  18.305  0.00  0.00    +0.000 A 
ATOM     15  C   UNL     1       0.993  15.728  18.880  0.00  0.00    +0.000 A 
ATOM     16  C   UNL     1       0.463  14.472  19.175  0.00  0.00    +0.000 A 
ATOM     17  C   UNL     1       1.207  13.327  18.897  0.00  0.00    +0.000 A 
ATOM     18  C   UNL     1       2.486  13.440  18.340  0.00  0.00    +0.000 A 
ENDBRANCH   5  13
BRANCH   8  19
ATOM     19  C   UNL     1       9.935  13.070  18.108  0.00  0.00    +0.000 A 
ATOM     20  C   UNL     1      11.254  13.529  17.957  0.00  0.00    +0.000 A 
ATOM     21  C   UNL     1      12.325  12.859  18.552  0.00  0.00    +0.000 A 
ATOM     22  C   UNL     1      12.095  11.707  19.297  0.00  0.00    +0.000 A 
ATOM     23  C   UNL     1      10.793  11.235  19.454  0.00  0.00    +0.000 A 
ATOM     24  C   UNL     1       9.719  11.919  18.872  0.00  0.00    +0.000 A 
ENDBRANCH   8  19
BRANCH   1  25
ATOM     25  C   UNL     1       8.002  15.246  22.009  0.00  0.00    +0.000 C 
BRANCH  25  31
ATOM     26  F   UNL     1       5.266  13.039  25.408  0.00  0.00    +0.000 F 
ATOM     27  C   UNL     1       6.218  12.954  24.468  0.00  0.00    +0.000 A 
ATOM     28  C   UNL     1       6.831  11.730  24.217  0.00  0.00    +0.000 A 
ATOM     29  C   UNL     1       7.823  11.641  23.249  0.00  0.00    +0.000 A 
ATOM     30  C   UNL     1       8.195  12.781  22.535  0.00  0.00    +0.000 A 
ATOM     31  C   UNL     1       7.571  14.020  22.779  0.00  0.00    +0.000 A 
ATOM     32  C   UNL     1       6.579  14.099  23.763  0.00  0.00    +0.000 A 
ENDBRANCH  25  31
ENDBRANCH   1  25
TORSDOF 4
ENDMDL
