MODEL 1
REMARK VINA RESULT:      -7.0      0.000      0.000
REMARK  Name = 
REMARK  10 active torsions:
REMARK  status: ('A' for Active; 'I' for Inactive)
REMARK    1  A    between atoms: C_1  and  O_2
REMARK    2  A    between atoms: O_2  and  C_3
REMARK    3  A    between atoms: C_6  and  C_7
REMARK    4  A    between atoms: N_10  and  O_11
REMARK    5  A    between atoms: O_11  and  C_12
REMARK    6  A    between atoms: C_12  and  C_14
REMARK    7  A    between atoms: C_22  and  C_23
REMARK    8  A    between atoms: C_26  and  O_27
REMARK    9  A    between atoms: O_27  and  C_28
REMARK   10  A    between atoms: N_31  and  C_32
REMARK                            x       y       z     vdW  Elec       q    Type
REMARK                         _______ _______ _______ _____ _____    ______ ____
ROOT
ATOM      1  C   UNL     1       0.365  10.949  19.857  0.00  0.00    +0.000 C 
ATOM      2  C   UNL     1       1.398  12.065  20.165  0.00  0.00    +0.000 C 
ATOM      3  C   UNL     1       0.723  13.404  20.365  0.00  0.00    +0.000 C 
ATOM      4  N   UNL     1       1.029  14.113  21.411  0.00  0.00    +0.000 NA
ATOM      5  C   UNL     1      -0.279  13.786  19.309  0.00  0.00    +0.000 C 
ATOM      6  C   UNL     1      -1.317  12.663  19.198  0.00  0.00    +0.000 C 
ATOM      7  N   UNL     1      -0.666  11.365  18.877  0.00  0.00    +0.000 NA
ATOM      8  C   UNL     1      -1.671  10.322  18.634  0.00  0.00    +0.000 C 
ENDROOT
BRANCH   1  12
ATOM      9  C   UNL     1       2.542   7.378  18.666  0.00  0.00    +0.000 A 
ATOM     10  C   UNL     1       2.004   7.482  19.948  0.00  0.00    +0.000 A 
ATOM     11  C   UNL     1       1.287   8.621  20.325  0.00  0.00    +0.000 A 
ATOM     12  C   UNL     1       1.116   9.688  19.427  0.00  0.00    +0.000 A 
ATOM     13  C   UNL     1       1.645   9.564  18.137  0.00  0.00    +0.000 A 
ATOM     14  C   UNL     1       2.364   8.427  17.764  0.00  0.00    +0.000 A 
BRANCH   9  16
ATOM     15  C   UNL     1       2.471   5.128  17.969  0.00  0.00    +0.000 C 
ATOM     16  O   UNL     1       3.250   6.237  18.406  0.00  0.00    +0.000 OA
ENDBRANCH   9  16
ENDBRANCH   1  12
BRANCH   6  17
ATOM     17  C   UNL     1      -2.282  12.653  20.388  0.00  0.00    +0.000 A 
ATOM     18  C   UNL     1      -3.633  12.977  20.204  0.00  0.00    +0.000 A 
ATOM     19  C   UNL     1      -4.526  12.969  21.284  0.00  0.00    +0.000 A 
ATOM     20  C   UNL     1      -4.096  12.614  22.565  0.00  0.00    +0.000 A 
ATOM     21  C   UNL     1      -2.758  12.314  22.764  0.00  0.00    +0.000 A 
ATOM     22  C   UNL     1      -1.872  12.334  21.695  0.00  0.00    +0.000 A 
BRANCH  20  23
ATOM     23  O   UNL     1      -5.041  12.618  23.550  0.00  0.00    +0.000 OA
ATOM     24  C   UNL     1      -4.549  12.285  24.847  0.00  0.00    +0.000 C 
ENDBRANCH  20  23
ENDBRANCH   6  17
BRANCH   4  25
ATOM     25  O   UNL     1       0.270  15.302  21.499  0.00  0.00    +0.000 OA
BRANCH  25  26
ATOM     26  C   UNL     1       0.243  15.750  22.791  0.00  0.00    +0.000 C 
ATOM     27  O   UNL     1       1.196  16.111  23.471  0.00  0.00    +0.000 OA
BRANCH  26  28
ATOM     28  C   UNL     1      -1.151  15.776  23.323  0.00  0.00    +0.000 A 
ATOM     29  C   UNL     1      -2.180  16.162  22.450  0.00  0.00    +0.000 A 
ATOM     30  C   UNL     1      -3.509  16.210  22.885  0.00  0.00    +0.000 A 
ATOM     31  C   UNL     1      -3.809  15.868  24.201  0.00  0.00    +0.000 A 
ATOM     32  F   UNL     1      -5.077  15.916  24.624  0.00  0.00    +0.000 F 
ATOM     33  C   UNL     1      -2.805  15.489  25.087  0.00  0.00    +0.000 A 
ATOM     34  C   UNL     1      -1.474  15.440  24.649  0.00  0.00    +0.000 A 
ENDBRANCH  26  28
ENDBRANCH  25  26
ENDBRANCH   4  25
TORSDOF 7
ENDMDL
MODEL 2
REMARK VINA RESULT:      -6.9      0.495      1.264
REMARK  Name = 
REMARK  10 active torsions:
REMARK  status: ('A' for Active; 'I' for Inactive)
REMARK    1  A    between atoms: C_1  and  O_2
REMARK    2  A    between atoms: O_2  and  C_3
REMARK    3  A    between atoms: C_6  and  C_7
REMARK    4  A    between atoms: N_10  and  O_11
REMARK    5  A    between atoms: O_11  and  C_12
REMARK    6  A    between atoms: C_12  and  C_14
REMARK    7  A    between atoms: C_22  and  C_23
REMARK    8  A    between atoms: C_26  and  O_27
REMARK    9  A    between atoms: O_27  and  C_28
REMARK   10  A    between atoms: N_31  and  C_32
REMARK                            x       y       z     vdW  Elec       q    Type
REMARK                         _______ _______ _______ _____ _____    ______ ____
ROOT
ATOM      1  C   UNL     1       0.284  11.051  19.985  0.00  0.00    +0.000 C 
ATOM      2  C   UNL     1       1.279  12.209  20.258  0.00  0.00    +0.000 C 
ATOM      3  C   UNL     1       0.554  13.514  20.511  0.00  0.00    +0.000 C 
ATOM      4  N   UNL     1       0.878  14.222  21.551  0.00  0.00    +0.000 NA
ATOM      5  C   UNL     1      -0.515  13.861  19.511  0.00  0.00    +0.000 C 
ATOM      6  C   UNL     1      -1.505  12.693  19.434  0.00  0.00    +0.000 C 
ATOM      7  N   UNL     1      -0.812  11.431  19.063  0.00  0.00    +0.000 NA
ATOM      8  C   UNL     1      -1.779  10.345  18.854  0.00  0.00    +0.000 C 
ENDROOT
BRANCH   1  12
ATOM      9  C   UNL     1       2.474   7.569  18.573  0.00  0.00    +0.000 A 
ATOM     10  C   UNL     1       2.285   8.671  17.739  0.00  0.00    +0.000 A 
ATOM     11  C   UNL     1       1.598   9.798  18.198  0.00  0.00    +0.000 A 
ATOM     12  C   UNL     1       1.070   9.831  19.500  0.00  0.00    +0.000 A 
ATOM     13  C   UNL     1       1.283   8.727  20.334  0.00  0.00    +0.000 A 
ATOM     14  C   UNL     1       1.965   7.601  19.870  0.00  0.00    +0.000 A 
BRANCH   9  16
ATOM     15  C   UNL     1       3.168   5.331  18.821  0.00  0.00    +0.000 C 
ATOM     16  O   UNL     1       3.132   6.507  18.018  0.00  0.00    +0.000 OA
ENDBRANCH   9  16
ENDBRANCH   1  12
BRANCH   6  17
ATOM     17  C   UNL     1      -2.409  12.623  20.670  0.00  0.00    +0.000 A 
ATOM     18  C   UNL     1      -1.886  12.218  21.905  0.00  0.00    +0.000 A 
ATOM     19  C   UNL     1      -2.702  12.153  23.042  0.00  0.00    +0.000 A 
ATOM     20  C   UNL     1      -4.051  12.513  22.976  0.00  0.00    +0.000 A 
ATOM     21  C   UNL     1      -4.585  12.891  21.756  0.00  0.00    +0.000 A 
ATOM     22  C   UNL     1      -3.777  12.944  20.626  0.00  0.00    +0.000 A 
BRANCH  20  23
ATOM     23  O   UNL     1      -4.762  12.434  24.139  0.00  0.00    +0.000 OA
ATOM     24  C   UNL     1      -6.143  12.765  24.014  0.00  0.00    +0.000 C 
ENDBRANCH  20  23
ENDBRANCH   6  17
BRANCH   4  25
ATOM     25  O   UNL     1       0.072  15.374  21.694  0.00  0.00    +0.000 OA
BRANCH  25  26
ATOM     26  C   UNL     1      -0.028  15.720  23.013  0.00  0.00    +0.000 C 
ATOM     27  O   UNL     1       0.890  15.980  23.783  0.00  0.00    +0.000 OA
BRANCH  26  28
ATOM     28  C   UNL     1      -1.453  15.774  23.450  0.00  0.00    +0.000 A 
ATOM     29  C   UNL     1      -2.413  16.185  22.512  0.00  0.00    +0.000 A 
ATOM     30  C   UNL     1      -3.767  16.260  22.858  0.00  0.00    +0.000 A 
ATOM     31  C   UNL     1      -4.161  15.919  24.149  0.00  0.00    +0.000 A 
ATOM     32  F   UNL     1      -5.454  15.992  24.486  0.00  0.00    +0.000 F 
ATOM     33  C   UNL     1      -3.227  15.515  25.098  0.00  0.00    +0.000 A 
ATOM     34  C   UNL     1      -1.871  15.440  24.750  0.00  0.00    +0.000 A 
ENDBRANCH  26  28
ENDBRANCH  25  26
ENDBRANCH   4  25
TORSDOF 7
ENDMDL
MODEL 3
REMARK VINA RESULT:      -6.8      0.588      1.023
REMARK  Name = 
REMARK  10 active torsions:
REMARK  status: ('A' for Active; 'I' for Inactive)
REMARK    1  A    between atoms: C_1  and  O_2
REMARK    2  A    between atoms: O_2  and  C_3
REMARK    3  A    between atoms: C_6  and  C_7
REMARK    4  A    between atoms: N_10  and  O_11
REMARK    5  A    between atoms: O_11  and  C_12
REMARK    6  A    between atoms: C_12  and  C_14
REMARK    7  A    between atoms: C_22  and  C_23
REMARK    8  A    between atoms: C_26  and  O_27
REMARK    9  A    between atoms: O_27  and  C_28
REMARK   10  A    between atoms: N_31  and  C_32
REMARK                            x       y       z     vdW  Elec       q    Type
REMARK                         _______ _______ _______ _____ _____    ______ ____
ROOT
ATOM      1  C   UNL     1       0.398  10.879  19.752  0.00  0.00    +0.000 C 
ATOM      2  C   UNL     1       1.434  12.012  19.972  0.00  0.00    +0.000 C 
ATOM      3  C   UNL     1       0.755  13.343  20.213  0.00  0.00    +0.000 C 
ATOM      4  N   UNL     1       1.128  14.065  21.227  0.00  0.00    +0.000 NA
ATOM      5  C   UNL     1      -0.330  13.700  19.233  0.00  0.00    +0.000 C 
ATOM      6  C   UNL     1      -1.356  12.561  19.209  0.00  0.00    +0.000 C 
ATOM      7  N   UNL     1      -0.711  11.270  18.849  0.00  0.00    +0.000 NA
ATOM      8  C   UNL     1      -1.715  10.210  18.691  0.00  0.00    +0.000 C 
ENDROOT
BRANCH   1  12
ATOM      9  C   UNL     1       2.534   7.330  18.426  0.00  0.00    +0.000 A 
ATOM     10  C   UNL     1       2.063   7.422  19.735  0.00  0.00    +0.000 A 
ATOM     11  C   UNL     1       1.359   8.554  20.156  0.00  0.00    +0.000 A 
ATOM     12  C   UNL     1       1.134   9.625  19.275  0.00  0.00    +0.000 A 
ATOM     13  C   UNL     1       1.595   9.512  17.958  0.00  0.00    +0.000 A 
ATOM     14  C   UNL     1       2.301   8.382  17.541  0.00  0.00    +0.000 A 
BRANCH   9  16
ATOM     15  C   UNL     1       4.646   6.363  18.028  0.00  0.00    +0.000 C 
ATOM     16  O   UNL     1       3.235   6.195  18.123  0.00  0.00    +0.000 OA
ENDBRANCH   9  16
ENDBRANCH   1  12
BRANCH   6  17
ATOM     17  C   UNL     1      -2.228  12.546  20.469  0.00  0.00    +0.000 A 
ATOM     18  C   UNL     1      -3.579  12.912  20.396  0.00  0.00    +0.000 A 
ATOM     19  C   UNL     1      -4.387  12.900  21.541  0.00  0.00    +0.000 A 
ATOM     20  C   UNL     1      -3.871  12.501  22.777  0.00  0.00    +0.000 A 
ATOM     21  C   UNL     1      -2.532  12.161  22.866  0.00  0.00    +0.000 A 
ATOM     22  C   UNL     1      -1.729  12.184  21.733  0.00  0.00    +0.000 A 
BRANCH  20  23
ATOM     23  O   UNL     1      -4.739  12.505  23.831  0.00  0.00    +0.000 OA
ATOM     24  C   UNL     1      -6.052  12.964  23.516  0.00  0.00    +0.000 C 
ENDBRANCH  20  23
ENDBRANCH   6  17
BRANCH   4  25
ATOM     25  O   UNL     1       0.360  15.243  21.364  0.00  0.00    +0.000 OA
BRANCH  25  26
ATOM     26  C   UNL     1       0.311  15.625  22.676  0.00  0.00    +0.000 C 
ATOM     27  O   UNL     1       1.258  15.887  23.408  0.00  0.00    +0.000 OA
BRANCH  26  28
ATOM     28  C   UNL     1      -1.097  15.717  23.159  0.00  0.00    +0.000 A 
ATOM     29  C   UNL     1      -1.363  15.342  24.485  0.00  0.00    +0.000 A 
ATOM     30  C   UNL     1      -2.663  15.402  25.001  0.00  0.00    +0.000 A 
ATOM     31  C   UNL     1      -3.701  15.842  24.184  0.00  0.00    +0.000 A 
ATOM     32  F   UNL     1      -4.946  15.898  24.670  0.00  0.00    +0.000 F 
ATOM     33  C   UNL     1      -3.463  16.213  22.864  0.00  0.00    +0.000 A 
ATOM     34  C   UNL     1      -2.161  16.153  22.349  0.00  0.00    +0.000 A 
ENDBRANCH  26  28
ENDBRANCH  25  26
ENDBRANCH   4  25
TORSDOF 7
ENDMDL
MODEL 4
REMARK VINA RESULT:      -6.8      2.764      3.695
REMARK  Name = 
REMARK  10 active torsions:
REMARK  status: ('A' for Active; 'I' for Inactive)
REMARK    1  A    between atoms: C_1  and  O_2
REMARK    2  A    between atoms: O_2  and  C_3
REMARK    3  A    between atoms: C_6  and  C_7
REMARK    4  A    between atoms: N_10  and  O_11
REMARK    5  A    between atoms: O_11  and  C_12
REMARK    6  A    between atoms: C_12  and  C_14
REMARK    7  A    between atoms: C_22  and  C_23
REMARK    8  A    between atoms: C_26  and  O_27
REMARK    9  A    between atoms: O_27  and  C_28
REMARK   10  A    between atoms: N_31  and  C_32
REMARK                            x       y       z     vdW  Elec       q    Type
REMARK                         _______ _______ _______ _____ _____    ______ ____
ROOT
ATOM      1  C   UNL     1       0.351  10.874  19.566  0.00  0.00    +0.000 C 
ATOM      2  C   UNL     1       1.328  12.073  19.682  0.00  0.00    +0.000 C 
ATOM      3  C   UNL     1       0.583  13.387  19.777  0.00  0.00    +0.000 C 
ATOM      4  N   UNL     1       0.903  14.226  20.717  0.00  0.00    +0.000 NA
ATOM      5  C   UNL     1      -0.500  13.590  18.752  0.00  0.00    +0.000 C 
ATOM      6  C   UNL     1      -1.471  12.405  18.832  0.00  0.00    +0.000 C 
ATOM      7  N   UNL     1      -0.759  11.118  18.614  0.00  0.00    +0.000 NA
ATOM      8  C   UNL     1      -1.710   9.999  18.552  0.00  0.00    +0.000 C 
ENDROOT
BRANCH   1  12
ATOM      9  C   UNL     1       2.673   7.316  18.640  0.00  0.00    +0.000 A 
ATOM     10  C   UNL     1       2.083   7.467  19.894  0.00  0.00    +0.000 A 
ATOM     11  C   UNL     1       1.320   8.601  20.186  0.00  0.00    +0.000 A 
ATOM     12  C   UNL     1       1.153   9.617  19.228  0.00  0.00    +0.000 A 
ATOM     13  C   UNL     1       1.735   9.444  17.966  0.00  0.00    +0.000 A 
ATOM     14  C   UNL     1       2.500   8.312  17.680  0.00  0.00    +0.000 A 
BRANCH   9  16
ATOM     15  C   UNL     1       3.182   5.148  19.411  0.00  0.00    +0.000 C 
ATOM     16  O   UNL     1       3.422   6.185  18.466  0.00  0.00    +0.000 OA
ENDBRANCH   9  16
ENDBRANCH   1  12
BRANCH   6  17
ATOM     17  C   UNL     1      -2.363  12.476  20.076  0.00  0.00    +0.000 A 
ATOM     18  C   UNL     1      -3.732  12.749  19.948  0.00  0.00    +0.000 A 
ATOM     19  C   UNL     1      -4.559  12.813  21.077  0.00  0.00    +0.000 A 
ATOM     20  C   UNL     1      -4.043  12.584  22.356  0.00  0.00    +0.000 A 
ATOM     21  C   UNL     1      -2.687  12.337  22.497  0.00  0.00    +0.000 A 
ATOM     22  C   UNL     1      -1.866  12.285  21.377  0.00  0.00    +0.000 A 
BRANCH  20  23
ATOM     23  O   UNL     1      -4.928  12.651  23.393  0.00  0.00    +0.000 OA
ATOM     24  C   UNL     1      -4.345  12.483  24.683  0.00  0.00    +0.000 C 
ENDBRANCH  20  23
ENDBRANCH   6  17
BRANCH   4  25
ATOM     25  O   UNL     1       0.078  15.373  20.724  0.00  0.00    +0.000 OA
BRANCH  25  26
ATOM     26  C   UNL     1       0.839  16.502  20.600  0.00  0.00    +0.000 C 
ATOM     27  O   UNL     1       1.514  17.041  21.470  0.00  0.00    +0.000 OA
BRANCH  26  28
ATOM     28  C   UNL     1       0.781  17.042  19.210  0.00  0.00    +0.000 A 
ATOM     29  C   UNL     1       1.983  17.128  18.489  0.00  0.00    +0.000 A 
ATOM     30  C   UNL     1       2.000  17.627  17.181  0.00  0.00    +0.000 A 
ATOM     31  C   UNL     1       0.807  18.040  16.593  0.00  0.00    +0.000 A 
ATOM     32  F   UNL     1       0.818  18.521  15.345  0.00  0.00    +0.000 F 
ATOM     33  C   UNL     1      -0.395  17.970  17.291  0.00  0.00    +0.000 A 
ATOM     34  C   UNL     1      -0.411  17.469  18.600  0.00  0.00    +0.000 A 
ENDBRANCH  26  28
ENDBRANCH  25  26
ENDBRANCH   4  25
TORSDOF 7
ENDMDL
MODEL 5
REMARK VINA RESULT:      -6.8      0.922      1.392
REMARK  Name = 
REMARK  10 active torsions:
REMARK  status: ('A' for Active; 'I' for Inactive)
REMARK    1  A    between atoms: C_1  and  O_2
REMARK    2  A    between atoms: O_2  and  C_3
REMARK    3  A    between atoms: C_6  and  C_7
REMARK    4  A    between atoms: N_10  and  O_11
REMARK    5  A    between atoms: O_11  and  C_12
REMARK    6  A    between atoms: C_12  and  C_14
REMARK    7  A    between atoms: C_22  and  C_23
REMARK    8  A    between atoms: C_26  and  O_27
REMARK    9  A    between atoms: O_27  and  C_28
REMARK   10  A    between atoms: N_31  and  C_32
REMARK                            x       y       z     vdW  Elec       q    Type
REMARK                         _______ _______ _______ _____ _____    ______ ____
ROOT
ATOM      1  C   UNL     1       0.317  10.979  19.730  0.00  0.00    +0.000 C 
ATOM      2  C   UNL     1       1.321  12.120  20.041  0.00  0.00    +0.000 C 
ATOM      3  C   UNL     1       0.613  13.446  20.222  0.00  0.00    +0.000 C 
ATOM      4  N   UNL     1       0.889  14.169  21.265  0.00  0.00    +0.000 NA
ATOM      5  C   UNL     1      -0.384  13.796  19.150  0.00  0.00    +0.000 C 
ATOM      6  C   UNL     1      -1.395  12.649  19.035  0.00  0.00    +0.000 C 
ATOM      7  N   UNL     1      -0.711  11.364  18.733  0.00  0.00    +0.000 NA
ATOM      8  C   UNL     1      -1.690  10.296  18.486  0.00  0.00    +0.000 C 
ENDROOT
BRANCH   1  12
ATOM      9  C   UNL     1       2.588   7.448  18.596  0.00  0.00    +0.000 A 
ATOM     10  C   UNL     1       2.001   7.535  19.858  0.00  0.00    +0.000 A 
ATOM     11  C   UNL     1       1.255   8.661  20.216  0.00  0.00    +0.000 A 
ATOM     12  C   UNL     1       1.101   9.732  19.319  0.00  0.00    +0.000 A 
ATOM     13  C   UNL     1       1.679   9.624  18.048  0.00  0.00    +0.000 A 
ATOM     14  C   UNL     1       2.428   8.500  17.695  0.00  0.00    +0.000 A 
BRANCH   9  16
ATOM     15  C   UNL     1       3.754   5.620  19.518  0.00  0.00    +0.000 C 
ATOM     16  O   UNL     1       3.321   6.319  18.355  0.00  0.00    +0.000 OA
ENDBRANCH   9  16
ENDBRANCH   1  12
BRANCH   6  17
ATOM     17  C   UNL     1      -2.375  12.626  20.213  0.00  0.00    +0.000 A 
ATOM     18  C   UNL     1      -1.937  12.244  21.488  0.00  0.00    +0.000 A 
ATOM     19  C   UNL     1      -2.823  12.222  22.574  0.00  0.00    +0.000 A 
ATOM     20  C   UNL     1      -4.159  12.604  22.415  0.00  0.00    +0.000 A 
ATOM     21  C   UNL     1      -4.609  12.960  21.154  0.00  0.00    +0.000 A 
ATOM     22  C   UNL     1      -3.732  12.970  20.077  0.00  0.00    +0.000 A 
BRANCH  20  23
ATOM     23  O   UNL     1      -4.941  12.567  23.533  0.00  0.00    +0.000 OA
ATOM     24  C   UNL     1      -4.219  12.556  24.763  0.00  0.00    +0.000 C 
ENDBRANCH  20  23
ENDBRANCH   6  17
BRANCH   4  25
ATOM     25  O   UNL     1       0.103  15.342  21.334  0.00  0.00    +0.000 OA
BRANCH  25  26
ATOM     26  C   UNL     1      -0.542  15.408  22.538  0.00  0.00    +0.000 C 
ATOM     27  O   UNL     1      -0.069  15.182  23.646  0.00  0.00    +0.000 OA
BRANCH  26  28
ATOM     28  C   UNL     1      -1.963  15.825  22.366  0.00  0.00    +0.000 A 
ATOM     29  C   UNL     1      -2.377  16.238  21.089  0.00  0.00    +0.000 A 
ATOM     30  C   UNL     1      -3.696  16.645  20.859  0.00  0.00    +0.000 A 
ATOM     31  C   UNL     1      -4.606  16.637  21.913  0.00  0.00    +0.000 A 
ATOM     32  F   UNL     1      -5.867  17.028  21.701  0.00  0.00    +0.000 F 
ATOM     33  C   UNL     1      -4.218  16.238  23.189  0.00  0.00    +0.000 A 
ATOM     34  C   UNL     1      -2.897  15.830  23.417  0.00  0.00    +0.000 A 
ENDBRANCH  26  28
ENDBRANCH  25  26
ENDBRANCH   4  25
TORSDOF 7
ENDMDL
MODEL 6
REMARK VINA RESULT:      -6.7      1.091      1.476
REMARK  Name = 
REMARK  10 active torsions:
REMARK  status: ('A' for Active; 'I' for Inactive)
REMARK    1  A    between atoms: C_1  and  O_2
REMARK    2  A    between atoms: O_2  and  C_3
REMARK    3  A    between atoms: C_6  and  C_7
REMARK    4  A    between atoms: N_10  and  O_11
REMARK    5  A    between atoms: O_11  and  C_12
REMARK    6  A    between atoms: C_12  and  C_14
REMARK    7  A    between atoms: C_22  and  C_23
REMARK    8  A    between atoms: C_26  and  O_27
REMARK    9  A    between atoms: O_27  and  C_28
REMARK   10  A    between atoms: N_31  and  C_32
REMARK                            x       y       z     vdW  Elec       q    Type
REMARK                         _______ _______ _______ _____ _____    ______ ____
ROOT
ATOM      1  C   UNL     1      -0.025  11.235  20.398  0.00  0.00    +0.000 C 
ATOM      2  C   UNL     1       0.972  12.306  20.911  0.00  0.00    +0.000 C 
ATOM      3  C   UNL     1       0.276  13.623  21.185  0.00  0.00    +0.000 C 
ATOM      4  N   UNL     1       0.483  14.219  22.322  0.00  0.00    +0.000 NA
ATOM      5  C   UNL     1      -0.626  14.116  20.087  0.00  0.00    +0.000 C 
ATOM      6  C   UNL     1      -1.646  13.017  19.767  0.00  0.00    +0.000 C 
ATOM      7  N   UNL     1      -0.964  11.755  19.375  0.00  0.00    +0.000 NA
ATOM      8  C   UNL     1      -1.940  10.748  18.936  0.00  0.00    +0.000 C 
ENDROOT
BRANCH   1  12
ATOM      9  C   UNL     1       2.265   7.794  19.046  0.00  0.00    +0.000 A 
ATOM     10  C   UNL     1       1.715   7.817  20.327  0.00  0.00    +0.000 A 
ATOM     11  C   UNL     1       0.962   8.914  20.755  0.00  0.00    +0.000 A 
ATOM     12  C   UNL     1       0.765  10.020  19.911  0.00  0.00    +0.000 A 
ATOM     13  C   UNL     1       1.307   9.977  18.620  0.00  0.00    +0.000 A 
ATOM     14  C   UNL     1       2.063   8.881  18.197  0.00  0.00    +0.000 A 
BRANCH   9  16
ATOM     15  C   UNL     1       3.871   6.836  17.612  0.00  0.00    +0.000 C 
ATOM     16  O   UNL     1       3.009   6.689  18.736  0.00  0.00    +0.000 OA
ENDBRANCH   9  16
ENDBRANCH   1  12
BRANCH   6  17
ATOM     17  C   UNL     1      -2.716  12.891  20.857  0.00  0.00    +0.000 A 
ATOM     18  C   UNL     1      -2.377  12.402  22.125  0.00  0.00    +0.000 A 
ATOM     19  C   UNL     1      -3.346  12.285  23.131  0.00  0.00    +0.000 A 
ATOM     20  C   UNL     1      -4.668  12.675  22.899  0.00  0.00    +0.000 A 
ATOM     21  C   UNL     1      -5.020  13.137  21.641  0.00  0.00    +0.000 A 
ATOM     22  C   UNL     1      -4.061  13.242  20.642  0.00  0.00    +0.000 A 
BRANCH  20  23
ATOM     23  O   UNL     1      -5.537  12.540  23.943  0.00  0.00    +0.000 OA
ATOM     24  C   UNL     1      -6.839  13.071  23.705  0.00  0.00    +0.000 C 
ENDBRANCH  20  23
ENDBRANCH   6  17
BRANCH   4  25
ATOM     25  O   UNL     1      -0.284  15.397  22.462  0.00  0.00    +0.000 OA
BRANCH  25  26
ATOM     26  C   UNL     1      -0.913  15.410  23.676  0.00  0.00    +0.000 C 
ATOM     27  O   UNL     1      -0.417  15.165  24.770  0.00  0.00    +0.000 OA
BRANCH  26  28
ATOM     28  C   UNL     1      -2.347  15.793  23.537  0.00  0.00    +0.000 A 
ATOM     29  C   UNL     1      -2.772  16.310  22.303  0.00  0.00    +0.000 A 
ATOM     30  C   UNL     1      -4.105  16.691  22.106  0.00  0.00    +0.000 A 
ATOM     31  C   UNL     1      -5.016  16.552  23.150  0.00  0.00    +0.000 A 
ATOM     32  F   UNL     1      -6.290  16.917  22.968  0.00  0.00    +0.000 F 
ATOM     33  C   UNL     1      -4.616  16.048  24.384  0.00  0.00    +0.000 A 
ATOM     34  C   UNL     1      -3.282  15.666  24.580  0.00  0.00    +0.000 A 
ENDBRANCH  26  28
ENDBRANCH  25  26
ENDBRANCH   4  25
TORSDOF 7
ENDMDL
MODEL 7
REMARK VINA RESULT:      -6.3      2.847      3.952
REMARK  Name = 
REMARK  10 active torsions:
REMARK  status: ('A' for Active; 'I' for Inactive)
REMARK    1  A    between atoms: C_1  and  O_2
REMARK    2  A    between atoms: O_2  and  C_3
REMARK    3  A    between atoms: C_6  and  C_7
REMARK    4  A    between atoms: N_10  and  O_11
REMARK    5  A    between atoms: O_11  and  C_12
REMARK    6  A    between atoms: C_12  and  C_14
REMARK    7  A    between atoms: C_22  and  C_23
REMARK    8  A    between atoms: C_26  and  O_27
REMARK    9  A    between atoms: O_27  and  C_28
REMARK   10  A    between atoms: N_31  and  C_32
REMARK                            x       y       z     vdW  Elec       q    Type
REMARK                         _______ _______ _______ _____ _____    ______ ____
ROOT
ATOM      1  C   UNL     1       0.489  10.911  19.594  0.00  0.00    +0.000 C 
ATOM      2  C   UNL     1       1.492  12.093  19.610  0.00  0.00    +0.000 C 
ATOM      3  C   UNL     1       0.780  13.422  19.745  0.00  0.00    +0.000 C 
ATOM      4  N   UNL     1       1.191  14.268  20.642  0.00  0.00    +0.000 NA
ATOM      5  C   UNL     1      -0.380  13.629  18.810  0.00  0.00    +0.000 C 
ATOM      6  C   UNL     1      -1.361  12.464  18.988  0.00  0.00    +0.000 C 
ATOM      7  N   UNL     1      -0.692  11.161  18.733  0.00  0.00    +0.000 NA
ATOM      8  C   UNL     1      -1.663  10.059  18.767  0.00  0.00    +0.000 C 
ENDROOT
BRANCH   1  12
ATOM      9  C   UNL     1       2.578   7.264  18.477  0.00  0.00    +0.000 A 
ATOM     10  C   UNL     1       2.425   8.300  17.557  0.00  0.00    +0.000 A 
ATOM     11  C   UNL     1       1.771   9.480  17.921  0.00  0.00    +0.000 A 
ATOM     12  C   UNL     1       1.239   9.634  19.212  0.00  0.00    +0.000 A 
ATOM     13  C   UNL     1       1.415   8.594  20.133  0.00  0.00    +0.000 A 
ATOM     14  C   UNL     1       2.065   7.414  19.765  0.00  0.00    +0.000 A 
BRANCH   9  16
ATOM     15  C   UNL     1       4.594   6.055  18.318  0.00  0.00    +0.000 C 
ATOM     16  O   UNL     1       3.206   6.142  18.013  0.00  0.00    +0.000 OA
ENDBRANCH   9  16
ENDBRANCH   1  12
BRANCH   6  17
ATOM     17  C   UNL     1      -2.147  12.569  20.300  0.00  0.00    +0.000 A 
ATOM     18  C   UNL     1      -1.600  12.075  21.491  0.00  0.00    +0.000 A 
ATOM     19  C   UNL     1      -2.308  12.168  22.697  0.00  0.00    +0.000 A 
ATOM     20  C   UNL     1      -3.565  12.777  22.744  0.00  0.00    +0.000 A 
ATOM     21  C   UNL     1      -4.126  13.247  21.568  0.00  0.00    +0.000 A 
ATOM     22  C   UNL     1      -3.428  13.144  20.371  0.00  0.00    +0.000 A 
BRANCH  20  23
ATOM     23  O   UNL     1      -4.170  12.836  23.966  0.00  0.00    +0.000 OA
ATOM     24  C   UNL     1      -5.594  12.892  23.921  0.00  0.00    +0.000 C 
ENDBRANCH  20  23
ENDBRANCH   6  17
BRANCH   4  25
ATOM     25  O   UNL     1       0.389  15.430  20.697  0.00  0.00    +0.000 OA
BRANCH  25  26
ATOM     26  C   UNL     1       1.161  16.545  20.523  0.00  0.00    +0.000 C 
ATOM     27  O   UNL     1       1.901  17.071  21.347  0.00  0.00    +0.000 OA
BRANCH  26  28
ATOM     28  C   UNL     1       1.023  17.086  19.140  0.00  0.00    +0.000 A 
ATOM     29  C   UNL     1       2.153  17.056  18.307  0.00  0.00    +0.000 A 
ATOM     30  C   UNL     1       2.092  17.550  16.999  0.00  0.00    +0.000 A 
ATOM     31  C   UNL     1       0.894  18.075  16.522  0.00  0.00    +0.000 A 
ATOM     32  F   UNL     1       0.831  18.551  15.274  0.00  0.00    +0.000 F 
ATOM     33  C   UNL     1      -0.237  18.121  17.332  0.00  0.00    +0.000 A 
ATOM     34  C   UNL     1      -0.176  17.626  18.641  0.00  0.00    +0.000 A 
ENDBRANCH  26  28
ENDBRANCH  25  26
ENDBRANCH   4  25
TORSDOF 7
ENDMDL
MODEL 8
REMARK VINA RESULT:      -6.3      4.151      8.557
REMARK  Name = 
REMARK  10 active torsions:
REMARK  status: ('A' for Active; 'I' for Inactive)
REMARK    1  A    between atoms: C_1  and  O_2
REMARK    2  A    between atoms: O_2  and  C_3
REMARK    3  A    between atoms: C_6  and  C_7
REMARK    4  A    between atoms: N_10  and  O_11
REMARK    5  A    between atoms: O_11  and  C_12
REMARK    6  A    between atoms: C_12  and  C_14
REMARK    7  A    between atoms: C_22  and  C_23
REMARK    8  A    between atoms: C_26  and  O_27
REMARK    9  A    between atoms: O_27  and  C_28
REMARK   10  A    between atoms: N_31  and  C_32
REMARK                            x       y       z     vdW  Elec       q    Type
REMARK                         _______ _______ _______ _____ _____    ______ ____
ROOT
ATOM      1  C   UNL     1       0.942  13.160  18.884  0.00  0.00    +0.000 C 
ATOM      2  C   UNL     1       2.151  12.214  18.662  0.00  0.00    +0.000 C 
ATOM      3  C   UNL     1       1.721  10.763  18.633  0.00  0.00    +0.000 C 
ATOM      4  N   UNL     1       2.129  10.004  17.660  0.00  0.00    +0.000 NA
ATOM      5  C   UNL     1       0.822  10.336  19.762  0.00  0.00    +0.000 C 
ATOM      6  C   UNL     1      -0.397  11.266  19.788  0.00  0.00    +0.000 C 
ATOM      7  N   UNL     1       0.019  12.685  19.942  0.00  0.00    +0.000 NA
ATOM      8  C   UNL     1      -1.152  13.558  20.107  0.00  0.00    +0.000 C 
ENDROOT
BRANCH   1  12
ATOM      9  C   UNL     1       2.413  17.173  19.684  0.00  0.00    +0.000 A 
ATOM     10  C   UNL     1       3.117  16.060  20.141  0.00  0.00    +0.000 A 
ATOM     11  C   UNL     1       2.655  14.769  19.867  0.00  0.00    +0.000 A 
ATOM     12  C   UNL     1       1.465  14.573  19.147  0.00  0.00    +0.000 A 
ATOM     13  C   UNL     1       0.778  15.699  18.677  0.00  0.00    +0.000 A 
ATOM     14  C   UNL     1       1.239  16.987  18.956  0.00  0.00    +0.000 A 
BRANCH   9  16
ATOM     15  C   UNL     1       3.044  18.625  21.430  0.00  0.00    +0.000 C 
ATOM     16  O   UNL     1       2.932  18.390  20.030  0.00  0.00    +0.000 OA
ENDBRANCH   9  16
ENDBRANCH   1  12
BRANCH   6  17
ATOM     17  C   UNL     1      -1.370  10.972  18.641  0.00  0.00    +0.000 A 
ATOM     18  C   UNL     1      -1.099   9.940  17.733  0.00  0.00    +0.000 A 
ATOM     19  C   UNL     1      -1.982   9.659  16.682  0.00  0.00    +0.000 A 
ATOM     20  C   UNL     1      -3.165  10.388  16.528  0.00  0.00    +0.000 A 
ATOM     21  C   UNL     1      -3.432  11.426  17.405  0.00  0.00    +0.000 A 
ATOM     22  C   UNL     1      -2.550  11.710  18.440  0.00  0.00    +0.000 A 
BRANCH  20  23
ATOM     23  O   UNL     1      -3.971  10.031  15.485  0.00  0.00    +0.000 OA
ATOM     24  C   UNL     1      -3.345  10.092  14.205  0.00  0.00    +0.000 C 
ENDBRANCH  20  23
ENDBRANCH   6  17
BRANCH   4  25
ATOM     25  O   UNL     1       1.592   8.699  17.731  0.00  0.00    +0.000 OA
BRANCH  25  26
ATOM     26  C   UNL     1       2.600   7.777  17.793  0.00  0.00    +0.000 C 
ATOM     27  O   UNL     1       3.719   7.867  17.299  0.00  0.00    +0.000 OA
BRANCH  26  28
ATOM     28  C   UNL     1       2.191   6.582  18.586  0.00  0.00    +0.000 A 
ATOM     29  C   UNL     1       2.027   6.738  19.971  0.00  0.00    +0.000 A 
ATOM     30  C   UNL     1       1.645   5.657  20.774  0.00  0.00    +0.000 A 
ATOM     31  C   UNL     1       1.426   4.414  20.186  0.00  0.00    +0.000 A 
ATOM     32  F   UNL     1       1.065   3.376  20.949  0.00  0.00    +0.000 F 
ATOM     33  C   UNL     1       1.589   4.234  18.816  0.00  0.00    +0.000 A 
ATOM     34  C   UNL     1       1.970   5.317  18.013  0.00  0.00    +0.000 A 
ENDBRANCH  26  28
ENDBRANCH  25  26
ENDBRANCH   4  25
TORSDOF 7
ENDMDL
MODEL 9
REMARK VINA RESULT:      -6.3      4.065      8.537
REMARK  Name = 
REMARK  10 active torsions:
REMARK  status: ('A' for Active; 'I' for Inactive)
REMARK    1  A    between atoms: C_1  and  O_2
REMARK    2  A    between atoms: O_2  and  C_3
REMARK    3  A    between atoms: C_6  and  C_7
REMARK    4  A    between atoms: N_10  and  O_11
REMARK    5  A    between atoms: O_11  and  C_12
REMARK    6  A    between atoms: C_12  and  C_14
REMARK    7  A    between atoms: C_22  and  C_23
REMARK    8  A    between atoms: C_26  and  O_27
REMARK    9  A    between atoms: O_27  and  C_28
REMARK   10  A    between atoms: N_31  and  C_32
REMARK                            x       y       z     vdW  Elec       q    Type
REMARK                         _______ _______ _______ _____ _____    ______ ____
ROOT
ATOM      1  C   UNL     1       0.686  13.115  19.075  0.00  0.00    +0.000 C 
ATOM      2  C   UNL     1       1.936  12.215  18.897  0.00  0.00    +0.000 C 
ATOM      3  C   UNL     1       1.553  10.757  18.756  0.00  0.00    +0.000 C 
ATOM      4  N   UNL     1       2.057  10.066  17.778  0.00  0.00    +0.000 NA
ATOM      5  C   UNL     1       0.581  10.244  19.784  0.00  0.00    +0.000 C 
ATOM      6  C   UNL     1      -0.663  11.140  19.765  0.00  0.00    +0.000 C 
ATOM      7  N   UNL     1      -0.302  12.558  20.028  0.00  0.00    +0.000 NA
ATOM      8  C   UNL     1      -1.507  13.390  20.148  0.00  0.00    +0.000 C 
ENDROOT
BRANCH   1  12
ATOM      9  C   UNL     1       1.956  17.120  20.199  0.00  0.00    +0.000 A 
ATOM     10  C   UNL     1       2.384  16.012  20.930  0.00  0.00    +0.000 A 
ATOM     11  C   UNL     1       1.993  14.723  20.557  0.00  0.00    +0.000 A 
ATOM     12  C   UNL     1       1.144  14.524  19.454  0.00  0.00    +0.000 A 
ATOM     13  C   UNL     1       0.736  15.643  18.718  0.00  0.00    +0.000 A 
ATOM     14  C   UNL     1       1.126  16.930  19.095  0.00  0.00    +0.000 A 
BRANCH   9  16
ATOM     15  C   UNL     1       3.700  18.370  21.173  0.00  0.00    +0.000 C 
ATOM     16  O   UNL     1       2.371  18.337  20.664  0.00  0.00    +0.000 OA
ENDBRANCH   9  16
ENDBRANCH   1  12
BRANCH   6  17
ATOM     17  C   UNL     1      -1.535  10.887  18.530  0.00  0.00    +0.000 A 
ATOM     18  C   UNL     1      -2.276   9.703  18.420  0.00  0.00    +0.000 A 
ATOM     19  C   UNL     1      -3.079   9.462  17.297  0.00  0.00    +0.000 A 
ATOM     20  C   UNL     1      -3.177  10.407  16.272  0.00  0.00    +0.000 A 
ATOM     21  C   UNL     1      -2.429  11.570  16.358  0.00  0.00    +0.000 A 
ATOM     22  C   UNL     1      -1.625  11.802  17.466  0.00  0.00    +0.000 A 
BRANCH  20  23
ATOM     23  O   UNL     1      -3.997  10.091  15.226  0.00  0.00    +0.000 OA
ATOM     24  C   UNL     1      -3.346  10.032  13.959  0.00  0.00    +0.000 C 
ENDBRANCH  20  23
ENDBRANCH   6  17
BRANCH   4  25
ATOM     25  O   UNL     1       1.556   8.745  17.734  0.00  0.00    +0.000 OA
BRANCH  25  26
ATOM     26  C   UNL     1       2.583   7.847  17.818  0.00  0.00    +0.000 C 
ATOM     27  O   UNL     1       3.697   7.945  17.315  0.00  0.00    +0.000 OA
BRANCH  26  28
ATOM     28  C   UNL     1       2.203   6.669  18.650  0.00  0.00    +0.000 A 
ATOM     29  C   UNL     1       2.035   5.434  18.002  0.00  0.00    +0.000 A 
ATOM     30  C   UNL     1       1.676   4.289  18.723  0.00  0.00    +0.000 A 
ATOM     31  C   UNL     1       1.487   4.381  20.099  0.00  0.00    +0.000 A 
ATOM     32  F   UNL     1       1.141   3.291  20.793  0.00  0.00    +0.000 F 
ATOM     33  C   UNL     1       1.643   5.595  20.762  0.00  0.00    +0.000 A 
ATOM     34  C   UNL     1       2.003   6.740  20.039  0.00  0.00    +0.000 A 
ENDBRANCH  26  28
ENDBRANCH  25  26
ENDBRANCH   4  25
TORSDOF 7
ENDMDL
