MODEL 1
REMARK VINA RESULT:      -7.5      0.000      0.000
REMARK  Name = 
REMARK  10 active torsions:
REMARK  status: ('A' for Active; 'I' for Inactive)
REMARK    1  A    between atoms: C_1  and  C_2
REMARK    2  A    between atoms: C_2  and  C_3
REMARK    3  A    between atoms: C_3  and  S_4
REMARK    4  A    between atoms: C_3  and  C_11
REMARK    5  A    between atoms: C_3  and  C_17
REMARK    6  A    between atoms: S_4  and  C_5
REMARK    7  A    between atoms: C_5  and  C_6
REMARK    8  A    between atoms: C_6  and  N_7
REMARK    9  A    between atoms: C_6  and  C_8
REMARK   10  A    between atoms: C_8  and  O_10
REMARK                            x       y       z     vdW  Elec       q    Type
REMARK                         _______ _______ _______ _____ _____    ______ ____
ROOT
ATOM      1  C   UNK     1       3.381   5.246  18.676  0.00  0.00    +0.000 C 
ENDROOT
BRANCH   1   2
ATOM      2  C   UNK     1       2.808   6.702  18.777  0.00  0.00    +0.000 A 
ATOM      3  C   UNK     1       2.188   7.174  19.955  0.00  0.00    +0.000 A 
ATOM      4  C   UNK     1       1.572   8.429  20.014  0.00  0.00    +0.000 A 
ATOM      5  C   UNK     1       1.559   9.250  18.893  0.00  0.00    +0.000 A 
ATOM      6  C   UNK     1       2.217   8.842  17.739  0.00  0.00    +0.000 A 
ATOM      7  C   UNK     1       2.869   7.603  17.694  0.00  0.00    +0.000 A 
ENDBRANCH   1   2
BRANCH   1   8
ATOM      8  C   UNK     1       2.646   4.260  19.644  0.00  0.00    +0.000 A 
ATOM      9  C   UNK     1       1.256   4.026  19.580  0.00  0.00    +0.000 A 
ATOM     10  C   UNK     1       0.605   3.152  20.457  0.00  0.00    +0.000 A 
ATOM     11  C   UNK     1       1.324   2.504  21.449  0.00  0.00    +0.000 A 
ATOM     12  C   UNK     1       2.690   2.739  21.570  0.00  0.00    +0.000 A 
ATOM     13  C   UNK     1       3.341   3.610  20.681  0.00  0.00    +0.000 A 
ENDBRANCH   1   8
BRANCH   1  15
ATOM     14  C   UNK     1       3.306   3.190  16.994  0.00  0.00    +0.000 C 
ATOM     15  C   UNK     1       3.258   4.701  17.210  0.00  0.00    +0.000 C 
ENDBRANCH   1  15
BRANCH   1  16
ATOM     16  S   UNK     1       5.252   5.287  19.119  0.00  0.00    +0.000 S 
BRANCH  16  17
ATOM     17  C   UNK     1       6.040   5.669  17.505  0.00  0.00    +0.000 C 
BRANCH  17  18
ATOM     18  C   UNK     1       6.790   4.433  16.973  0.00  0.00    +0.000 C 
BRANCH  18  19
ATOM     19  N   UNK     1       8.091   4.223  17.657  0.00  0.00    +0.000 NA
ATOM     20  H   UNK     1       7.969   3.780  18.566  0.00  0.00    +0.000 HD
ATOM     21  H   UNK     1       8.611   5.096  17.737  0.00  0.00    +0.000 HD
ENDBRANCH  18  19
BRANCH  18  22
ATOM     22  C   UNK     1       6.949   4.518  15.446  0.00  0.00    +0.000 C 
ATOM     23  O   UNK     1       7.621   5.365  14.874  0.00  0.00    +0.000 OA
BRANCH  22  24
ATOM     24  O   UNK     1       6.289   3.546  14.768  0.00  0.00    +0.000 OA
ATOM     25  H   UNK     1       6.523   2.665  15.118  0.00  0.00    +0.000 HD
ENDBRANCH  22  24
ENDBRANCH  18  22
ENDBRANCH  17  18
ENDBRANCH  16  17
ENDBRANCH   1  16
TORSDOF 9
ENDMDL
MODEL 2
REMARK VINA RESULT:      -7.4      0.096      1.026
REMARK  Name = 
REMARK  10 active torsions:
REMARK  status: ('A' for Active; 'I' for Inactive)
REMARK    1  A    between atoms: C_1  and  C_2
REMARK    2  A    between atoms: C_2  and  C_3
REMARK    3  A    between atoms: C_3  and  S_4
REMARK    4  A    between atoms: C_3  and  C_11
REMARK    5  A    between atoms: C_3  and  C_17
REMARK    6  A    between atoms: S_4  and  C_5
REMARK    7  A    between atoms: C_5  and  C_6
REMARK    8  A    between atoms: C_6  and  N_7
REMARK    9  A    between atoms: C_6  and  C_8
REMARK   10  A    between atoms: C_8  and  O_10
REMARK                            x       y       z     vdW  Elec       q    Type
REMARK                         _______ _______ _______ _____ _____    ______ ____
ROOT
ATOM      1  C   UNK     1       3.398   5.253  18.719  0.00  0.00    +0.000 C 
ENDROOT
BRANCH   1   2
ATOM      2  C   UNK     1       2.815   6.707  18.787  0.00  0.00    +0.000 A 
ATOM      3  C   UNK     1       2.184   7.199  19.951  0.00  0.00    +0.000 A 
ATOM      4  C   UNK     1       1.561   8.451  19.980  0.00  0.00    +0.000 A 
ATOM      5  C   UNK     1       1.549   9.248  18.842  0.00  0.00    +0.000 A 
ATOM      6  C   UNK     1       2.217   8.821  17.700  0.00  0.00    +0.000 A 
ATOM      7  C   UNK     1       2.877   7.586  17.686  0.00  0.00    +0.000 A 
ENDBRANCH   1   2
BRANCH   1   8
ATOM      8  C   UNK     1       2.662   4.282  19.700  0.00  0.00    +0.000 A 
ATOM      9  C   UNK     1       3.339   3.560  20.707  0.00  0.00    +0.000 A 
ATOM     10  C   UNK     1       2.674   2.684  21.572  0.00  0.00    +0.000 A 
ATOM     11  C   UNK     1       1.311   2.480  21.438  0.00  0.00    +0.000 A 
ATOM     12  C   UNK     1       0.614   3.143  20.432  0.00  0.00    +0.000 A 
ATOM     13  C   UNK     1       1.283   4.029  19.572  0.00  0.00    +0.000 A 
ENDBRANCH   1   8
BRANCH   1  15
ATOM     14  C   UNK     1       3.307   3.162  17.082  0.00  0.00    +0.000 C 
ATOM     15  C   UNK     1       3.291   4.678  17.263  0.00  0.00    +0.000 C 
ENDBRANCH   1  15
BRANCH   1  16
ATOM     16  S   UNK     1       5.265   5.314  19.177  0.00  0.00    +0.000 S 
BRANCH  16  17
ATOM     17  C   UNK     1       6.060   5.724  17.574  0.00  0.00    +0.000 C 
BRANCH  17  18
ATOM     18  C   UNK     1       6.772   4.484  17.000  0.00  0.00    +0.000 C 
BRANCH  18  19
ATOM     19  N   UNK     1       8.076   4.224  17.662  0.00  0.00    +0.000 NA
ATOM     20  H   UNK     1       8.554   3.426  17.246  0.00  0.00    +0.000 HD
ATOM     21  H   UNK     1       7.962   4.105  18.667  0.00  0.00    +0.000 HD
ENDBRANCH  18  19
BRANCH  18  22
ATOM     22  C   UNK     1       6.913   4.604  15.474  0.00  0.00    +0.000 C 
ATOM     23  O   UNK     1       7.731   5.323  14.917  0.00  0.00    +0.000 OA
BRANCH  22  24
ATOM     24  O   UNK     1       6.056   3.816  14.777  0.00  0.00    +0.000 OA
ATOM     25  H   UNK     1       5.138   4.125  14.891  0.00  0.00    +0.000 HD
ENDBRANCH  22  24
ENDBRANCH  18  22
ENDBRANCH  17  18
ENDBRANCH  16  17
ENDBRANCH   1  16
TORSDOF 9
ENDMDL
MODEL 3
REMARK VINA RESULT:      -7.1      1.159      1.624
REMARK  Name = 
REMARK  10 active torsions:
REMARK  status: ('A' for Active; 'I' for Inactive)
REMARK    1  A    between atoms: C_1  and  C_2
REMARK    2  A    between atoms: C_2  and  C_3
REMARK    3  A    between atoms: C_3  and  S_4
REMARK    4  A    between atoms: C_3  and  C_11
REMARK    5  A    between atoms: C_3  and  C_17
REMARK    6  A    between atoms: S_4  and  C_5
REMARK    7  A    between atoms: C_5  and  C_6
REMARK    8  A    between atoms: C_6  and  N_7
REMARK    9  A    between atoms: C_6  and  C_8
REMARK   10  A    between atoms: C_8  and  O_10
REMARK                            x       y       z     vdW  Elec       q    Type
REMARK                         _______ _______ _______ _____ _____    ______ ____
ROOT
ATOM      1  C   UNK     1       3.150   5.484  18.753  0.00  0.00    +0.000 C 
ENDROOT
BRANCH   1   2
ATOM      2  C   UNK     1       2.540   6.923  18.869  0.00  0.00    +0.000 A 
ATOM      3  C   UNK     1       2.029   7.415  20.090  0.00  0.00    +0.000 A 
ATOM      4  C   UNK     1       1.379   8.651  20.175  0.00  0.00    +0.000 A 
ATOM      5  C   UNK     1       1.220   9.432  19.037  0.00  0.00    +0.000 A 
ATOM      6  C   UNK     1       1.769   9.007  17.832  0.00  0.00    +0.000 A 
ATOM      7  C   UNK     1       2.456   7.788  17.758  0.00  0.00    +0.000 A 
ENDBRANCH   1   2
BRANCH   1   8
ATOM      8  C   UNK     1       2.461   4.476  19.732  0.00  0.00    +0.000 A 
ATOM      9  C   UNK     1       3.085   4.014  20.910  0.00  0.00    +0.000 A 
ATOM     10  C   UNK     1       2.467   3.103  21.774  0.00  0.00    +0.000 A 
ATOM     11  C   UNK     1       1.212   2.602  21.469  0.00  0.00    +0.000 A 
ATOM     12  C   UNK     1       0.581   3.003  20.296  0.00  0.00    +0.000 A 
ATOM     13  C   UNK     1       1.200   3.925  19.436  0.00  0.00    +0.000 A 
ENDBRANCH   1   8
BRANCH   1  15
ATOM     14  C   UNK     1       3.818   3.699  16.900  0.00  0.00    +0.000 C 
ATOM     15  C   UNK     1       3.014   4.939  17.288  0.00  0.00    +0.000 C 
ENDBRANCH   1  15
BRANCH   1  16
ATOM     16  S   UNK     1       5.028   5.574  19.161  0.00  0.00    +0.000 S 
BRANCH  16  17
ATOM     17  C   UNK     1       5.702   6.530  17.746  0.00  0.00    +0.000 C 
BRANCH  17  18
ATOM     18  C   UNK     1       7.221   6.305  17.626  0.00  0.00    +0.000 C 
BRANCH  18  19
ATOM     19  N   UNK     1       7.896   7.391  16.871  0.00  0.00    +0.000 NA
ATOM     20  H   UNK     1       8.906   7.258  16.847  0.00  0.00    +0.000 HD
ATOM     21  H   UNK     1       7.651   8.306  17.244  0.00  0.00    +0.000 HD
ENDBRANCH  18  19
BRANCH  18  22
ATOM     22  C   UNK     1       7.512   4.919  17.028  0.00  0.00    +0.000 C 
ATOM     23  O   UNK     1       7.344   4.632  15.851  0.00  0.00    +0.000 OA
BRANCH  22  24
ATOM     24  O   UNK     1       8.004   4.024  17.922  0.00  0.00    +0.000 OA
ATOM     25  H   UNK     1       7.365   3.300  18.067  0.00  0.00    +0.000 HD
ENDBRANCH  22  24
ENDBRANCH  18  22
ENDBRANCH  17  18
ENDBRANCH  16  17
ENDBRANCH   1  16
TORSDOF 9
ENDMDL
MODEL 4
REMARK VINA RESULT:      -7.1      2.821      4.475
REMARK  Name = 
REMARK  10 active torsions:
REMARK  status: ('A' for Active; 'I' for Inactive)
REMARK    1  A    between atoms: C_1  and  C_2
REMARK    2  A    between atoms: C_2  and  C_3
REMARK    3  A    between atoms: C_3  and  S_4
REMARK    4  A    between atoms: C_3  and  C_11
REMARK    5  A    between atoms: C_3  and  C_17
REMARK    6  A    between atoms: S_4  and  C_5
REMARK    7  A    between atoms: C_5  and  C_6
REMARK    8  A    between atoms: C_6  and  N_7
REMARK    9  A    between atoms: C_6  and  C_8
REMARK   10  A    between atoms: C_8  and  O_10
REMARK                            x       y       z     vdW  Elec       q    Type
REMARK                         _______ _______ _______ _____ _____    ______ ____
ROOT
ATOM      1  C   UNK     1       2.841   5.921  19.030  0.00  0.00    +0.000 C 
ENDROOT
BRANCH   1   2
ATOM      2  C   UNK     1       2.211   7.356  19.061  0.00  0.00    +0.000 A 
ATOM      3  C   UNK     1       1.745   7.934  20.263  0.00  0.00    +0.000 A 
ATOM      4  C   UNK     1       1.078   9.163  20.280  0.00  0.00    +0.000 A 
ATOM      5  C   UNK     1       0.856   9.851  19.093  0.00  0.00    +0.000 A 
ATOM      6  C   UNK     1       1.359   9.341  17.902  0.00  0.00    +0.000 A 
ATOM      7  C   UNK     1       2.064   8.130  17.892  0.00  0.00    +0.000 A 
ENDBRANCH   1   2
BRANCH   1   8
ATOM      8  C   UNK     1       4.333   5.946  18.556  0.00  0.00    +0.000 A 
ATOM      9  C   UNK     1       5.379   5.368  19.307  0.00  0.00    +0.000 A 
ATOM     10  C   UNK     1       6.711   5.406  18.882  0.00  0.00    +0.000 A 
ATOM     11  C   UNK     1       7.044   6.052  17.703  0.00  0.00    +0.000 A 
ATOM     12  C   UNK     1       6.046   6.669  16.955  0.00  0.00    +0.000 A 
ATOM     13  C   UNK     1       4.708   6.620  17.379  0.00  0.00    +0.000 A 
ENDBRANCH   1   8
BRANCH   1  15
ATOM     14  C   UNK     1       1.542   4.419  20.796  0.00  0.00    +0.000 C 
ATOM     15  C   UNK     1       2.773   5.253  20.448  0.00  0.00    +0.000 C 
ENDBRANCH   1  15
BRANCH   1  16
ATOM     16  S   UNK     1       1.818   4.822  17.828  0.00  0.00    +0.000 S 
BRANCH  16  17
ATOM     17  C   UNK     1       3.054   3.594  17.252  0.00  0.00    +0.000 C 
BRANCH  17  18
ATOM     18  C   UNK     1       2.656   2.180  17.716  0.00  0.00    +0.000 C 
BRANCH  18  19
ATOM     19  N   UNK     1       1.275   2.131  18.260  0.00  0.00    +0.000 NA
ATOM     20  H   UNK     1       1.064   1.219  18.663  0.00  0.00    +0.000 HD
ATOM     21  H   UNK     1       0.591   2.392  17.552  0.00  0.00    +0.000 HD
ENDBRANCH  18  19
BRANCH  18  22
ATOM     22  C   UNK     1       3.689   1.633  18.715  0.00  0.00    +0.000 C 
ATOM     23  O   UNK     1       4.008   2.200  19.751  0.00  0.00    +0.000 OA
BRANCH  22  24
ATOM     24  O   UNK     1       4.215   0.432  18.363  0.00  0.00    +0.000 OA
ATOM     25  H   UNK     1       4.861   0.541  17.639  0.00  0.00    +0.000 HD
ENDBRANCH  22  24
ENDBRANCH  18  22
ENDBRANCH  17  18
ENDBRANCH  16  17
ENDBRANCH   1  16
TORSDOF 9
ENDMDL
MODEL 5
REMARK VINA RESULT:      -7.1      0.145      1.235
REMARK  Name = 
REMARK  10 active torsions:
REMARK  status: ('A' for Active; 'I' for Inactive)
REMARK    1  A    between atoms: C_1  and  C_2
REMARK    2  A    between atoms: C_2  and  C_3
REMARK    3  A    between atoms: C_3  and  S_4
REMARK    4  A    between atoms: C_3  and  C_11
REMARK    5  A    between atoms: C_3  and  C_17
REMARK    6  A    between atoms: S_4  and  C_5
REMARK    7  A    between atoms: C_5  and  C_6
REMARK    8  A    between atoms: C_6  and  N_7
REMARK    9  A    between atoms: C_6  and  C_8
REMARK   10  A    between atoms: C_8  and  O_10
REMARK                            x       y       z     vdW  Elec       q    Type
REMARK                         _______ _______ _______ _____ _____    ______ ____
ROOT
ATOM      1  C   UNK     1       3.289   5.259  18.721  0.00  0.00    +0.000 C 
ENDROOT
BRANCH   1   2
ATOM      2  C   UNK     1       2.642   6.685  18.797  0.00  0.00    +0.000 A 
ATOM      3  C   UNK     1       2.592   7.536  17.670  0.00  0.00    +0.000 A 
ATOM      4  C   UNK     1       2.122   8.851  17.759  0.00  0.00    +0.000 A 
ATOM      5  C   UNK     1       1.689   9.354  18.980  0.00  0.00    +0.000 A 
ATOM      6  C   UNK     1       1.664   8.521  20.093  0.00  0.00    +0.000 A 
ATOM      7  C   UNK     1       2.096   7.192  19.994  0.00  0.00    +0.000 A 
ENDBRANCH   1   2
BRANCH   1   8
ATOM      8  C   UNK     1       2.594   4.248  19.693  0.00  0.00    +0.000 A 
ATOM      9  C   UNK     1       1.211   3.970  19.639  0.00  0.00    +0.000 A 
ATOM     10  C   UNK     1       0.595   3.075  20.519  0.00  0.00    +0.000 A 
ATOM     11  C   UNK     1       1.341   2.448  21.504  0.00  0.00    +0.000 A 
ATOM     12  C   UNK     1       2.700   2.726  21.615  0.00  0.00    +0.000 A 
ATOM     13  C   UNK     1       3.317   3.619  20.723  0.00  0.00    +0.000 A 
ENDBRANCH   1   8
BRANCH   1  15
ATOM     14  C   UNK     1       3.229   3.175  17.073  0.00  0.00    +0.000 C 
ATOM     15  C   UNK     1       3.212   4.690  17.260  0.00  0.00    +0.000 C 
ENDBRANCH   1  15
BRANCH   1  16
ATOM     16  S   UNK     1       5.151   5.400  19.185  0.00  0.00    +0.000 S 
BRANCH  16  17
ATOM     17  C   UNK     1       5.947   5.720  17.562  0.00  0.00    +0.000 C 
BRANCH  17  18
ATOM     18  C   UNK     1       6.662   4.452  17.060  0.00  0.00    +0.000 C 
BRANCH  18  19
ATOM     19  N   UNK     1       7.990   4.261  17.697  0.00  0.00    +0.000 NA
ATOM     20  H   UNK     1       8.271   5.083  18.230  0.00  0.00    +0.000 HD
ATOM     21  H   UNK     1       8.696   4.006  17.008  0.00  0.00    +0.000 HD
ENDBRANCH  18  19
BRANCH  18  22
ATOM     22  C   UNK     1       6.755   4.460  15.526  0.00  0.00    +0.000 C 
ATOM     23  O   UNK     1       6.116   3.713  14.797  0.00  0.00    +0.000 OA
BRANCH  22  24
ATOM     24  O   UNK     1       7.604   5.395  15.029  0.00  0.00    +0.000 OA
ATOM     25  H   UNK     1       8.530   5.110  15.141  0.00  0.00    +0.000 HD
ENDBRANCH  22  24
ENDBRANCH  18  22
ENDBRANCH  17  18
ENDBRANCH  16  17
ENDBRANCH   1  16
TORSDOF 9
ENDMDL
MODEL 6
REMARK VINA RESULT:      -7.1      1.713      2.100
REMARK  Name = 
REMARK  10 active torsions:
REMARK  status: ('A' for Active; 'I' for Inactive)
REMARK    1  A    between atoms: C_1  and  C_2
REMARK    2  A    between atoms: C_2  and  C_3
REMARK    3  A    between atoms: C_3  and  S_4
REMARK    4  A    between atoms: C_3  and  C_11
REMARK    5  A    between atoms: C_3  and  C_17
REMARK    6  A    between atoms: S_4  and  C_5
REMARK    7  A    between atoms: C_5  and  C_6
REMARK    8  A    between atoms: C_6  and  N_7
REMARK    9  A    between atoms: C_6  and  C_8
REMARK   10  A    between atoms: C_8  and  O_10
REMARK                            x       y       z     vdW  Elec       q    Type
REMARK                         _______ _______ _______ _____ _____    ______ ____
ROOT
ATOM      1  C   UNK     1       3.258   5.427  18.774  0.00  0.00    +0.000 C 
ENDROOT
BRANCH   1   2
ATOM      2  C   UNK     1       2.645   6.866  18.881  0.00  0.00    +0.000 A 
ATOM      3  C   UNK     1       2.060   7.335  20.079  0.00  0.00    +0.000 A 
ATOM      4  C   UNK     1       1.410   8.571  20.148  0.00  0.00    +0.000 A 
ATOM      5  C   UNK     1       1.324   9.376  19.019  0.00  0.00    +0.000 A 
ATOM      6  C   UNK     1       1.946   8.974  17.843  0.00  0.00    +0.000 A 
ATOM      7  C   UNK     1       2.633   7.754  17.786  0.00  0.00    +0.000 A 
ENDBRANCH   1   2
BRANCH   1   8
ATOM      8  C   UNK     1       2.543   4.414  19.729  0.00  0.00    +0.000 A 
ATOM      9  C   UNK     1       3.209   3.777  20.797  0.00  0.00    +0.000 A 
ATOM     10  C   UNK     1       2.566   2.863  21.639  0.00  0.00    +0.000 A 
ATOM     11  C   UNK     1       1.238   2.536  21.420  0.00  0.00    +0.000 A 
ATOM     12  C   UNK     1       0.557   3.114  20.353  0.00  0.00    +0.000 A 
ATOM     13  C   UNK     1       1.204   4.038  19.516  0.00  0.00    +0.000 A 
ENDBRANCH   1   8
BRANCH   1  15
ATOM     14  C   UNK     1       3.450   3.412  17.053  0.00  0.00    +0.000 C 
ATOM     15  C   UNK     1       3.160   4.890  17.303  0.00  0.00    +0.000 C 
ENDBRANCH   1  15
BRANCH   1  16
ATOM     16  S   UNK     1       5.124   5.514  19.231  0.00  0.00    +0.000 S 
BRANCH  16  17
ATOM     17  C   UNK     1       5.916   5.896  17.620  0.00  0.00    +0.000 C 
BRANCH  17  18
ATOM     18  C   UNK     1       7.416   5.548  17.668  0.00  0.00    +0.000 C 
BRANCH  18  19
ATOM     19  N   UNK     1       7.655   4.085  17.762  0.00  0.00    +0.000 NA
ATOM     20  H   UNK     1       8.027   3.824  18.674  0.00  0.00    +0.000 HD
ATOM     21  H   UNK     1       8.260   3.762  17.009  0.00  0.00    +0.000 HD
ENDBRANCH  18  19
BRANCH  18  22
ATOM     22  C   UNK     1       8.109   6.319  18.803  0.00  0.00    +0.000 C 
ATOM     23  O   UNK     1       8.391   7.508  18.751  0.00  0.00    +0.000 OA
BRANCH  22  24
ATOM     24  O   UNK     1       8.371   5.566  19.902  0.00  0.00    +0.000 OA
ATOM     25  H   UNK     1       7.589   5.529  20.485  0.00  0.00    +0.000 HD
ENDBRANCH  22  24
ENDBRANCH  18  22
ENDBRANCH  17  18
ENDBRANCH  16  17
ENDBRANCH   1  16
TORSDOF 9
ENDMDL
MODEL 7
REMARK VINA RESULT:      -7.1      3.073      5.456
REMARK  Name = 
REMARK  10 active torsions:
REMARK  status: ('A' for Active; 'I' for Inactive)
REMARK    1  A    between atoms: C_1  and  C_2
REMARK    2  A    between atoms: C_2  and  C_3
REMARK    3  A    between atoms: C_3  and  S_4
REMARK    4  A    between atoms: C_3  and  C_11
REMARK    5  A    between atoms: C_3  and  C_17
REMARK    6  A    between atoms: S_4  and  C_5
REMARK    7  A    between atoms: C_5  and  C_6
REMARK    8  A    between atoms: C_6  and  N_7
REMARK    9  A    between atoms: C_6  and  C_8
REMARK   10  A    between atoms: C_8  and  O_10
REMARK                            x       y       z     vdW  Elec       q    Type
REMARK                         _______ _______ _______ _____ _____    ______ ____
ROOT
ATOM      1  C   UNK     1       3.275   5.761  18.739  0.00  0.00    +0.000 C 
ENDROOT
BRANCH   1   2
ATOM      2  C   UNK     1       4.805   5.964  18.464  0.00  0.00    +0.000 A 
ATOM      3  C   UNK     1       5.789   5.371  19.286  0.00  0.00    +0.000 A 
ATOM      4  C   UNK     1       7.152   5.641  19.118  0.00  0.00    +0.000 A 
ATOM      5  C   UNK     1       7.570   6.514  18.122  0.00  0.00    +0.000 A 
ATOM      6  C   UNK     1       6.632   7.063  17.255  0.00  0.00    +0.000 A 
ATOM      7  C   UNK     1       5.272   6.759  17.398  0.00  0.00    +0.000 A 
ENDBRANCH   1   2
BRANCH   1   8
ATOM      8  C   UNK     1       2.521   7.124  18.882  0.00  0.00    +0.000 A 
ATOM      9  C   UNK     1       2.045   7.604  20.121  0.00  0.00    +0.000 A 
ATOM     10  C   UNK     1       1.360   8.818  20.238  0.00  0.00    +0.000 A 
ATOM     11  C   UNK     1       1.104   9.581  19.111  0.00  0.00    +0.000 A 
ATOM     12  C   UNK     1       1.522   9.123  17.865  0.00  0.00    +0.000 A 
ATOM     13  C   UNK     1       2.218   7.908  17.752  0.00  0.00    +0.000 A 
ENDBRANCH   1   8
BRANCH   1  15
ATOM     14  C   UNK     1       3.352   3.713  17.046  0.00  0.00    +0.000 C 
ATOM     15  C   UNK     1       2.608   4.933  17.584  0.00  0.00    +0.000 C 
ENDBRANCH   1  15
BRANCH   1  16
ATOM     16  S   UNK     1       3.067   4.752  20.363  0.00  0.00    +0.000 S 
BRANCH  16  17
ATOM     17  C   UNK     1       1.256   4.460  20.427  0.00  0.00    +0.000 C 
BRANCH  17  18
ATOM     18  C   UNK     1       0.965   2.970  20.686  0.00  0.00    +0.000 C 
BRANCH  18  19
ATOM     19  N   UNK     1       1.841   2.398  21.740  0.00  0.00    +0.000 NA
ATOM     20  H   UNK     1       1.297   1.991  22.499  0.00  0.00    +0.000 HD
ATOM     21  H   UNK     1       2.501   3.092  22.088  0.00  0.00    +0.000 HD
ENDBRANCH  18  19
BRANCH  18  22
ATOM     22  C   UNK     1       1.045   2.172  19.375  0.00  0.00    +0.000 C 
ATOM     23  O   UNK     1       0.213   2.238  18.480  0.00  0.00    +0.000 OA
BRANCH  22  24
ATOM     24  O   UNK     1       2.146   1.385  19.274  0.00  0.00    +0.000 OA
ATOM     25  H   UNK     1       2.554   1.253  20.151  0.00  0.00    +0.000 HD
ENDBRANCH  22  24
ENDBRANCH  18  22
ENDBRANCH  17  18
ENDBRANCH  16  17
ENDBRANCH   1  16
TORSDOF 9
ENDMDL
MODEL 8
REMARK VINA RESULT:      -7.0      1.101      1.606
REMARK  Name = 
REMARK  10 active torsions:
REMARK  status: ('A' for Active; 'I' for Inactive)
REMARK    1  A    between atoms: C_1  and  C_2
REMARK    2  A    between atoms: C_2  and  C_3
REMARK    3  A    between atoms: C_3  and  S_4
REMARK    4  A    between atoms: C_3  and  C_11
REMARK    5  A    between atoms: C_3  and  C_17
REMARK    6  A    between atoms: S_4  and  C_5
REMARK    7  A    between atoms: C_5  and  C_6
REMARK    8  A    between atoms: C_6  and  N_7
REMARK    9  A    between atoms: C_6  and  C_8
REMARK   10  A    between atoms: C_8  and  O_10
REMARK                            x       y       z     vdW  Elec       q    Type
REMARK                         _______ _______ _______ _____ _____    ______ ____
ROOT
ATOM      1  C   UNK     1       3.158   5.331  18.734  0.00  0.00    +0.000 C 
ENDROOT
BRANCH   1   2
ATOM      2  C   UNK     1       2.481   6.740  18.848  0.00  0.00    +0.000 A 
ATOM      3  C   UNK     1       2.277   7.557  17.713  0.00  0.00    +0.000 A 
ATOM      4  C   UNK     1       1.781   8.861  17.823  0.00  0.00    +0.000 A 
ATOM      5  C   UNK     1       1.474   9.386  19.072  0.00  0.00    +0.000 A 
ATOM      6  C   UNK     1       1.601   8.585  20.201  0.00  0.00    +0.000 A 
ATOM      7  C   UNK     1       2.059   7.266  20.086  0.00  0.00    +0.000 A 
ENDBRANCH   1   2
BRANCH   1   8
ATOM      8  C   UNK     1       2.500   4.286  19.695  0.00  0.00    +0.000 A 
ATOM      9  C   UNK     1       1.136   3.934  19.616  0.00  0.00    +0.000 A 
ATOM     10  C   UNK     1       0.552   3.008  20.487  0.00  0.00    +0.000 A 
ATOM     11  C   UNK     1       1.312   2.424  21.487  0.00  0.00    +0.000 A 
ATOM     12  C   UNK     1       2.652   2.774  21.622  0.00  0.00    +0.000 A 
ATOM     13  C   UNK     1       3.237   3.697  20.740  0.00  0.00    +0.000 A 
ENDBRANCH   1   8
BRANCH   1  15
ATOM     14  C   UNK     1       3.563   3.371  16.986  0.00  0.00    +0.000 C 
ATOM     15  C   UNK     1       3.073   4.790  17.264  0.00  0.00    +0.000 C 
ENDBRANCH   1  15
BRANCH   1  16
ATOM     16  S   UNK     1       5.023   5.505  19.174  0.00  0.00    +0.000 S 
BRANCH  16  17
ATOM     17  C   UNK     1       5.678   6.490  17.771  0.00  0.00    +0.000 C 
BRANCH  17  18
ATOM     18  C   UNK     1       7.174   6.186  17.559  0.00  0.00    +0.000 C 
BRANCH  18  19
ATOM     19  N   UNK     1       7.840   7.198  16.701  0.00  0.00    +0.000 NA
ATOM     20  H   UNK     1       8.782   6.908  16.443  0.00  0.00    +0.000 HD
ATOM     21  H   UNK     1       7.843   8.114  17.145  0.00  0.00    +0.000 HD
ENDBRANCH  18  19
BRANCH  18  22
ATOM     22  C   UNK     1       7.361   4.759  17.020  0.00  0.00    +0.000 C 
ATOM     23  O   UNK     1       6.777   4.315  16.040  0.00  0.00    +0.000 OA
BRANCH  22  24
ATOM     24  O   UNK     1       8.261   4.019  17.716  0.00  0.00    +0.000 OA
ATOM     25  H   UNK     1       7.806   3.443  18.358  0.00  0.00    +0.000 HD
ENDBRANCH  22  24
ENDBRANCH  18  22
ENDBRANCH  17  18
ENDBRANCH  16  17
ENDBRANCH   1  16
TORSDOF 9
ENDMDL
MODEL 9
REMARK VINA RESULT:      -7.0      3.076      5.416
REMARK  Name = 
REMARK  10 active torsions:
REMARK  status: ('A' for Active; 'I' for Inactive)
REMARK    1  A    between atoms: C_1  and  C_2
REMARK    2  A    between atoms: C_2  and  C_3
REMARK    3  A    between atoms: C_3  and  S_4
REMARK    4  A    between atoms: C_3  and  C_11
REMARK    5  A    between atoms: C_3  and  C_17
REMARK    6  A    between atoms: S_4  and  C_5
REMARK    7  A    between atoms: C_5  and  C_6
REMARK    8  A    between atoms: C_6  and  N_7
REMARK    9  A    between atoms: C_6  and  C_8
REMARK   10  A    between atoms: C_8  and  O_10
REMARK                            x       y       z     vdW  Elec       q    Type
REMARK                         _______ _______ _______ _____ _____    ______ ____
ROOT
ATOM      1  C   UNK     1       3.169   5.803  18.747  0.00  0.00    +0.000 C 
ENDROOT
BRANCH   1   2
ATOM      2  C   UNK     1       4.694   5.996  18.441  0.00  0.00    +0.000 A 
ATOM      3  C   UNK     1       5.691   5.376  19.227  0.00  0.00    +0.000 A 
ATOM      4  C   UNK     1       7.052   5.635  19.032  0.00  0.00    +0.000 A 
ATOM      5  C   UNK     1       7.456   6.526  18.045  0.00  0.00    +0.000 A 
ATOM      6  C   UNK     1       6.504   7.103  17.212  0.00  0.00    +0.000 A 
ATOM      7  C   UNK     1       5.145   6.810  17.381  0.00  0.00    +0.000 A 
ENDBRANCH   1   2
BRANCH   1   8
ATOM      8  C   UNK     1       2.418   7.171  18.862  0.00  0.00    +0.000 A 
ATOM      9  C   UNK     1       2.168   7.998  17.745  0.00  0.00    +0.000 A 
ATOM     10  C   UNK     1       1.507   9.225  17.859  0.00  0.00    +0.000 A 
ATOM     11  C   UNK     1       1.097   9.679  19.102  0.00  0.00    +0.000 A 
ATOM     12  C   UNK     1       1.360   8.911  20.232  0.00  0.00    +0.000 A 
ATOM     13  C   UNK     1       2.016   7.675  20.113  0.00  0.00    +0.000 A 
ENDBRANCH   1   8
BRANCH   1  15
ATOM     14  C   UNK     1       3.272   3.784  17.021  0.00  0.00    +0.000 C 
ATOM     15  C   UNK     1       2.483   4.942  17.629  0.00  0.00    +0.000 C 
ENDBRANCH   1  15
BRANCH   1  16
ATOM     16  S   UNK     1       2.988   4.843  20.404  0.00  0.00    +0.000 S 
BRANCH  16  17
ATOM     17  C   UNK     1       1.199   4.436  20.440  0.00  0.00    +0.000 C 
BRANCH  17  18
ATOM     18  C   UNK     1       1.001   2.931  20.706  0.00  0.00    +0.000 C 
BRANCH  18  19
ATOM     19  N   UNK     1       1.950   2.406  21.720  0.00  0.00    +0.000 NA
ATOM     20  H   UNK     1       2.075   1.399  21.629  0.00  0.00    +0.000 HD
ATOM     21  H   UNK     1       1.661   2.661  22.662  0.00  0.00    +0.000 HD
ENDBRANCH  18  19
BRANCH  18  22
ATOM     22  C   UNK     1       1.068   2.140  19.389  0.00  0.00    +0.000 C 
ATOM     23  O   UNK     1       0.234   2.222  18.497  0.00  0.00    +0.000 OA
BRANCH  22  24
ATOM     24  O   UNK     1       2.160   1.342  19.280  0.00  0.00    +0.000 OA
ATOM     25  H   UNK     1       2.249   0.774  20.069  0.00  0.00    +0.000 HD
ENDBRANCH  22  24
ENDBRANCH  18  22
ENDBRANCH  17  18
ENDBRANCH  16  17
ENDBRANCH   1  16
TORSDOF 9
ENDMDL
