MODEL 1
REMARK VINA RESULT:      -6.0      0.000      0.000
REMARK  Name = 
REMARK  6 active torsions:
REMARK  status: ('A' for Active; 'I' for Inactive)
REMARK    1  A    between atoms: C_1  and  C_2
REMARK    2  A    between atoms: C_2  and  C_3
REMARK    3  A    between atoms: C_2  and  C_4
REMARK    4  A    between atoms: C_2  and  C_5
REMARK    5  A    between atoms: C_8  and  N_9
REMARK    6  A    between atoms: C_16  and  N_17
REMARK                            x       y       z     vdW  Elec       q    Type
REMARK                         _______ _______ _______ _____ _____    ______ ____
ROOT
ATOM      1  N   UNL     1       2.383   5.847  19.292  0.00  0.00    +0.000 N 
ATOM      2  C   UNL     1       2.042   5.864  20.643  0.00  0.00    +0.000 A 
ATOM      3  O   UNL     1       1.987   4.896  21.397  0.00  0.00    +0.000 OA
ATOM      4  N   UNL     1       1.705   7.059  21.188  0.00  0.00    +0.000 N 
ATOM      5  C   UNL     1       1.538   8.224  20.488  0.00  0.00    +0.000 A 
ATOM      6  N   UNL     1       1.161   9.306  21.198  0.00  0.00    +0.000 NA
ATOM      7  C   UNL     1       0.974  10.447  20.495  0.00  0.00    +0.000 A 
ATOM      8  C   UNL     1       1.103  10.557  19.110  0.00  0.00    +0.000 A 
ATOM      9  C   UNL     1       1.530   9.415  18.427  0.00  0.00    +0.000 A 
ATOM     10  C   UNL     1       1.727   8.225  19.128  0.00  0.00    +0.000 A 
ATOM     11  C   UNL     1       2.082   6.953  18.475  0.00  0.00    +0.000 A 
ATOM     12  O   UNL     1       2.034   6.925  17.249  0.00  0.00    +0.000 OA
ATOM     13  H   UNL     1       1.496   7.075  22.178  0.00  0.00    +0.000 HD
ENDROOT
BRANCH   1  17
ATOM     14  C   UNL     1       5.696   4.532  18.011  0.00  0.00    +0.000 C 
ATOM     15  C   UNL     1       5.092   4.076  19.353  0.00  0.00    +0.000 C 
ATOM     16  C   UNL     1       3.652   3.567  19.261  0.00  0.00    +0.000 C 
ATOM     17  C   UNL     1       2.699   4.569  18.581  0.00  0.00    +0.000 C 
ATOM     18  C   UNL     1       3.264   4.758  17.153  0.00  0.00    +0.000 C 
ATOM     19  C   UNL     1       4.687   5.307  17.136  0.00  0.00    +0.000 C 
BRANCH  14  21
ATOM     20  C   UNL     1       7.306   5.634  19.683  0.00  0.00    +0.000 C 
ATOM     21  C   UNL     1       7.064   5.308  18.194  0.00  0.00    +0.000 C 
ATOM     22  C   UNL     1       7.110   6.643  17.413  0.00  0.00    +0.000 C 
ATOM     23  C   UNL     1       8.238   4.432  17.711  0.00  0.00    +0.000 C 
ENDBRANCH  14  21
ENDBRANCH   1  17
BRANCH   8  24
ATOM     24  N   UNL     1       1.046  11.796  18.465  0.00  0.00    +0.000 N 
ATOM     25  H   UNL     1       0.164  11.995  17.999  0.00  0.00    +0.000 HD
ATOM     26  H   UNL     1       1.846  12.007  17.877  0.00  0.00    +0.000 HD
ENDBRANCH   8  24
TORSDOF 3
ENDMDL
MODEL 2
REMARK VINA RESULT:      -6.0      3.286      7.868
REMARK  Name = 
REMARK  6 active torsions:
REMARK  status: ('A' for Active; 'I' for Inactive)
REMARK    1  A    between atoms: C_1  and  C_2
REMARK    2  A    between atoms: C_2  and  C_3
REMARK    3  A    between atoms: C_2  and  C_4
REMARK    4  A    between atoms: C_2  and  C_5
REMARK    5  A    between atoms: C_8  and  N_9
REMARK    6  A    between atoms: C_16  and  N_17
REMARK                            x       y       z     vdW  Elec       q    Type
REMARK                         _______ _______ _______ _____ _____    ______ ____
ROOT
ATOM      1  N   UNL     1       0.436  10.444  19.975  0.00  0.00    +0.000 N 
ATOM      2  C   UNL     1       0.234   9.747  21.164  0.00  0.00    +0.000 A 
ATOM      3  O   UNL     1      -0.302  10.174  22.184  0.00  0.00    +0.000 OA
ATOM      4  N   UNL     1       0.699   8.475  21.229  0.00  0.00    +0.000 N 
ATOM      5  C   UNL     1       1.471   7.868  20.274  0.00  0.00    +0.000 A 
ATOM      6  N   UNL     1       1.873   6.608  20.533  0.00  0.00    +0.000 NA
ATOM      7  C   UNL     1       2.656   6.026  19.594  0.00  0.00    +0.000 A 
ATOM      8  C   UNL     1       3.095   6.651  18.426  0.00  0.00    +0.000 A 
ATOM      9  C   UNL     1       2.620   7.944  18.190  0.00  0.00    +0.000 A 
ATOM     10  C   UNL     1       1.814   8.568  19.143  0.00  0.00    +0.000 A 
ATOM     11  C   UNL     1       1.349   9.961  19.020  0.00  0.00    +0.000 A 
ATOM     12  O   UNL     1       1.841  10.633  18.119  0.00  0.00    +0.000 OA
ATOM     13  H   UNL     1       0.517   7.957  22.079  0.00  0.00    +0.000 HD
ENDROOT
BRANCH   1  17
ATOM     14  C   UNL     1      -2.687  11.935  18.435  0.00  0.00    +0.000 C 
ATOM     15  C   UNL     1      -2.530  11.742  19.956  0.00  0.00    +0.000 C 
ATOM     16  C   UNL     1      -1.255  12.349  20.544  0.00  0.00    +0.000 C 
ATOM     17  C   UNL     1       0.026  11.876  19.830  0.00  0.00    +0.000 C 
ATOM     18  C   UNL     1      -0.132  12.346  18.365  0.00  0.00    +0.000 C 
ATOM     19  C   UNL     1      -1.356  11.758  17.671  0.00  0.00    +0.000 C 
BRANCH  14  21
ATOM     20  C   UNL     1      -4.172  11.496  16.385  0.00  0.00    +0.000 C 
ATOM     21  C   UNL     1      -3.857  11.056  17.830  0.00  0.00    +0.000 C 
ATOM     22  C   UNL     1      -5.170  11.156  18.643  0.00  0.00    +0.000 C 
ATOM     23  C   UNL     1      -3.436   9.573  17.786  0.00  0.00    +0.000 C 
ENDBRANCH  14  21
ENDBRANCH   1  17
BRANCH   8  24
ATOM     24  N   UNL     1       3.773   5.946  17.429  0.00  0.00    +0.000 N 
ATOM     25  H   UNL     1       3.214   5.251  16.940  0.00  0.00    +0.000 HD
ATOM     26  H   UNL     1       4.679   5.581  17.707  0.00  0.00    +0.000 HD
ENDBRANCH   8  24
TORSDOF 3
ENDMDL
MODEL 3
REMARK VINA RESULT:      -5.9      1.017      1.218
REMARK  Name = 
REMARK  6 active torsions:
REMARK  status: ('A' for Active; 'I' for Inactive)
REMARK    1  A    between atoms: C_1  and  C_2
REMARK    2  A    between atoms: C_2  and  C_3
REMARK    3  A    between atoms: C_2  and  C_4
REMARK    4  A    between atoms: C_2  and  C_5
REMARK    5  A    between atoms: C_8  and  N_9
REMARK    6  A    between atoms: C_16  and  N_17
REMARK                            x       y       z     vdW  Elec       q    Type
REMARK                         _______ _______ _______ _____ _____    ______ ____
ROOT
ATOM      1  N   UNL     1       2.529   5.044  19.452  0.00  0.00    +0.000 N 
ATOM      2  C   UNL     1       2.128   5.200  20.777  0.00  0.00    +0.000 A 
ATOM      3  O   UNL     1       2.015   4.312  21.618  0.00  0.00    +0.000 OA
ATOM      4  N   UNL     1       1.797   6.449  21.188  0.00  0.00    +0.000 N 
ATOM      5  C   UNL     1       1.691   7.544  20.372  0.00  0.00    +0.000 A 
ATOM      6  N   UNL     1       1.310   8.698  20.956  0.00  0.00    +0.000 NA
ATOM      7  C   UNL     1       1.183   9.768  20.137  0.00  0.00    +0.000 A 
ATOM      8  C   UNL     1       1.377   9.740  18.755  0.00  0.00    +0.000 A 
ATOM      9  C   UNL     1       1.805   8.528  18.207  0.00  0.00    +0.000 A 
ATOM     10  C   UNL     1       1.941   7.408  19.028  0.00  0.00    +0.000 A 
ATOM     11  C   UNL     1       2.293   6.071  18.519  0.00  0.00    +0.000 A 
ATOM     12  O   UNL     1       2.299   5.924  17.300  0.00  0.00    +0.000 OA
ATOM     13  H   UNL     1       1.545   6.566  22.161  0.00  0.00    +0.000 HD
ENDROOT
BRANCH   1  17
ATOM     14  C   UNL     1       5.440   3.934  17.298  0.00  0.00    +0.000 C 
ATOM     15  C   UNL     1       5.405   3.700  18.821  0.00  0.00    +0.000 C 
ATOM     16  C   UNL     1       4.144   2.999  19.327  0.00  0.00    +0.000 C 
ATOM     17  C   UNL     1       2.844   3.696  18.883  0.00  0.00    +0.000 C 
ATOM     18  C   UNL     1       2.867   3.649  17.337  0.00  0.00    +0.000 C 
ATOM     19  C   UNL     1       4.070   4.364  16.729  0.00  0.00    +0.000 C 
BRANCH  14  21
ATOM     20  C   UNL     1       6.172   6.378  16.995  0.00  0.00    +0.000 C 
ATOM     21  C   UNL     1       6.611   4.904  16.860  0.00  0.00    +0.000 C 
ATOM     22  C   UNL     1       7.061   4.686  15.396  0.00  0.00    +0.000 C 
ATOM     23  C   UNL     1       7.839   4.698  17.771  0.00  0.00    +0.000 C 
ENDBRANCH  14  21
ENDBRANCH   1  17
BRANCH   8  24
ATOM     24  N   UNL     1       1.380  10.910  17.992  0.00  0.00    +0.000 N 
ATOM     25  H   UNL     1       2.154  10.992  17.337  0.00  0.00    +0.000 HD
ATOM     26  H   UNL     1       1.234  11.764  18.522  0.00  0.00    +0.000 HD
ENDBRANCH   8  24
TORSDOF 3
ENDMDL
MODEL 4
REMARK VINA RESULT:      -5.9      0.697      1.205
REMARK  Name = 
REMARK  6 active torsions:
REMARK  status: ('A' for Active; 'I' for Inactive)
REMARK    1  A    between atoms: C_1  and  C_2
REMARK    2  A    between atoms: C_2  and  C_3
REMARK    3  A    between atoms: C_2  and  C_4
REMARK    4  A    between atoms: C_2  and  C_5
REMARK    5  A    between atoms: C_8  and  N_9
REMARK    6  A    between atoms: C_16  and  N_17
REMARK                            x       y       z     vdW  Elec       q    Type
REMARK                         _______ _______ _______ _____ _____    ______ ____
ROOT
ATOM      1  N   UNL     1       2.483   5.393  19.436  0.00  0.00    +0.000 N 
ATOM      2  C   UNL     1       2.142   5.482  20.785  0.00  0.00    +0.000 A 
ATOM      3  O   UNL     1       2.095   4.557  21.592  0.00  0.00    +0.000 OA
ATOM      4  N   UNL     1       1.796   6.703  21.263  0.00  0.00    +0.000 N 
ATOM      5  C   UNL     1       1.620   7.826  20.500  0.00  0.00    +0.000 A 
ATOM      6  N   UNL     1       1.235   8.943  21.150  0.00  0.00    +0.000 NA
ATOM      7  C   UNL     1       1.039  10.042  20.384  0.00  0.00    +0.000 A 
ATOM      8  C   UNL     1       1.167  10.076  18.995  0.00  0.00    +0.000 A 
ATOM      9  C   UNL     1       1.602   8.901  18.376  0.00  0.00    +0.000 A 
ATOM     10  C   UNL     1       1.809   7.753  19.141  0.00  0.00    +0.000 A 
ATOM     11  C   UNL     1       2.173   6.450  18.560  0.00  0.00    +0.000 A 
ATOM     12  O   UNL     1       2.125   6.354  17.337  0.00  0.00    +0.000 OA
ATOM     13  H   UNL     1       1.587   6.772  22.251  0.00  0.00    +0.000 HD
ENDROOT
BRANCH   1  17
ATOM     14  C   UNL     1       5.559   4.328  17.500  0.00  0.00    +0.000 C 
ATOM     15  C   UNL     1       5.361   3.982  18.989  0.00  0.00    +0.000 C 
ATOM     16  C   UNL     1       4.032   3.297  19.311  0.00  0.00    +0.000 C 
ATOM     17  C   UNL     1       2.808   4.080  18.797  0.00  0.00    +0.000 C 
ATOM     18  C   UNL     1       2.986   4.148  17.262  0.00  0.00    +0.000 C 
ATOM     19  C   UNL     1       4.268   4.856  16.834  0.00  0.00    +0.000 C 
BRANCH  14  21
ATOM     20  C   UNL     1       7.493   4.936  15.921  0.00  0.00    +0.000 C 
ATOM     21  C   UNL     1       6.800   5.279  17.257  0.00  0.00    +0.000 C 
ATOM     22  C   UNL     1       7.868   5.175  18.373  0.00  0.00    +0.000 C 
ATOM     23  C   UNL     1       6.335   6.747  17.179  0.00  0.00    +0.000 C 
ENDBRANCH  14  21
ENDBRANCH   1  17
BRANCH   8  24
ATOM     24  N   UNL     1       1.100  11.277  18.283  0.00  0.00    +0.000 N 
ATOM     25  H   UNL     1       1.580  11.270  17.387  0.00  0.00    +0.000 HD
ATOM     26  H   UNL     1       1.314  12.107  18.827  0.00  0.00    +0.000 HD
ENDBRANCH   8  24
TORSDOF 3
ENDMDL
MODEL 5
REMARK VINA RESULT:      -5.8      6.614      8.540
REMARK  Name = 
REMARK  6 active torsions:
REMARK  status: ('A' for Active; 'I' for Inactive)
REMARK    1  A    between atoms: C_1  and  C_2
REMARK    2  A    between atoms: C_2  and  C_3
REMARK    3  A    between atoms: C_2  and  C_4
REMARK    4  A    between atoms: C_2  and  C_5
REMARK    5  A    between atoms: C_8  and  N_9
REMARK    6  A    between atoms: C_16  and  N_17
REMARK                            x       y       z     vdW  Elec       q    Type
REMARK                         _______ _______ _______ _____ _____    ______ ____
ROOT
ATOM      1  N   UNL     1      -1.576  11.682  20.125  0.00  0.00    +0.000 N 
ATOM      2  C   UNL     1      -2.819  12.284  20.305  0.00  0.00    +0.000 A 
ATOM      3  O   UNL     1      -3.254  12.774  21.345  0.00  0.00    +0.000 OA
ATOM      4  N   UNL     1      -3.659  12.315  19.241  0.00  0.00    +0.000 N 
ATOM      5  C   UNL     1      -3.442  11.680  18.047  0.00  0.00    +0.000 A 
ATOM      6  N   UNL     1      -4.412  11.792  17.118  0.00  0.00    +0.000 NA
ATOM      7  C   UNL     1      -4.199  11.141  15.950  0.00  0.00    +0.000 A 
ATOM      8  C   UNL     1      -3.084  10.347  15.675  0.00  0.00    +0.000 A 
ATOM      9  C   UNL     1      -2.093  10.294  16.659  0.00  0.00    +0.000 A 
ATOM     10  C   UNL     1      -2.289  10.954  17.872  0.00  0.00    +0.000 A 
ATOM     11  C   UNL     1      -1.342  10.872  18.998  0.00  0.00    +0.000 A 
ATOM     12  O   UNL     1      -0.434  10.052  18.902  0.00  0.00    +0.000 OA
ATOM     13  H   UNL     1      -4.546  12.788  19.363  0.00  0.00    +0.000 HD
ENDROOT
BRANCH   1  17
ATOM     14  C   UNL     1       1.313  13.901  21.161  0.00  0.00    +0.000 C 
ATOM     15  C   UNL     1      -0.064  13.965  21.850  0.00  0.00    +0.000 C 
ATOM     16  C   UNL     1      -0.586  12.617  22.351  0.00  0.00    +0.000 C 
ATOM     17  C   UNL     1      -0.608  11.533  21.256  0.00  0.00    +0.000 C 
ATOM     18  C   UNL     1       0.866  11.374  20.815  0.00  0.00    +0.000 C 
ATOM     19  C   UNL     1       1.469  12.659  20.256  0.00  0.00    +0.000 C 
BRANCH  14  21
ATOM     20  C   UNL     1       2.590  16.126  21.298  0.00  0.00    +0.000 C 
ATOM     21  C   UNL     1       1.680  15.247  20.414  0.00  0.00    +0.000 C 
ATOM     22  C   UNL     1       0.437  16.092  20.044  0.00  0.00    +0.000 C 
ATOM     23  C   UNL     1       2.450  14.938  19.113  0.00  0.00    +0.000 C 
ENDBRANCH  14  21
ENDBRANCH   1  17
BRANCH   8  24
ATOM     24  N   UNL     1      -2.853   9.828  14.398  0.00  0.00    +0.000 N 
ATOM     25  H   UNL     1      -3.557   9.171  14.070  0.00  0.00    +0.000 HD
ATOM     26  H   UNL     1      -1.909   9.488  14.242  0.00  0.00    +0.000 HD
ENDBRANCH   8  24
TORSDOF 3
ENDMDL
MODEL 6
REMARK VINA RESULT:      -5.8      6.285      8.367
REMARK  Name = 
REMARK  6 active torsions:
REMARK  status: ('A' for Active; 'I' for Inactive)
REMARK    1  A    between atoms: C_1  and  C_2
REMARK    2  A    between atoms: C_2  and  C_3
REMARK    3  A    between atoms: C_2  and  C_4
REMARK    4  A    between atoms: C_2  and  C_5
REMARK    5  A    between atoms: C_8  and  N_9
REMARK    6  A    between atoms: C_16  and  N_17
REMARK                            x       y       z     vdW  Elec       q    Type
REMARK                         _______ _______ _______ _____ _____    ______ ____
ROOT
ATOM      1  N   UNL     1      -1.262  11.656  19.622  0.00  0.00    +0.000 N 
ATOM      2  C   UNL     1      -2.469  12.227  20.019  0.00  0.00    +0.000 A 
ATOM      3  O   UNL     1      -2.737  12.677  21.131  0.00  0.00    +0.000 OA
ATOM      4  N   UNL     1      -3.470  12.271  19.106  0.00  0.00    +0.000 N 
ATOM      5  C   UNL     1      -3.438  11.676  17.873  0.00  0.00    +0.000 A 
ATOM      6  N   UNL     1      -4.548  11.795  17.116  0.00  0.00    +0.000 NA
ATOM      7  C   UNL     1      -4.516  11.183  15.909  0.00  0.00    +0.000 A 
ATOM      8  C   UNL     1      -3.448  10.421  15.432  0.00  0.00    +0.000 A 
ATOM      9  C   UNL     1      -2.310  10.360  16.241  0.00  0.00    +0.000 A 
ATOM     10  C   UNL     1      -2.317  10.980  17.491  0.00  0.00    +0.000 A 
ATOM     11  C   UNL     1      -1.200  10.885  18.446  0.00  0.00    +0.000 A 
ATOM     12  O   UNL     1      -0.307  10.087  18.179  0.00  0.00    +0.000 OA
ATOM     13  H   UNL     1      -4.333  12.722  19.384  0.00  0.00    +0.000 HD
ENDROOT
BRANCH   1  17
ATOM     14  C   UNL     1       1.780  13.845  20.170  0.00  0.00    +0.000 C 
ATOM     15  C   UNL     1       0.537  13.919  21.077  0.00  0.00    +0.000 C 
ATOM     16  C   UNL     1       0.091  12.574  21.655  0.00  0.00    +0.000 C 
ATOM     17  C   UNL     1      -0.121  11.494  20.577  0.00  0.00    +0.000 C 
ATOM     18  C   UNL     1       1.257  11.323  19.898  0.00  0.00    +0.000 C 
ATOM     19  C   UNL     1       1.773  12.604  19.249  0.00  0.00    +0.000 C 
BRANCH  14  21
ATOM     20  C   UNL     1       0.696  15.784  18.878  0.00  0.00    +0.000 C 
ATOM     21  C   UNL     1       2.032  15.190  19.375  0.00  0.00    +0.000 C 
ATOM     22  C   UNL     1       2.943  15.001  18.138  0.00  0.00    +0.000 C 
ATOM     23  C   UNL     1       2.693  16.235  20.297  0.00  0.00    +0.000 C 
ENDBRANCH  14  21
ENDBRANCH   1  17
BRANCH   8  24
ATOM     24  N   UNL     1      -3.418   9.945  14.119  0.00  0.00    +0.000 N 
ATOM     25  H   UNL     1      -2.495   9.681  13.780  0.00  0.00    +0.000 HD
ATOM     26  H   UNL     1      -3.924  10.514  13.447  0.00  0.00    +0.000 HD
ENDBRANCH   8  24
TORSDOF 3
ENDMDL
MODEL 7
REMARK VINA RESULT:      -5.8      5.831      8.002
REMARK  Name = 
REMARK  6 active torsions:
REMARK  status: ('A' for Active; 'I' for Inactive)
REMARK    1  A    between atoms: C_1  and  C_2
REMARK    2  A    between atoms: C_2  and  C_3
REMARK    3  A    between atoms: C_2  and  C_4
REMARK    4  A    between atoms: C_2  and  C_5
REMARK    5  A    between atoms: C_8  and  N_9
REMARK    6  A    between atoms: C_16  and  N_17
REMARK                            x       y       z     vdW  Elec       q    Type
REMARK                         _______ _______ _______ _____ _____    ______ ____
ROOT
ATOM      1  N   UNL     1      -0.773  11.333  19.245  0.00  0.00    +0.000 N 
ATOM      2  C   UNL     1      -1.816  11.993  19.892  0.00  0.00    +0.000 A 
ATOM      3  O   UNL     1      -1.811  12.422  21.043  0.00  0.00    +0.000 OA
ATOM      4  N   UNL     1      -2.973  12.159  19.204  0.00  0.00    +0.000 N 
ATOM      5  C   UNL     1      -3.247  11.611  17.979  0.00  0.00    +0.000 A 
ATOM      6  N   UNL     1      -4.470  11.855  17.468  0.00  0.00    +0.000 NA
ATOM      7  C   UNL     1      -4.740  11.288  16.269  0.00  0.00    +0.000 A 
ATOM      8  C   UNL     1      -3.867  10.454  15.569  0.00  0.00    +0.000 A 
ATOM      9  C   UNL     1      -2.600  10.263  16.126  0.00  0.00    +0.000 A 
ATOM     10  C   UNL     1      -2.297  10.833  17.363  0.00  0.00    +0.000 A 
ATOM     11  C   UNL     1      -1.023  10.605  18.067  0.00  0.00    +0.000 A 
ATOM     12  O   UNL     1      -0.281   9.741  17.607  0.00  0.00    +0.000 OA
ATOM     13  H   UNL     1      -3.715  12.673  19.661  0.00  0.00    +0.000 HD
ENDROOT
BRANCH   1  17
ATOM     14  C   UNL     1       2.307  13.493  19.687  0.00  0.00    +0.000 C 
ATOM     15  C   UNL     1       1.240  13.343  20.789  0.00  0.00    +0.000 C 
ATOM     16  C   UNL     1       0.908  11.897  21.159  0.00  0.00    +0.000 C 
ATOM     17  C   UNL     1       0.516  11.035  19.943  0.00  0.00    +0.000 C 
ATOM     18  C   UNL     1       1.757  11.052  19.020  0.00  0.00    +0.000 C 
ATOM     19  C   UNL     1       2.146  12.452  18.556  0.00  0.00    +0.000 C 
BRANCH  14  21
ATOM     20  C   UNL     1       3.226  15.012  17.830  0.00  0.00    +0.000 C 
ATOM     21  C   UNL     1       2.410  14.974  19.139  0.00  0.00    +0.000 C 
ATOM     22  C   UNL     1       3.089  15.942  20.138  0.00  0.00    +0.000 C 
ATOM     23  C   UNL     1       1.002  15.523  18.828  0.00  0.00    +0.000 C 
ENDBRANCH  14  21
ENDBRANCH   1  17
BRANCH   8  24
ATOM     24  N   UNL     1      -4.148  10.027  14.269  0.00  0.00    +0.000 N 
ATOM     25  H   UNL     1      -3.386   9.538  13.805  0.00  0.00    +0.000 HD
ATOM     26  H   UNL     1      -4.572  10.730  13.672  0.00  0.00    +0.000 HD
ENDBRANCH   8  24
TORSDOF 3
ENDMDL
MODEL 8
REMARK VINA RESULT:      -5.7      5.315      8.489
REMARK  Name = 
REMARK  6 active torsions:
REMARK  status: ('A' for Active; 'I' for Inactive)
REMARK    1  A    between atoms: C_1  and  C_2
REMARK    2  A    between atoms: C_2  and  C_3
REMARK    3  A    between atoms: C_2  and  C_4
REMARK    4  A    between atoms: C_2  and  C_5
REMARK    5  A    between atoms: C_8  and  N_9
REMARK    6  A    between atoms: C_16  and  N_17
REMARK                            x       y       z     vdW  Elec       q    Type
REMARK                         _______ _______ _______ _____ _____    ______ ____
ROOT
ATOM      1  N   UNL     1      -2.344  12.310  19.357  0.00  0.00    +0.000 N 
ATOM      2  C   UNL     1      -2.800  11.687  18.198  0.00  0.00    +0.000 A 
ATOM      3  O   UNL     1      -2.150  11.467  17.178  0.00  0.00    +0.000 OA
ATOM      4  N   UNL     1      -4.100  11.305  18.164  0.00  0.00    +0.000 N 
ATOM      5  C   UNL     1      -5.035  11.605  19.119  0.00  0.00    +0.000 A 
ATOM      6  N   UNL     1      -6.291  11.172  18.892  0.00  0.00    +0.000 NA
ATOM      7  C   UNL     1      -7.213  11.495  19.829  0.00  0.00    +0.000 A 
ATOM      8  C   UNL     1      -6.956  12.266  20.964  0.00  0.00    +0.000 A 
ATOM      9  C   UNL     1      -5.631  12.660  21.168  0.00  0.00    +0.000 A 
ATOM     10  C   UNL     1      -4.662  12.342  20.216  0.00  0.00    +0.000 A 
ATOM     11  C   UNL     1      -3.264  12.798  20.304  0.00  0.00    +0.000 A 
ATOM     12  O   UNL     1      -3.003  13.628  21.170  0.00  0.00    +0.000 OA
ATOM     13  H   UNL     1      -4.419  10.816  17.336  0.00  0.00    +0.000 HD
ENDROOT
BRANCH   1  17
ATOM     14  C   UNL     1       0.763  10.676  20.779  0.00  0.00    +0.000 C 
ATOM     15  C   UNL     1       0.466  10.706  19.267  0.00  0.00    +0.000 C 
ATOM     16  C   UNL     1       0.174  12.098  18.705  0.00  0.00    +0.000 C 
ATOM     17  C   UNL     1      -0.946  12.835  19.465  0.00  0.00    +0.000 C 
ATOM     18  C   UNL     1      -0.429  12.970  20.916  0.00  0.00    +0.000 C 
ATOM     19  C   UNL     1      -0.148  11.628  21.584  0.00  0.00    +0.000 C 
BRANCH  14  21
ATOM     20  C   UNL     1       1.455   9.181  22.751  0.00  0.00    +0.000 C 
ATOM     21  C   UNL     1       0.775   9.206  21.365  0.00  0.00    +0.000 C 
ATOM     22  C   UNL     1       1.529   8.201  20.461  0.00  0.00    +0.000 C 
ATOM     23  C   UNL     1      -0.669   8.695  21.544  0.00  0.00    +0.000 C 
ENDBRANCH  14  21
ENDBRANCH   1  17
BRANCH   8  24
ATOM     24  N   UNL     1      -7.915  12.435  21.967  0.00  0.00    +0.000 N 
ATOM     25  H   UNL     1      -8.616  11.700  22.016  0.00  0.00    +0.000 HD
ATOM     26  H   UNL     1      -8.327  13.362  22.010  0.00  0.00    +0.000 HD
ENDBRANCH   8  24
TORSDOF 3
ENDMDL
MODEL 9
REMARK VINA RESULT:      -5.7      6.270      8.977
REMARK  Name = 
REMARK  6 active torsions:
REMARK  status: ('A' for Active; 'I' for Inactive)
REMARK    1  A    between atoms: C_1  and  C_2
REMARK    2  A    between atoms: C_2  and  C_3
REMARK    3  A    between atoms: C_2  and  C_4
REMARK    4  A    between atoms: C_2  and  C_5
REMARK    5  A    between atoms: C_8  and  N_9
REMARK    6  A    between atoms: C_16  and  N_17
REMARK                            x       y       z     vdW  Elec       q    Type
REMARK                         _______ _______ _______ _____ _____    ______ ____
ROOT
ATOM      1  N   UNL     1      -3.320  11.891  19.123  0.00  0.00    +0.000 N 
ATOM      2  C   UNL     1      -4.130  11.145  18.269  0.00  0.00    +0.000 A 
ATOM      3  O   UNL     1      -3.810  10.670  17.183  0.00  0.00    +0.000 OA
ATOM      4  N   UNL     1      -5.416  10.941  18.648  0.00  0.00    +0.000 N 
ATOM      5  C   UNL     1      -6.020  11.523  19.731  0.00  0.00    +0.000 A 
ATOM      6  N   UNL     1      -7.322  11.229  19.927  0.00  0.00    +0.000 NA
ATOM      7  C   UNL     1      -7.917  11.828  20.985  0.00  0.00    +0.000 A 
ATOM      8  C   UNL     1      -7.292  12.740  21.837  0.00  0.00    +0.000 A 
ATOM      9  C   UNL     1      -5.934  12.982  21.610  0.00  0.00    +0.000 A 
ATOM     10  C   UNL     1      -5.297  12.379  20.525  0.00  0.00    +0.000 A 
ATOM     11  C   UNL     1      -3.897  12.652  20.157  0.00  0.00    +0.000 A 
ATOM     12  O   UNL     1      -3.339  13.575  20.742  0.00  0.00    +0.000 OA
ATOM     13  H   UNL     1      -5.992  10.366  18.046  0.00  0.00    +0.000 HD
ENDROOT
BRANCH   1  17
ATOM     14  C   UNL     1      -0.060  10.640  20.591  0.00  0.00    +0.000 C 
ATOM     15  C   UNL     1      -0.653  10.065  19.290  0.00  0.00    +0.000 C 
ATOM     16  C   UNL     1      -0.995  11.113  18.230  0.00  0.00    +0.000 C 
ATOM     17  C   UNL     1      -1.909  12.234  18.760  0.00  0.00    +0.000 C 
ATOM     18  C   UNL     1      -1.106  12.906  19.899  0.00  0.00    +0.000 C 
ATOM     19  C   UNL     1      -0.752  11.949  21.033  0.00  0.00    +0.000 C 
BRANCH  14  21
ATOM     20  C   UNL     1       1.476   9.299  22.154  0.00  0.00    +0.000 C 
ATOM     21  C   UNL     1       0.010   9.568  21.752  0.00  0.00    +0.000 C 
ATOM     22  C   UNL     1      -0.620   8.210  21.359  0.00  0.00    +0.000 C 
ATOM     23  C   UNL     1      -0.728  10.091  23.002  0.00  0.00    +0.000 C 
ENDBRANCH  14  21
ENDBRANCH   1  17
BRANCH   8  24
ATOM     24  N   UNL     1      -7.916  13.204  22.997  0.00  0.00    +0.000 N 
ATOM     25  H   UNL     1      -8.933  13.224  22.957  0.00  0.00    +0.000 HD
ATOM     26  H   UNL     1      -7.530  14.065  23.373  0.00  0.00    +0.000 HD
ENDBRANCH   8  24
TORSDOF 3
ENDMDL
