MODEL 1
REMARK VINA RESULT:      -5.4      0.000      0.000
REMARK  Name = 
REMARK  3 active torsions:
REMARK  status: ('A' for Active; 'I' for Inactive)
REMARK    1  A    between atoms: N_1  and  C_2
REMARK    2  A    between atoms: C_2  and  C_3
REMARK    3  A    between atoms: C_7  and  N_8
REMARK                            x       y       z     vdW  Elec       q    Type
REMARK                         _______ _______ _______ _____ _____    ______ ____
ROOT
ATOM      1  C   UNL     1       3.699   3.918  17.473  0.00  0.00    +0.000 A 
ATOM      2  C   UNL     1       3.135   5.166  17.771  0.00  0.00    +0.000 A 
ATOM      3  C   UNL     1       3.873   6.336  17.583  0.00  0.00    +0.000 A 
ATOM      4  C   UNL     1       5.182   6.272  17.103  0.00  0.00    +0.000 A 
ATOM      5  C   UNL     1       5.771   5.030  16.797  0.00  0.00    +0.000 A 
ATOM      6  C   UNL     1       5.016   3.856  16.984  0.00  0.00    +0.000 A 
ENDROOT
BRANCH   5   7
ATOM      7  N   UNL     1       7.113   4.958  16.313  0.00  0.00    +0.000 N 
ATOM      8  O   UNL     1       7.956   4.392  16.941  0.00  0.00    +0.000 OA
ATOM      9  O   UNL     1       7.436   5.500  15.157  0.00  0.00    +0.000 OA
ENDBRANCH   5   7
BRANCH   1  10
ATOM     10  C   UNL     1       2.898   2.660  17.691  0.00  0.00    +0.000 C 
BRANCH  10  11
ATOM     11  N   UNL     1       3.774   1.557  18.070  0.00  0.00    +0.000 NA
ATOM     12  H   UNL     1       3.317   1.024  18.845  0.00  0.00    +0.000 HD
ATOM     13  H   UNL     1       4.672   1.947  18.437  0.00  0.00    +0.000 HD
ENDBRANCH  10  11
ENDBRANCH   1  10
TORSDOF 3
ENDMDL
MODEL 2
REMARK VINA RESULT:      -5.4      2.567      3.536
REMARK  Name = 
REMARK  3 active torsions:
REMARK  status: ('A' for Active; 'I' for Inactive)
REMARK    1  A    between atoms: N_1  and  C_2
REMARK    2  A    between atoms: C_2  and  C_3
REMARK    3  A    between atoms: C_7  and  N_8
REMARK                            x       y       z     vdW  Elec       q    Type
REMARK                         _______ _______ _______ _____ _____    ______ ____
ROOT
ATOM      1  C   UNL     1       6.967   5.380  18.116  0.00  0.00    +0.000 A 
ATOM      2  C   UNL     1       5.794   4.748  18.550  0.00  0.00    +0.000 A 
ATOM      3  C   UNL     1       4.974   4.079  17.638  0.00  0.00    +0.000 A 
ATOM      4  C   UNL     1       5.316   4.039  16.285  0.00  0.00    +0.000 A 
ATOM      5  C   UNL     1       6.490   4.666  15.825  0.00  0.00    +0.000 A 
ATOM      6  C   UNL     1       7.311   5.333  16.754  0.00  0.00    +0.000 A 
ENDROOT
BRANCH   5   7
ATOM      7  N   UNL     1       6.839   4.635  14.440  0.00  0.00    +0.000 N 
ATOM      8  O   UNL     1       7.652   5.391  14.001  0.00  0.00    +0.000 OA
ATOM      9  O   UNL     1       6.283   3.757  13.631  0.00  0.00    +0.000 OA
ENDBRANCH   5   7
BRANCH   1  10
ATOM     10  C   UNL     1       7.837   6.109  19.107  0.00  0.00    +0.000 C 
BRANCH  10  11
ATOM     11  N   UNL     1       7.930   5.358  20.354  0.00  0.00    +0.000 NA
ATOM     12  H   UNL     1       8.904   5.449  20.722  0.00  0.00    +0.000 HD
ATOM     13  H   UNL     1       7.756   4.346  20.155  0.00  0.00    +0.000 HD
ENDBRANCH  10  11
ENDBRANCH   1  10
TORSDOF 3
ENDMDL
MODEL 3
REMARK VINA RESULT:      -5.3      1.430      1.604
REMARK  Name = 
REMARK  3 active torsions:
REMARK  status: ('A' for Active; 'I' for Inactive)
REMARK    1  A    between atoms: N_1  and  C_2
REMARK    2  A    between atoms: C_2  and  C_3
REMARK    3  A    between atoms: C_7  and  N_8
REMARK                            x       y       z     vdW  Elec       q    Type
REMARK                         _______ _______ _______ _____ _____    ______ ____
ROOT
ATOM      1  C   UNL     1       4.395   4.282  17.628  0.00  0.00    +0.000 A 
ATOM      2  C   UNL     1       3.976   5.603  17.837  0.00  0.00    +0.000 A 
ATOM      3  C   UNL     1       4.411   6.623  16.988  0.00  0.00    +0.000 A 
ATOM      4  C   UNL     1       5.270   6.335  15.927  0.00  0.00    +0.000 A 
ATOM      5  C   UNL     1       5.705   5.015  15.696  0.00  0.00    +0.000 A 
ATOM      6  C   UNL     1       5.256   3.994  16.555  0.00  0.00    +0.000 A 
ENDROOT
BRANCH   5   7
ATOM      7  N   UNL     1       6.591   4.717  14.617  0.00  0.00    +0.000 N 
ATOM      8  O   UNL     1       6.343   3.834  13.853  0.00  0.00    +0.000 OA
ATOM      9  O   UNL     1       7.686   5.426  14.437  0.00  0.00    +0.000 OA
ENDBRANCH   5   7
BRANCH   1  10
ATOM     10  C   UNL     1       3.929   3.191  18.558  0.00  0.00    +0.000 C 
BRANCH  10  11
ATOM     11  N   UNL     1       5.023   2.756  19.422  0.00  0.00    +0.000 NA
ATOM     12  H   UNL     1       4.980   1.716  19.510  0.00  0.00    +0.000 HD
ATOM     13  H   UNL     1       4.884   3.164  20.375  0.00  0.00    +0.000 HD
ENDBRANCH  10  11
ENDBRANCH   1  10
TORSDOF 3
ENDMDL
MODEL 4
REMARK VINA RESULT:      -5.3      1.159      1.363
REMARK  Name = 
REMARK  3 active torsions:
REMARK  status: ('A' for Active; 'I' for Inactive)
REMARK    1  A    between atoms: N_1  and  C_2
REMARK    2  A    between atoms: C_2  and  C_3
REMARK    3  A    between atoms: C_7  and  N_8
REMARK                            x       y       z     vdW  Elec       q    Type
REMARK                         _______ _______ _______ _____ _____    ______ ____
ROOT
ATOM      1  C   UNL     1       4.163   4.025  18.469  0.00  0.00    +0.000 A 
ATOM      2  C   UNL     1       3.235   5.068  18.354  0.00  0.00    +0.000 A 
ATOM      3  C   UNL     1       3.586   6.257  17.710  0.00  0.00    +0.000 A 
ATOM      4  C   UNL     1       4.867   6.416  17.179  0.00  0.00    +0.000 A 
ATOM      5  C   UNL     1       5.818   5.382  17.283  0.00  0.00    +0.000 A 
ATOM      6  C   UNL     1       5.451   4.186  17.929  0.00  0.00    +0.000 A 
ENDROOT
BRANCH   5   7
ATOM      7  N   UNL     1       7.133   5.543  16.749  0.00  0.00    +0.000 N 
ATOM      8  O   UNL     1       7.536   6.625  16.447  0.00  0.00    +0.000 OA
ATOM      9  O   UNL     1       7.926   4.503  16.602  0.00  0.00    +0.000 OA
ENDBRANCH   5   7
BRANCH   1  10
ATOM     10  C   UNL     1       3.777   2.752  19.178  0.00  0.00    +0.000 C 
BRANCH  10  11
ATOM     11  N   UNL     1       4.939   2.161  19.833  0.00  0.00    +0.000 NA
ATOM     12  H   UNL     1       4.666   1.884  20.803  0.00  0.00    +0.000 HD
ATOM     13  H   UNL     1       5.692   2.883  19.906  0.00  0.00    +0.000 HD
ENDBRANCH  10  11
ENDBRANCH   1  10
TORSDOF 3
ENDMDL
MODEL 5
REMARK VINA RESULT:      -5.2      2.915      4.090
REMARK  Name = 
REMARK  3 active torsions:
REMARK  status: ('A' for Active; 'I' for Inactive)
REMARK    1  A    between atoms: N_1  and  C_2
REMARK    2  A    between atoms: C_2  and  C_3
REMARK    3  A    between atoms: C_7  and  N_8
REMARK                            x       y       z     vdW  Elec       q    Type
REMARK                         _______ _______ _______ _____ _____    ______ ____
ROOT
ATOM      1  C   UNL     1       5.596   4.888  16.734  0.00  0.00    +0.000 A 
ATOM      2  C   UNL     1       5.370   6.182  17.221  0.00  0.00    +0.000 A 
ATOM      3  C   UNL     1       4.147   6.510  17.809  0.00  0.00    +0.000 A 
ATOM      4  C   UNL     1       3.137   5.552  17.912  0.00  0.00    +0.000 A 
ATOM      5  C   UNL     1       3.341   4.244  17.430  0.00  0.00    +0.000 A 
ATOM      6  C   UNL     1       4.580   3.923  16.844  0.00  0.00    +0.000 A 
ENDROOT
BRANCH   5   7
ATOM      7  N   UNL     1       2.308   3.263  17.525  0.00  0.00    +0.000 N 
ATOM      8  O   UNL     1       2.575   2.100  17.545  0.00  0.00    +0.000 OA
ATOM      9  O   UNL     1       1.046   3.629  17.612  0.00  0.00    +0.000 OA
ENDBRANCH   5   7
BRANCH   1  10
ATOM     10  C   UNL     1       6.916   4.548  16.089  0.00  0.00    +0.000 C 
BRANCH  10  11
ATOM     11  N   UNL     1       7.915   4.236  17.106  0.00  0.00    +0.000 NA
ATOM     12  H   UNL     1       7.534   3.482  17.722  0.00  0.00    +0.000 HD
ATOM     13  H   UNL     1       8.073   5.084  17.697  0.00  0.00    +0.000 HD
ENDBRANCH  10  11
ENDBRANCH   1  10
TORSDOF 3
ENDMDL
MODEL 6
REMARK VINA RESULT:      -5.2      2.788      3.480
REMARK  Name = 
REMARK  3 active torsions:
REMARK  status: ('A' for Active; 'I' for Inactive)
REMARK    1  A    between atoms: N_1  and  C_2
REMARK    2  A    between atoms: C_2  and  C_3
REMARK    3  A    between atoms: C_7  and  N_8
REMARK                            x       y       z     vdW  Elec       q    Type
REMARK                         _______ _______ _______ _____ _____    ______ ____
ROOT
ATOM      1  C   UNL     1       6.284   4.657  15.675  0.00  0.00    +0.000 A 
ATOM      2  C   UNL     1       5.077   4.045  16.035  0.00  0.00    +0.000 A 
ATOM      3  C   UNL     1       4.661   4.034  17.369  0.00  0.00    +0.000 A 
ATOM      4  C   UNL     1       5.450   4.630  18.355  0.00  0.00    +0.000 A 
ATOM      5  C   UNL     1       6.668   5.252  18.017  0.00  0.00    +0.000 A 
ATOM      6  C   UNL     1       7.074   5.261  16.669  0.00  0.00    +0.000 A 
ENDROOT
BRANCH   5   7
ATOM      7  N   UNL     1       7.482   5.856  19.023  0.00  0.00    +0.000 N 
ATOM      8  O   UNL     1       7.541   5.387  20.119  0.00  0.00    +0.000 OA
ATOM      9  O   UNL     1       8.197   6.928  18.749  0.00  0.00    +0.000 OA
ENDBRANCH   5   7
BRANCH   1  10
ATOM     10  C   UNL     1       6.728   4.651  14.234  0.00  0.00    +0.000 C 
BRANCH  10  11
ATOM     11  N   UNL     1       6.256   3.447  13.560  0.00  0.00    +0.000 NA
ATOM     12  H   UNL     1       5.263   3.598  13.271  0.00  0.00    +0.000 HD
ATOM     13  H   UNL     1       6.274   2.649  14.237  0.00  0.00    +0.000 HD
ENDBRANCH  10  11
ENDBRANCH   1  10
TORSDOF 3
ENDMDL
MODEL 7
REMARK VINA RESULT:      -5.1      2.671      3.153
REMARK  Name = 
REMARK  3 active torsions:
REMARK  status: ('A' for Active; 'I' for Inactive)
REMARK    1  A    between atoms: N_1  and  C_2
REMARK    2  A    between atoms: C_2  and  C_3
REMARK    3  A    between atoms: C_7  and  N_8
REMARK                            x       y       z     vdW  Elec       q    Type
REMARK                         _______ _______ _______ _____ _____    ______ ____
ROOT
ATOM      1  C   UNL     1       2.094   3.529  19.886  0.00  0.00    +0.000 A 
ATOM      2  C   UNL     1       1.333   3.770  18.734  0.00  0.00    +0.000 A 
ATOM      3  C   UNL     1       1.941   4.263  17.577  0.00  0.00    +0.000 A 
ATOM      4  C   UNL     1       3.312   4.527  17.562  0.00  0.00    +0.000 A 
ATOM      5  C   UNL     1       4.098   4.293  18.708  0.00  0.00    +0.000 A 
ATOM      6  C   UNL     1       3.475   3.790  19.866  0.00  0.00    +0.000 A 
ENDROOT
BRANCH   5   7
ATOM      7  N   UNL     1       5.499   4.569  18.700  0.00  0.00    +0.000 N 
ATOM      8  O   UNL     1       6.057   4.907  19.699  0.00  0.00    +0.000 OA
ATOM      9  O   UNL     1       6.199   4.437  17.592  0.00  0.00    +0.000 OA
ENDBRANCH   5   7
BRANCH   1  10
ATOM     10  C   UNL     1       1.425   3.008  21.132  0.00  0.00    +0.000 C 
BRANCH  10  11
ATOM     11  N   UNL     1       2.423   2.656  22.137  0.00  0.00    +0.000 NA
ATOM     12  H   UNL     1       2.258   1.668  22.434  0.00  0.00    +0.000 HD
ATOM     13  H   UNL     1       2.291   3.269  22.975  0.00  0.00    +0.000 HD
ENDBRANCH  10  11
ENDBRANCH   1  10
TORSDOF 3
ENDMDL
MODEL 8
REMARK VINA RESULT:      -5.1      2.176      2.788
REMARK  Name = 
REMARK  3 active torsions:
REMARK  status: ('A' for Active; 'I' for Inactive)
REMARK    1  A    between atoms: N_1  and  C_2
REMARK    2  A    between atoms: C_2  and  C_3
REMARK    3  A    between atoms: C_7  and  N_8
REMARK                            x       y       z     vdW  Elec       q    Type
REMARK                         _______ _______ _______ _____ _____    ______ ____
ROOT
ATOM      1  C   UNL     1       4.372   4.517  17.497  0.00  0.00    +0.000 A 
ATOM      2  C   UNL     1       4.865   4.031  16.279  0.00  0.00    +0.000 A 
ATOM      3  C   UNL     1       6.225   4.132  15.978  0.00  0.00    +0.000 A 
ATOM      4  C   UNL     1       7.104   4.722  16.888  0.00  0.00    +0.000 A 
ATOM      5  C   UNL     1       6.632   5.217  18.120  0.00  0.00    +0.000 A 
ATOM      6  C   UNL     1       5.260   5.106  18.414  0.00  0.00    +0.000 A 
ENDROOT
BRANCH   5   7
ATOM      7  N   UNL     1       7.525   5.830  19.050  0.00  0.00    +0.000 N 
ATOM      8  O   UNL     1       8.148   6.802  18.745  0.00  0.00    +0.000 OA
ATOM      9  O   UNL     1       7.660   5.343  20.266  0.00  0.00    +0.000 OA
ENDBRANCH   5   7
BRANCH   1  10
ATOM     10  C   UNL     1       2.900   4.414  17.805  0.00  0.00    +0.000 C 
BRANCH  10  11
ATOM     11  N   UNL     1       2.308   3.284  17.097  0.00  0.00    +0.000 NA
ATOM     12  H   UNL     1       2.770   2.408  17.430  0.00  0.00    +0.000 HD
ATOM     13  H   UNL     1       2.506   3.383  16.075  0.00  0.00    +0.000 HD
ENDBRANCH  10  11
ENDBRANCH   1  10
TORSDOF 3
ENDMDL
MODEL 9
REMARK VINA RESULT:      -5.1      1.924      2.721
REMARK  Name = 
REMARK  3 active torsions:
REMARK  status: ('A' for Active; 'I' for Inactive)
REMARK    1  A    between atoms: N_1  and  C_2
REMARK    2  A    between atoms: C_2  and  C_3
REMARK    3  A    between atoms: C_7  and  N_8
REMARK                            x       y       z     vdW  Elec       q    Type
REMARK                         _______ _______ _______ _____ _____    ______ ____
ROOT
ATOM      1  C   UNL     1       3.557   5.985  17.867  0.00  0.00    +0.000 A 
ATOM      2  C   UNL     1       3.019   4.706  17.675  0.00  0.00    +0.000 A 
ATOM      3  C   UNL     1       3.769   3.714  17.040  0.00  0.00    +0.000 A 
ATOM      4  C   UNL     1       5.060   3.991  16.587  0.00  0.00    +0.000 A 
ATOM      5  C   UNL     1       5.623   5.270  16.769  0.00  0.00    +0.000 A 
ATOM      6  C   UNL     1       4.859   6.260  17.415  0.00  0.00    +0.000 A 
ENDROOT
BRANCH   5   7
ATOM      7  N   UNL     1       6.940   5.561  16.300  0.00  0.00    +0.000 N 
ATOM      8  O   UNL     1       7.537   4.768  15.637  0.00  0.00    +0.000 OA
ATOM      9  O   UNL     1       7.506   6.717  16.576  0.00  0.00    +0.000 OA
ENDBRANCH   5   7
BRANCH   1  10
ATOM     10  C   UNL     1       2.733   7.052  18.543  0.00  0.00    +0.000 C 
BRANCH  10  11
ATOM     11  N   UNL     1       2.587   6.759  19.965  0.00  0.00    +0.000 NA
ATOM     12  H   UNL     1       1.638   6.349  20.121  0.00  0.00    +0.000 HD
ATOM     13  H   UNL     1       2.642   7.654  20.503  0.00  0.00    +0.000 HD
ENDBRANCH  10  11
ENDBRANCH   1  10
TORSDOF 3
ENDMDL
