MODEL 1
REMARK VINA RESULT:      -7.8      0.000      0.000
REMARK  Name = 
REMARK  9 active torsions:
REMARK  status: ('A' for Active; 'I' for Inactive)
REMARK    1  A    between atoms: C_2  and  C_3
REMARK    2  A    between atoms: N_5  and  C_6
REMARK    3  A    between atoms: C_6  and  C_7
REMARK    4  A    between atoms: C_7  and  C_8
REMARK    5  A    between atoms: N_10  and  C_11
REMARK    6  A    between atoms: N_13  and  C1*_14
REMARK    7  A    between atoms: C3*_16  and  O3*_17
REMARK    8  A    between atoms: C4*_18  and  C5*_19
REMARK    9  A    between atoms: C5*_19  and  O5*_20
REMARK                            x       y       z     vdW  Elec       q    Type
REMARK                         _______ _______ _______ _____ _____    ______ ____
ROOT
ATOM      1  C   UNL     1       2.716   5.771  19.719  0.00  0.00    +0.000 A 
ATOM      2  C   UNL     1       3.880   5.554  19.101  0.00  0.00    +0.000 A 
ATOM      3  N   UNL     1       4.250   4.340  18.565  0.00  0.00    +0.000 N 
ATOM      4  C   UNL     1       3.441   3.223  18.695  0.00  0.00    +0.000 A 
ATOM      5  O   UNL     1       3.654   2.143  18.150  0.00  0.00    +0.000 OA
ATOM      6  N   UNL     1       2.324   3.389  19.486  0.00  0.00    +0.000 N 
ATOM      7  C   UNL     1       1.867   4.577  19.988  0.00  0.00    +0.000 A 
ATOM      8  O   UNL     1       0.803   4.681  20.593  0.00  0.00    +0.000 OA
ATOM      9  H   UNL     1       1.729   2.583  19.594  0.00  0.00    +0.000 HD
ENDROOT
BRANCH   3  10
ATOM     10  C1* UNL     1       5.437   4.278  17.719  0.00  0.00    +0.000 C 
ATOM     11  C2* UNL     1       5.643   5.526  16.855  0.00  0.00    +0.000 C 
ATOM     12  C3* UNL     1       7.145   5.579  16.707  0.00  0.00    +0.000 C 
ATOM     13  C4* UNL     1       7.660   4.986  18.017  0.00  0.00    +0.000 C 
ATOM     14  O4* UNL     1       6.604   4.149  18.552  0.00  0.00    +0.000 OA
BRANCH  12  15
ATOM     15  O3* UNL     1       7.533   4.788  15.584  0.00  0.00    +0.000 OA
ATOM     16  H3* UNL     1       7.011   5.051  14.805  0.00  0.00    +0.000 HD
ENDBRANCH  12  15
BRANCH  13  17
ATOM     17  C5* UNL     1       7.994   6.051  19.065  0.00  0.00    +0.000 C 
BRANCH  17  18
ATOM     18  O5* UNL     1       7.791   5.523  20.376  0.00  0.00    +0.000 OA
ATOM     19  H5* UNL     1       8.667   5.521  20.807  0.00  0.00    +0.000 HD
ENDBRANCH  17  18
ENDBRANCH  13  17
ENDBRANCH   3  10
BRANCH   1  22
ATOM     20  C   UNL     1       1.873   7.980  19.127  0.00  0.00    +0.000 C 
ATOM     21  O   UNL     1       1.985   7.845  17.908  0.00  0.00    +0.000 OA
ATOM     22  N   UNL     1       2.231   7.019  20.058  0.00  0.00    +0.000 N 
ATOM     23  H   UNL     1       1.853   7.094  21.002  0.00  0.00    +0.000 HD
BRANCH  20  24
ATOM     24  C   UNL     1       1.315   9.255  19.711  0.00  0.00    +0.000 C 
BRANCH  24  25
ATOM     25  C   UNL     1       1.183  10.287  18.593  0.00  0.00    +0.000 C 
BRANCH  25  28
ATOM     26  O   UNL     1      -0.585  12.258  19.595  0.00  0.00    +0.000 OA
ATOM     27  C   UNL     1      -0.981  11.489  18.723  0.00  0.00    +0.000 C 
ATOM     28  N   UNL     1      -0.180  10.515  18.166  0.00  0.00    +0.000 N 
ATOM     29  H   UNL     1      -0.586   9.874  17.494  0.00  0.00    +0.000 HD
BRANCH  27  30
ATOM     30  C   UNL     1      -2.416  11.496  18.233  0.00  0.00    +0.000 C 
ATOM     31  I   UNL     1      -2.618  10.208  16.560  0.00  0.00    +0.000 I 
ENDBRANCH  27  30
ENDBRANCH  25  28
ENDBRANCH  24  25
ENDBRANCH  20  24
ENDBRANCH   1  22
TORSDOF 9
ENDMDL
MODEL 2
REMARK VINA RESULT:      -7.7      0.967      1.028
REMARK  Name = 
REMARK  9 active torsions:
REMARK  status: ('A' for Active; 'I' for Inactive)
REMARK    1  A    between atoms: C_2  and  C_3
REMARK    2  A    between atoms: N_5  and  C_6
REMARK    3  A    between atoms: C_6  and  C_7
REMARK    4  A    between atoms: C_7  and  C_8
REMARK    5  A    between atoms: N_10  and  C_11
REMARK    6  A    between atoms: N_13  and  C1*_14
REMARK    7  A    between atoms: C3*_16  and  O3*_17
REMARK    8  A    between atoms: C4*_18  and  C5*_19
REMARK    9  A    between atoms: C5*_19  and  O5*_20
REMARK                            x       y       z     vdW  Elec       q    Type
REMARK                         _______ _______ _______ _____ _____    ______ ____
ROOT
ATOM      1  C   UNL     1       2.708   5.382  19.978  0.00  0.00    +0.000 A 
ATOM      2  C   UNL     1       3.866   5.326  19.315  0.00  0.00    +0.000 A 
ATOM      3  N   UNL     1       4.170   4.357  18.384  0.00  0.00    +0.000 N 
ATOM      4  C   UNL     1       3.295   3.318  18.117  0.00  0.00    +0.000 A 
ATOM      5  O   UNL     1       3.452   2.488  17.226  0.00  0.00    +0.000 OA
ATOM      6  N   UNL     1       2.178   3.263  18.925  0.00  0.00    +0.000 N 
ATOM      7  C   UNL     1       1.786   4.223  19.816  0.00  0.00    +0.000 A 
ATOM      8  O   UNL     1       0.721   4.173  20.427  0.00  0.00    +0.000 OA
ATOM      9  H   UNL     1       1.534   2.508  18.746  0.00  0.00    +0.000 HD
ENDROOT
BRANCH   3  10
ATOM     10  C1* UNL     1       5.364   4.525  17.561  0.00  0.00    +0.000 C 
ATOM     11  C2* UNL     1       5.508   5.928  16.964  0.00  0.00    +0.000 C 
ATOM     12  C3* UNL     1       7.006   6.086  16.853  0.00  0.00    +0.000 C 
ATOM     13  C4* UNL     1       7.544   5.273  18.029  0.00  0.00    +0.000 C 
ATOM     14  O4* UNL     1       6.531   4.294  18.372  0.00  0.00    +0.000 OA
BRANCH  12  15
ATOM     15  O3* UNL     1       7.442   5.554  15.603  0.00  0.00    +0.000 OA
ATOM     16  H3* UNL     1       6.923   4.759  15.388  0.00  0.00    +0.000 HD
ENDBRANCH  12  15
BRANCH  13  17
ATOM     17  C5* UNL     1       7.815   6.125  19.272  0.00  0.00    +0.000 C 
BRANCH  17  18
ATOM     18  O5* UNL     1       7.927   5.286  20.422  0.00  0.00    +0.000 OA
ATOM     19  H5* UNL     1       7.724   4.381  20.118  0.00  0.00    +0.000 HD
ENDBRANCH  17  18
ENDBRANCH  13  17
ENDBRANCH   3  10
BRANCH   1  22
ATOM     20  C   UNL     1       1.882   7.665  20.196  0.00  0.00    +0.000 C 
ATOM     21  O   UNL     1       1.881   7.923  18.992  0.00  0.00    +0.000 OA
ATOM     22  N   UNL     1       2.293   6.458  20.738  0.00  0.00    +0.000 N 
ATOM     23  H   UNL     1       2.003   6.230  21.689  0.00  0.00    +0.000 HD
BRANCH  20  24
ATOM     24  C   UNL     1       1.418   8.689  21.203  0.00  0.00    +0.000 C 
BRANCH  24  25
ATOM     25  C   UNL     1      -0.035   9.050  20.897  0.00  0.00    +0.000 C 
BRANCH  25  28
ATOM     26  O   UNL     1      -1.368  11.545  20.787  0.00  0.00    +0.000 OA
ATOM     27  C   UNL     1      -0.878  11.084  19.759  0.00  0.00    +0.000 C 
ATOM     28  N   UNL     1      -0.195   9.887  19.729  0.00  0.00    +0.000 N 
ATOM     29  H   UNL     1       0.132   9.534  18.836  0.00  0.00    +0.000 HD
BRANCH  27  30
ATOM     30  C   UNL     1      -1.047  11.760  18.412  0.00  0.00    +0.000 C 
ATOM     31  I   UNL     1      -2.473  10.708  17.246  0.00  0.00    +0.000 I 
ENDBRANCH  27  30
ENDBRANCH  25  28
ENDBRANCH  24  25
ENDBRANCH  20  24
ENDBRANCH   1  22
TORSDOF 9
ENDMDL
MODEL 3
REMARK VINA RESULT:      -7.6      1.819      1.984
REMARK  Name = 
REMARK  9 active torsions:
REMARK  status: ('A' for Active; 'I' for Inactive)
REMARK    1  A    between atoms: C_2  and  C_3
REMARK    2  A    between atoms: N_5  and  C_6
REMARK    3  A    between atoms: C_6  and  C_7
REMARK    4  A    between atoms: C_7  and  C_8
REMARK    5  A    between atoms: N_10  and  C_11
REMARK    6  A    between atoms: N_13  and  C1*_14
REMARK    7  A    between atoms: C3*_16  and  O3*_17
REMARK    8  A    between atoms: C4*_18  and  C5*_19
REMARK    9  A    between atoms: C5*_19  and  O5*_20
REMARK                            x       y       z     vdW  Elec       q    Type
REMARK                         _______ _______ _______ _____ _____    ______ ____
ROOT
ATOM      1  C   UNL     1       2.706   5.546  19.789  0.00  0.00    +0.000 A 
ATOM      2  C   UNL     1       3.875   5.389  19.162  0.00  0.00    +0.000 A 
ATOM      3  N   UNL     1       4.246   4.233  18.510  0.00  0.00    +0.000 N 
ATOM      4  C   UNL     1       3.435   3.111  18.521  0.00  0.00    +0.000 A 
ATOM      5  O   UNL     1       3.650   2.091  17.872  0.00  0.00    +0.000 OA
ATOM      6  N   UNL     1       2.311   3.201  19.316  0.00  0.00    +0.000 N 
ATOM      7  C   UNL     1       1.853   4.333  19.931  0.00  0.00    +0.000 A 
ATOM      8  O   UNL     1       0.784   4.379  20.535  0.00  0.00    +0.000 OA
ATOM      9  H   UNL     1       1.713   2.389  19.337  0.00  0.00    +0.000 HD
ENDROOT
BRANCH   3  10
ATOM     10  C1* UNL     1       5.440   4.253  17.672  0.00  0.00    +0.000 C 
ATOM     11  C2* UNL     1       5.594   5.537  16.850  0.00  0.00    +0.000 C 
ATOM     12  C3* UNL     1       7.093   5.663  16.715  0.00  0.00    +0.000 C 
ATOM     13  C4* UNL     1       7.626   5.052  18.010  0.00  0.00    +0.000 C 
ATOM     14  O4* UNL     1       6.606   4.151  18.510  0.00  0.00    +0.000 OA
BRANCH  12  15
ATOM     15  O3* UNL     1       7.524   4.928  15.570  0.00  0.00    +0.000 OA
ATOM     16  H3* UNL     1       7.043   4.082  15.527  0.00  0.00    +0.000 HD
ENDBRANCH  12  15
BRANCH  13  17
ATOM     17  C5* UNL     1       7.905   6.096  19.094  0.00  0.00    +0.000 C 
BRANCH  17  18
ATOM     18  O5* UNL     1       7.874   5.480  20.382  0.00  0.00    +0.000 OA
ATOM     19  H5* UNL     1       6.932   5.409  20.627  0.00  0.00    +0.000 HD
ENDBRANCH  17  18
ENDBRANCH  13  17
ENDBRANCH   3  10
BRANCH   1  22
ATOM     20  C   UNL     1       1.921   7.824  19.419  0.00  0.00    +0.000 C 
ATOM     21  O   UNL     1       2.092   7.829  18.199  0.00  0.00    +0.000 OA
ATOM     22  N   UNL     1       2.220   6.755  20.248  0.00  0.00    +0.000 N 
ATOM     23  H   UNL     1       1.797   6.727  21.175  0.00  0.00    +0.000 HD
BRANCH  20  24
ATOM     24  C   UNL     1       1.351   9.032  20.120  0.00  0.00    +0.000 C 
BRANCH  24  25
ATOM     25  C   UNL     1       0.624   9.896  19.091  0.00  0.00    +0.000 C 
BRANCH  25  28
ATOM     26  O   UNL     1       1.185  12.525  19.978  0.00  0.00    +0.000 OA
ATOM     27  C   UNL     1       1.680  12.132  18.924  0.00  0.00    +0.000 C 
ATOM     28  N   UNL     1       1.475  10.861  18.432  0.00  0.00    +0.000 N 
ATOM     29  H   UNL     1       1.863  10.620  17.527  0.00  0.00    +0.000 HD
BRANCH  27  30
ATOM     30  C   UNL     1       2.503  13.040  18.032  0.00  0.00    +0.000 C 
ATOM     31  I   UNL     1       3.124  14.755  19.115  0.00  0.00    +0.000 I 
ENDBRANCH  27  30
ENDBRANCH  25  28
ENDBRANCH  24  25
ENDBRANCH  20  24
ENDBRANCH   1  22
TORSDOF 9
ENDMDL
MODEL 4
REMARK VINA RESULT:      -7.6      1.838      1.902
REMARK  Name = 
REMARK  9 active torsions:
REMARK  status: ('A' for Active; 'I' for Inactive)
REMARK    1  A    between atoms: C_2  and  C_3
REMARK    2  A    between atoms: N_5  and  C_6
REMARK    3  A    between atoms: C_6  and  C_7
REMARK    4  A    between atoms: C_7  and  C_8
REMARK    5  A    between atoms: N_10  and  C_11
REMARK    6  A    between atoms: N_13  and  C1*_14
REMARK    7  A    between atoms: C3*_16  and  O3*_17
REMARK    8  A    between atoms: C4*_18  and  C5*_19
REMARK    9  A    between atoms: C5*_19  and  O5*_20
REMARK                            x       y       z     vdW  Elec       q    Type
REMARK                         _______ _______ _______ _____ _____    ______ ____
ROOT
ATOM      1  C   UNL     1       2.589   5.431  20.033  0.00  0.00    +0.000 A 
ATOM      2  C   UNL     1       3.770   5.438  19.409  0.00  0.00    +0.000 A 
ATOM      3  N   UNL     1       4.150   4.498  18.476  0.00  0.00    +0.000 N 
ATOM      4  C   UNL     1       3.334   3.422  18.168  0.00  0.00    +0.000 A 
ATOM      5  O   UNL     1       3.559   2.613  17.272  0.00  0.00    +0.000 OA
ATOM      6  N   UNL     1       2.195   3.305  18.936  0.00  0.00    +0.000 N 
ATOM      7  C   UNL     1       1.728   4.233  19.825  0.00  0.00    +0.000 A 
ATOM      8  O   UNL     1       0.647   4.125  20.399  0.00  0.00    +0.000 OA
ATOM      9  H   UNL     1       1.593   2.523  18.726  0.00  0.00    +0.000 HD
ENDROOT
BRANCH   3  10
ATOM     10  C1* UNL     1       5.362   4.732  17.697  0.00  0.00    +0.000 C 
ATOM     11  C2* UNL     1       5.582   6.202  17.329  0.00  0.00    +0.000 C 
ATOM     12  C3* UNL     1       7.087   6.300  17.252  0.00  0.00    +0.000 C 
ATOM     13  C4* UNL     1       7.569   5.287  18.289  0.00  0.00    +0.000 C 
ATOM     14  O4* UNL     1       6.505   4.319  18.468  0.00  0.00    +0.000 OA
BRANCH  12  15
ATOM     15  O3* UNL     1       7.513   5.949  15.936  0.00  0.00    +0.000 OA
ATOM     16  H3* UNL     1       8.405   5.560  15.975  0.00  0.00    +0.000 HD
ENDBRANCH  12  15
BRANCH  13  17
ATOM     17  C5* UNL     1       7.865   5.920  19.652  0.00  0.00    +0.000 C 
BRANCH  17  18
ATOM     18  O5* UNL     1       8.781   5.102  20.379  0.00  0.00    +0.000 OA
ATOM     19  H5* UNL     1       9.351   4.673  19.712  0.00  0.00    +0.000 HD
ENDBRANCH  17  18
ENDBRANCH  13  17
ENDBRANCH   3  10
BRANCH   1  22
ATOM     20  C   UNL     1       1.797   7.724  20.272  0.00  0.00    +0.000 C 
ATOM     21  O   UNL     1       1.969   8.049  19.096  0.00  0.00    +0.000 OA
ATOM     22  N   UNL     1       2.100   6.476  20.792  0.00  0.00    +0.000 N 
ATOM     23  H   UNL     1       1.676   6.204  21.679  0.00  0.00    +0.000 HD
BRANCH  20  24
ATOM     24  C   UNL     1       1.223   8.704  21.265  0.00  0.00    +0.000 C 
BRANCH  24  25
ATOM     25  C   UNL     1       0.257   9.633  20.531  0.00  0.00    +0.000 C 
BRANCH  25  28
ATOM     26  O   UNL     1       0.151  12.023  22.044  0.00  0.00    +0.000 OA
ATOM     27  C   UNL     1       0.720  12.031  20.955  0.00  0.00    +0.000 C 
ATOM     28  N   UNL     1       0.835  10.907  20.165  0.00  0.00    +0.000 N 
ATOM     29  H   UNL     1       1.263  10.995  19.251  0.00  0.00    +0.000 HD
BRANCH  27  30
ATOM     30  C   UNL     1       1.284  13.301  20.349  0.00  0.00    +0.000 C 
ATOM     31  I   UNL     1       2.176  12.875  18.472  0.00  0.00    +0.000 I 
ENDBRANCH  27  30
ENDBRANCH  25  28
ENDBRANCH  24  25
ENDBRANCH  20  24
ENDBRANCH   1  22
TORSDOF 9
ENDMDL
MODEL 5
REMARK VINA RESULT:      -7.6      1.959      1.980
REMARK  Name = 
REMARK  9 active torsions:
REMARK  status: ('A' for Active; 'I' for Inactive)
REMARK    1  A    between atoms: C_2  and  C_3
REMARK    2  A    between atoms: N_5  and  C_6
REMARK    3  A    between atoms: C_6  and  C_7
REMARK    4  A    between atoms: C_7  and  C_8
REMARK    5  A    between atoms: N_10  and  C_11
REMARK    6  A    between atoms: N_13  and  C1*_14
REMARK    7  A    between atoms: C3*_16  and  O3*_17
REMARK    8  A    between atoms: C4*_18  and  C5*_19
REMARK    9  A    between atoms: C5*_19  and  O5*_20
REMARK                            x       y       z     vdW  Elec       q    Type
REMARK                         _______ _______ _______ _____ _____    ______ ____
ROOT
ATOM      1  C   UNL     1       2.764   5.341  20.034  0.00  0.00    +0.000 A 
ATOM      2  C   UNL     1       3.915   5.312  19.358  0.00  0.00    +0.000 A 
ATOM      3  N   UNL     1       4.293   4.276  18.532  0.00  0.00    +0.000 N 
ATOM      4  C   UNL     1       3.510   3.142  18.399  0.00  0.00    +0.000 A 
ATOM      5  O   UNL     1       3.729   2.235  17.600  0.00  0.00    +0.000 OA
ATOM      6  N   UNL     1       2.411   3.081  19.230  0.00  0.00    +0.000 N 
ATOM      7  C   UNL     1       1.946   4.096  20.019  0.00  0.00    +0.000 A 
ATOM      8  O   UNL     1       0.896   4.022  20.654  0.00  0.00    +0.000 OA
ATOM      9  H   UNL     1       1.835   2.258  19.149  0.00  0.00    +0.000 HD
ENDROOT
BRANCH   3  10
ATOM     10  C1* UNL     1       5.459   4.454  17.671  0.00  0.00    +0.000 C 
ATOM     11  C2* UNL     1       5.553   5.847  17.042  0.00  0.00    +0.000 C 
ATOM     12  C3* UNL     1       7.042   6.038  16.884  0.00  0.00    +0.000 C 
ATOM     13  C4* UNL     1       7.633   5.261  18.060  0.00  0.00    +0.000 C 
ATOM     14  O4* UNL     1       6.654   4.267  18.452  0.00  0.00    +0.000 OA
BRANCH  12  15
ATOM     15  O3* UNL     1       7.454   5.489  15.632  0.00  0.00    +0.000 OA
ATOM     16  H3* UNL     1       7.281   6.132  14.922  0.00  0.00    +0.000 HD
ENDBRANCH  12  15
BRANCH  13  17
ATOM     17  C5* UNL     1       7.919   6.146  19.277  0.00  0.00    +0.000 C 
BRANCH  17  18
ATOM     18  O5* UNL     1       8.025   5.339  20.449  0.00  0.00    +0.000 OA
ATOM     19  H5* UNL     1       7.314   4.673  20.387  0.00  0.00    +0.000 HD
ENDBRANCH  17  18
ENDBRANCH  13  17
ENDBRANCH   3  10
BRANCH   1  22
ATOM     20  C   UNL     1       1.911   7.625  20.028  0.00  0.00    +0.000 C 
ATOM     21  O   UNL     1       2.040   7.813  18.818  0.00  0.00    +0.000 OA
ATOM     22  N   UNL     1       2.265   6.455  20.681  0.00  0.00    +0.000 N 
ATOM     23  H   UNL     1       1.874   6.279  21.606  0.00  0.00    +0.000 HD
BRANCH  20  24
ATOM     24  C   UNL     1       1.336   8.699  20.917  0.00  0.00    +0.000 C 
BRANCH  24  25
ATOM     25  C   UNL     1       0.717   9.783  20.035  0.00  0.00    +0.000 C 
BRANCH  25  28
ATOM     26  O   UNL     1       0.746  12.079  21.691  0.00  0.00    +0.000 OA
ATOM     27  C   UNL     1      -0.328  11.539  21.438  0.00  0.00    +0.000 C 
ATOM     28  N   UNL     1      -0.433  10.431  20.624  0.00  0.00    +0.000 N 
ATOM     29  H   UNL     1      -1.342   9.997  20.505  0.00  0.00    +0.000 HD
BRANCH  27  30
ATOM     30  C   UNL     1      -1.630  12.002  22.061  0.00  0.00    +0.000 C 
ATOM     31  I   UNL     1      -1.354  13.879  23.009  0.00  0.00    +0.000 I 
ENDBRANCH  27  30
ENDBRANCH  25  28
ENDBRANCH  24  25
ENDBRANCH  20  24
ENDBRANCH   1  22
TORSDOF 9
ENDMDL
MODEL 6
REMARK VINA RESULT:      -7.4      2.048      2.188
REMARK  Name = 
REMARK  9 active torsions:
REMARK  status: ('A' for Active; 'I' for Inactive)
REMARK    1  A    between atoms: C_2  and  C_3
REMARK    2  A    between atoms: N_5  and  C_6
REMARK    3  A    between atoms: C_6  and  C_7
REMARK    4  A    between atoms: C_7  and  C_8
REMARK    5  A    between atoms: N_10  and  C_11
REMARK    6  A    between atoms: N_13  and  C1*_14
REMARK    7  A    between atoms: C3*_16  and  O3*_17
REMARK    8  A    between atoms: C4*_18  and  C5*_19
REMARK    9  A    between atoms: C5*_19  and  O5*_20
REMARK                            x       y       z     vdW  Elec       q    Type
REMARK                         _______ _______ _______ _____ _____    ______ ____
ROOT
ATOM      1  C   UNL     1       2.671   5.898  19.750  0.00  0.00    +0.000 A 
ATOM      2  C   UNL     1       3.839   5.697  19.135  0.00  0.00    +0.000 A 
ATOM      3  N   UNL     1       4.247   4.475  18.644  0.00  0.00    +0.000 N 
ATOM      4  C   UNL     1       3.477   3.338  18.821  0.00  0.00    +0.000 A 
ATOM      5  O   UNL     1       3.724   2.245  18.317  0.00  0.00    +0.000 OA
ATOM      6  N   UNL     1       2.358   3.497  19.611  0.00  0.00    +0.000 N 
ATOM      7  C   UNL     1       1.864   4.688  20.070  0.00  0.00    +0.000 A 
ATOM      8  O   UNL     1       0.799   4.780  20.676  0.00  0.00    +0.000 OA
ATOM      9  H   UNL     1       1.791   2.677  19.754  0.00  0.00    +0.000 HD
ENDROOT
BRANCH   3  10
ATOM     10  C1* UNL     1       5.432   4.420  17.795  0.00  0.00    +0.000 C 
ATOM     11  C2* UNL     1       5.700   5.718  17.027  0.00  0.00    +0.000 C 
ATOM     12  C3* UNL     1       7.203   5.710  16.881  0.00  0.00    +0.000 C 
ATOM     13  C4* UNL     1       7.686   4.997  18.143  0.00  0.00    +0.000 C 
ATOM     14  O4* UNL     1       6.589   4.174  18.615  0.00  0.00    +0.000 OA
BRANCH  12  15
ATOM     15  O3* UNL     1       7.556   4.988  15.702  0.00  0.00    +0.000 OA
ATOM     16  H3* UNL     1       6.895   4.293  15.536  0.00  0.00    +0.000 HD
ENDBRANCH  12  15
BRANCH  13  17
ATOM     17  C5* UNL     1       8.067   5.964  19.268  0.00  0.00    +0.000 C 
BRANCH  17  18
ATOM     18  O5* UNL     1       8.385   7.244  18.721  0.00  0.00    +0.000 OA
ATOM     19  H5* UNL     1       9.198   7.121  18.195  0.00  0.00    +0.000 HD
ENDBRANCH  17  18
ENDBRANCH  13  17
ENDBRANCH   3  10
BRANCH   1  22
ATOM     20  C   UNL     1       1.869   8.102  19.083  0.00  0.00    +0.000 C 
ATOM     21  O   UNL     1       2.098   7.970  17.880  0.00  0.00    +0.000 OA
ATOM     22  N   UNL     1       2.146   7.142  20.043  0.00  0.00    +0.000 N 
ATOM     23  H   UNL     1       1.679   7.211  20.947  0.00  0.00    +0.000 HD
BRANCH  20  24
ATOM     24  C   UNL     1       1.248   9.370  19.613  0.00  0.00    +0.000 C 
BRANCH  24  25
ATOM     25  C   UNL     1       0.759   9.115  21.037  0.00  0.00    +0.000 C 
BRANCH  25  28
ATOM     26  O   UNL     1       0.174   9.685  23.748  0.00  0.00    +0.000 OA
ATOM     27  C   UNL     1      -0.408  10.313  22.868  0.00  0.00    +0.000 C 
ATOM     28  N   UNL     1      -0.168  10.113  21.525  0.00  0.00    +0.000 N 
ATOM     29  H   UNL     1      -0.726  10.621  20.848  0.00  0.00    +0.000 HD
BRANCH  27  30
ATOM     30  C   UNL     1      -1.501  11.316  23.180  0.00  0.00    +0.000 C 
ATOM     31  I   UNL     1      -1.878  12.531  21.484  0.00  0.00    +0.000 I 
ENDBRANCH  27  30
ENDBRANCH  25  28
ENDBRANCH  24  25
ENDBRANCH  20  24
ENDBRANCH   1  22
TORSDOF 9
ENDMDL
MODEL 7
REMARK VINA RESULT:      -7.4      1.808      1.911
REMARK  Name = 
REMARK  9 active torsions:
REMARK  status: ('A' for Active; 'I' for Inactive)
REMARK    1  A    between atoms: C_2  and  C_3
REMARK    2  A    between atoms: N_5  and  C_6
REMARK    3  A    between atoms: C_6  and  C_7
REMARK    4  A    between atoms: C_7  and  C_8
REMARK    5  A    between atoms: N_10  and  C_11
REMARK    6  A    between atoms: N_13  and  C1*_14
REMARK    7  A    between atoms: C3*_16  and  O3*_17
REMARK    8  A    between atoms: C4*_18  and  C5*_19
REMARK    9  A    between atoms: C5*_19  and  O5*_20
REMARK                            x       y       z     vdW  Elec       q    Type
REMARK                         _______ _______ _______ _____ _____    ______ ____
ROOT
ATOM      1  C   UNL     1       2.742   5.356  20.052  0.00  0.00    +0.000 A 
ATOM      2  C   UNL     1       3.887   5.336  19.366  0.00  0.00    +0.000 A 
ATOM      3  N   UNL     1       4.275   4.294  18.552  0.00  0.00    +0.000 N 
ATOM      4  C   UNL     1       3.511   3.145  18.444  0.00  0.00    +0.000 A 
ATOM      5  O   UNL     1       3.738   2.229  17.658  0.00  0.00    +0.000 OA
ATOM      6  N   UNL     1       2.421   3.078  19.286  0.00  0.00    +0.000 N 
ATOM      7  C   UNL     1       1.945   4.097  20.064  0.00  0.00    +0.000 A 
ATOM      8  O   UNL     1       0.903   4.015  20.709  0.00  0.00    +0.000 OA
ATOM      9  H   UNL     1       1.858   2.244  19.223  0.00  0.00    +0.000 HD
ENDROOT
BRANCH   3  10
ATOM     10  C1* UNL     1       5.430   4.478  17.678  0.00  0.00    +0.000 C 
ATOM     11  C2* UNL     1       5.521   5.879  17.065  0.00  0.00    +0.000 C 
ATOM     12  C3* UNL     1       7.009   6.066  16.889  0.00  0.00    +0.000 C 
ATOM     13  C4* UNL     1       7.612   5.273  18.047  0.00  0.00    +0.000 C 
ATOM     14  O4* UNL     1       6.635   4.277  18.440  0.00  0.00    +0.000 OA
BRANCH  12  15
ATOM     15  O3* UNL     1       7.402   5.532  15.625  0.00  0.00    +0.000 OA
ATOM     16  H3* UNL     1       6.635   5.518  15.025  0.00  0.00    +0.000 HD
ENDBRANCH  12  15
BRANCH  13  17
ATOM     17  C5* UNL     1       7.919   6.140  19.271  0.00  0.00    +0.000 C 
BRANCH  17  18
ATOM     18  O5* UNL     1       7.975   5.326  20.442  0.00  0.00    +0.000 OA
ATOM     19  H5* UNL     1       7.358   5.727  21.083  0.00  0.00    +0.000 HD
ENDBRANCH  17  18
ENDBRANCH  13  17
ENDBRANCH   3  10
BRANCH   1  22
ATOM     20  C   UNL     1       1.880   7.636  20.022  0.00  0.00    +0.000 C 
ATOM     21  O   UNL     1       2.026   7.819  18.813  0.00  0.00    +0.000 OA
ATOM     22  N   UNL     1       2.229   6.471  20.686  0.00  0.00    +0.000 N 
ATOM     23  H   UNL     1       1.826   6.298  21.606  0.00  0.00    +0.000 HD
BRANCH  20  24
ATOM     24  C   UNL     1       1.288   8.713  20.898  0.00  0.00    +0.000 C 
BRANCH  24  25
ATOM     25  C   UNL     1       0.648   9.772  20.002  0.00  0.00    +0.000 C 
BRANCH  25  28
ATOM     26  O   UNL     1       1.817  11.985  18.678  0.00  0.00    +0.000 OA
ATOM     27  C   UNL     1       1.366  12.138  19.810  0.00  0.00    +0.000 C 
ATOM     28  N   UNL     1       0.762  11.119  20.517  0.00  0.00    +0.000 N 
ATOM     29  H   UNL     1       0.465  11.296  21.470  0.00  0.00    +0.000 HD
BRANCH  27  30
ATOM     30  C   UNL     1       1.500  13.447  20.562  0.00  0.00    +0.000 C 
ATOM     31  I   UNL     1       0.262  14.924  19.677  0.00  0.00    +0.000 I 
ENDBRANCH  27  30
ENDBRANCH  25  28
ENDBRANCH  24  25
ENDBRANCH  20  24
ENDBRANCH   1  22
TORSDOF 9
ENDMDL
MODEL 8
REMARK VINA RESULT:      -7.1      4.833      7.253
REMARK  Name = 
REMARK  9 active torsions:
REMARK  status: ('A' for Active; 'I' for Inactive)
REMARK    1  A    between atoms: C_2  and  C_3
REMARK    2  A    between atoms: N_5  and  C_6
REMARK    3  A    between atoms: C_6  and  C_7
REMARK    4  A    between atoms: C_7  and  C_8
REMARK    5  A    between atoms: N_10  and  C_11
REMARK    6  A    between atoms: N_13  and  C1*_14
REMARK    7  A    between atoms: C3*_16  and  O3*_17
REMARK    8  A    between atoms: C4*_18  and  C5*_19
REMARK    9  A    between atoms: C5*_19  and  O5*_20
REMARK                            x       y       z     vdW  Elec       q    Type
REMARK                         _______ _______ _______ _____ _____    ______ ____
ROOT
ATOM      1  C   UNL     1       6.048   6.727  16.927  0.00  0.00    +0.000 A 
ATOM      2  C   UNL     1       4.951   6.461  17.640  0.00  0.00    +0.000 A 
ATOM      3  N   UNL     1       4.372   5.213  17.720  0.00  0.00    +0.000 N 
ATOM      4  C   UNL     1       4.869   4.144  16.994  0.00  0.00    +0.000 A 
ATOM      5  O   UNL     1       4.474   2.986  17.102  0.00  0.00    +0.000 OA
ATOM      6  N   UNL     1       5.888   4.448  16.115  0.00  0.00    +0.000 N 
ATOM      7  C   UNL     1       6.549   5.643  16.036  0.00  0.00    +0.000 A 
ATOM      8  O   UNL     1       7.524   5.821  15.311  0.00  0.00    +0.000 OA
ATOM      9  H   UNL     1       6.257   3.681  15.576  0.00  0.00    +0.000 HD
ENDROOT
BRANCH   3  10
ATOM     10  C1* UNL     1       3.318   4.990  18.704  0.00  0.00    +0.000 C 
ATOM     11  C2* UNL     1       2.200   4.066  18.209  0.00  0.00    +0.000 C 
ATOM     12  C3* UNL     1       1.721   3.416  19.485  0.00  0.00    +0.000 C 
ATOM     13  C4* UNL     1       2.979   3.344  20.349  0.00  0.00    +0.000 C 
ATOM     14  O4* UNL     1       3.886   4.369  19.872  0.00  0.00    +0.000 OA
BRANCH  12  15
ATOM     15  O3* UNL     1       0.720   4.239  20.083  0.00  0.00    +0.000 OA
ATOM     16  H3* UNL     1       0.615   5.055  19.562  0.00  0.00    +0.000 HD
ENDBRANCH  12  15
BRANCH  13  17
ATOM     17  C5* UNL     1       3.698   1.995  20.248  0.00  0.00    +0.000 C 
BRANCH  17  18
ATOM     18  O5* UNL     1       5.079   2.202  19.954  0.00  0.00    +0.000 OA
ATOM     19  H5* UNL     1       5.198   3.167  19.869  0.00  0.00    +0.000 HD
ENDBRANCH  17  18
ENDBRANCH  13  17
ENDBRANCH   3  10
BRANCH   1  22
ATOM     20  C   UNL     1       7.843   8.080  17.870  0.00  0.00    +0.000 C 
ATOM     21  O   UNL     1       8.241   7.235  18.673  0.00  0.00    +0.000 OA
ATOM     22  N   UNL     1       6.770   7.902  17.012  0.00  0.00    +0.000 N 
ATOM     23  H   UNL     1       6.686   8.520  16.206  0.00  0.00    +0.000 HD
BRANCH  20  24
ATOM     24  C   UNL     1       8.525   9.422  17.764  0.00  0.00    +0.000 C 
BRANCH  24  25
ATOM     25  C   UNL     1       9.021   9.828  19.151  0.00  0.00    +0.000 C 
BRANCH  25  28
ATOM     26  O   UNL     1       9.703  11.574  21.272  0.00  0.00    +0.000 OA
ATOM     27  C   UNL     1      10.304  11.668  20.206  0.00  0.00    +0.000 C 
ATOM     28  N   UNL     1      10.049  10.844  19.130  0.00  0.00    +0.000 N 
ATOM     29  H   UNL     1      10.539  11.014  18.259  0.00  0.00    +0.000 HD
BRANCH  27  30
ATOM     30  C   UNL     1      11.334  12.752  19.953  0.00  0.00    +0.000 C 
ATOM     31  I   UNL     1      10.526  14.650  20.447  0.00  0.00    +0.000 I 
ENDBRANCH  27  30
ENDBRANCH  25  28
ENDBRANCH  24  25
ENDBRANCH  20  24
ENDBRANCH   1  22
TORSDOF 9
ENDMDL
MODEL 9
REMARK VINA RESULT:      -7.0      1.862      2.027
REMARK  Name = 
REMARK  9 active torsions:
REMARK  status: ('A' for Active; 'I' for Inactive)
REMARK    1  A    between atoms: C_2  and  C_3
REMARK    2  A    between atoms: N_5  and  C_6
REMARK    3  A    between atoms: C_6  and  C_7
REMARK    4  A    between atoms: C_7  and  C_8
REMARK    5  A    between atoms: N_10  and  C_11
REMARK    6  A    between atoms: N_13  and  C1*_14
REMARK    7  A    between atoms: C3*_16  and  O3*_17
REMARK    8  A    between atoms: C4*_18  and  C5*_19
REMARK    9  A    between atoms: C5*_19  and  O5*_20
REMARK                            x       y       z     vdW  Elec       q    Type
REMARK                         _______ _______ _______ _____ _____    ______ ____
ROOT
ATOM      1  C   UNL     1       2.937   5.109  20.012  0.00  0.00    +0.000 A 
ATOM      2  C   UNL     1       4.018   4.994  19.237  0.00  0.00    +0.000 A 
ATOM      3  N   UNL     1       4.318   3.868  18.502  0.00  0.00    +0.000 N 
ATOM      4  C   UNL     1       3.528   2.732  18.574  0.00  0.00    +0.000 A 
ATOM      5  O   UNL     1       3.672   1.739  17.867  0.00  0.00    +0.000 OA
ATOM      6  N   UNL     1       2.513   2.776  19.508  0.00  0.00    +0.000 N 
ATOM      7  C   UNL     1       2.123   3.879  20.217  0.00  0.00    +0.000 A 
ATOM      8  O   UNL     1       1.139   3.886  20.952  0.00  0.00    +0.000 OA
ATOM      9  H   UNL     1       1.934   1.954  19.576  0.00  0.00    +0.000 HD
ENDROOT
BRANCH   3  10
ATOM     10  C1* UNL     1       5.395   3.936  17.520  0.00  0.00    +0.000 C 
ATOM     11  C2* UNL     1       5.136   4.938  16.390  0.00  0.00    +0.000 C 
ATOM     12  C3* UNL     1       6.530   5.374  16.010  0.00  0.00    +0.000 C 
ATOM     13  C4* UNL     1       7.306   5.294  17.325  0.00  0.00    +0.000 C 
ATOM     14  O4* UNL     1       6.606   4.353  18.177  0.00  0.00    +0.000 OA
BRANCH  12  15
ATOM     15  O3* UNL     1       7.054   4.473  15.035  0.00  0.00    +0.000 OA
ATOM     16  H3* UNL     1       6.321   4.072  14.536  0.00  0.00    +0.000 HD
ENDBRANCH  12  15
BRANCH  13  17
ATOM     17  C5* UNL     1       7.375   6.635  18.061  0.00  0.00    +0.000 C 
BRANCH  17  18
ATOM     18  O5* UNL     1       7.510   7.699  17.119  0.00  0.00    +0.000 OA
ATOM     19  H5* UNL     1       6.747   8.291  17.267  0.00  0.00    +0.000 HD
ENDBRANCH  17  18
ENDBRANCH  13  17
ENDBRANCH   3  10
BRANCH   1  22
ATOM     20  C   UNL     1       2.108   7.395  19.827  0.00  0.00    +0.000 C 
ATOM     21  O   UNL     1       2.147   7.453  18.597  0.00  0.00    +0.000 OA
ATOM     22  N   UNL     1       2.499   6.294  20.572  0.00  0.00    +0.000 N 
ATOM     23  H   UNL     1       2.178   6.223  21.537  0.00  0.00    +0.000 HD
BRANCH  20  24
ATOM     24  C   UNL     1       1.613   8.567  20.637  0.00  0.00    +0.000 C 
BRANCH  24  25
ATOM     25  C   UNL     1       0.636   9.373  19.782  0.00  0.00    +0.000 C 
BRANCH  25  28
ATOM     26  O   UNL     1       2.114  10.472  17.633  0.00  0.00    +0.000 OA
ATOM     27  C   UNL     1       1.750  11.209  18.545  0.00  0.00    +0.000 C 
ATOM     28  N   UNL     1       1.009  10.760  19.617  0.00  0.00    +0.000 N 
ATOM     29  H   UNL     1       0.793  11.408  20.366  0.00  0.00    +0.000 HD
BRANCH  27  30
ATOM     30  C   UNL     1       2.148  12.671  18.608  0.00  0.00    +0.000 C 
ATOM     31  I   UNL     1       0.438  13.874  18.962  0.00  0.00    +0.000 I 
ENDBRANCH  27  30
ENDBRANCH  25  28
ENDBRANCH  24  25
ENDBRANCH  20  24
ENDBRANCH   1  22
TORSDOF 9
ENDMDL
