MODEL 1
REMARK VINA RESULT:      -8.0      0.000      0.000
REMARK  Name = 
REMARK  4 active torsions:
REMARK  status: ('A' for Active; 'I' for Inactive)
REMARK    1  A    between atoms: N_7  and  C_8
REMARK    2  A    between atoms: C_8  and  C_9
REMARK    3  A    between atoms: C_9  and  N_10
REMARK    4  A    between atoms: C_14  and  C_15
REMARK                            x       y       z     vdW  Elec       q    Type
REMARK                         _______ _______ _______ _____ _____    ______ ____
ROOT
ATOM      1  N   UNL     1       5.225   5.586  17.657  0.00  0.00    +0.000 N 
ATOM      2  C   UNL     1       6.028   4.566  18.083  0.00  0.00    +0.000 C 
ATOM      3  O   UNL     1       5.840   3.849  19.054  0.00  0.00    +0.000 OA
ATOM      4  C   UNL     1       7.249   4.491  17.213  0.00  0.00    +0.000 C 
ATOM      5  C   UNL     1       6.992   5.525  16.121  0.00  0.00    +0.000 C 
ATOM      6  C   UNL     1       5.820   6.310  16.660  0.00  0.00    +0.000 C 
ATOM      7  O   UNL     1       5.465   7.400  16.238  0.00  0.00    +0.000 OA
ENDROOT
BRANCH   5   8
ATOM      8  C   UNL     1       6.695   4.894  14.775  0.00  0.00    +0.000 A 
ATOM      9  C   UNL     1       5.559   4.091  14.573  0.00  0.00    +0.000 A 
ATOM     10  C   UNL     1       5.323   3.486  13.339  0.00  0.00    +0.000 A 
ATOM     11  C   UNL     1       6.217   3.674  12.289  0.00  0.00    +0.000 A 
ATOM     12  C   UNL     1       7.343   4.475  12.470  0.00  0.00    +0.000 A 
ATOM     13  C   UNL     1       7.581   5.083  13.704  0.00  0.00    +0.000 A 
ENDBRANCH   5   8
BRANCH   1  14
ATOM     14  C   UNL     1       4.019   5.986  18.378  0.00  0.00    +0.000 C 
BRANCH  14  15
ATOM     15  C   UNL     1       2.737   5.292  17.899  0.00  0.00    +0.000 C 
BRANCH  15  22
ATOM     16  O   UNL     1       1.491   5.593  20.565  0.00  0.00    +0.000 OA
ATOM     17  C   UNL     1       1.682   4.526  20.016  0.00  0.00    +0.000 C 
ATOM     18  C   UNL     1       1.296   3.230  20.586  0.00  0.00    +0.000 C 
ATOM     19  C   UNL     1       1.690   2.278  19.738  0.00  0.00    +0.000 C 
ATOM     20  C   UNL     1       2.333   2.939  18.597  0.00  0.00    +0.000 C 
ATOM     21  O   UNL     1       2.818   2.347  17.651  0.00  0.00    +0.000 OA
ATOM     22  N   UNL     1       2.267   4.276  18.817  0.00  0.00    +0.000 N 
ENDBRANCH  15  22
ENDBRANCH  14  15
ENDBRANCH   1  14
TORSDOF 4
ENDMDL
MODEL 2
REMARK VINA RESULT:      -7.9      0.202      1.583
REMARK  Name = 
REMARK  4 active torsions:
REMARK  status: ('A' for Active; 'I' for Inactive)
REMARK    1  A    between atoms: N_7  and  C_8
REMARK    2  A    between atoms: C_8  and  C_9
REMARK    3  A    between atoms: C_9  and  N_10
REMARK    4  A    between atoms: C_14  and  C_15
REMARK                            x       y       z     vdW  Elec       q    Type
REMARK                         _______ _______ _______ _____ _____    ______ ____
ROOT
ATOM      1  N   UNL     1       5.119   5.588  17.666  0.00  0.00    +0.000 N 
ATOM      2  C   UNL     1       5.886   4.549  18.108  0.00  0.00    +0.000 C 
ATOM      3  O   UNL     1       5.653   3.828  19.066  0.00  0.00    +0.000 OA
ATOM      4  C   UNL     1       7.134   4.455  17.277  0.00  0.00    +0.000 C 
ATOM      5  C   UNL     1       6.933   5.503  16.187  0.00  0.00    +0.000 C 
ATOM      6  C   UNL     1       5.760   6.308  16.695  0.00  0.00    +0.000 C 
ATOM      7  O   UNL     1       5.441   7.408  16.271  0.00  0.00    +0.000 OA
ENDROOT
BRANCH   5   8
ATOM      8  C   UNL     1       6.666   4.889  14.826  0.00  0.00    +0.000 A 
ATOM      9  C   UNL     1       5.544   4.075  14.593  0.00  0.00    +0.000 A 
ATOM     10  C   UNL     1       5.337   3.486  13.346  0.00  0.00    +0.000 A 
ATOM     11  C   UNL     1       6.246   3.701  12.314  0.00  0.00    +0.000 A 
ATOM     12  C   UNL     1       7.357   4.514  12.526  0.00  0.00    +0.000 A 
ATOM     13  C   UNL     1       7.567   5.106  13.773  0.00  0.00    +0.000 A 
ENDBRANCH   5   8
BRANCH   1  14
ATOM     14  C   UNL     1       3.899   6.007  18.351  0.00  0.00    +0.000 C 
BRANCH  14  15
ATOM     15  C   UNL     1       2.618   5.347  17.822  0.00  0.00    +0.000 C 
BRANCH  15  22
ATOM     16  O   UNL     1       2.227   2.453  17.347  0.00  0.00    +0.000 OA
ATOM     17  C   UNL     1       1.983   3.013  18.398  0.00  0.00    +0.000 C 
ATOM     18  C   UNL     1       1.483   2.328  19.595  0.00  0.00    +0.000 C 
ATOM     19  C   UNL     1       1.291   3.249  20.542  0.00  0.00    +0.000 C 
ATOM     20  C   UNL     1       1.670   4.549  19.978  0.00  0.00    +0.000 C 
ATOM     21  O   UNL     1       1.596   5.602  20.584  0.00  0.00    +0.000 OA
ATOM     22  N   UNL     1       2.098   4.328  18.710  0.00  0.00    +0.000 N 
ENDBRANCH  15  22
ENDBRANCH  14  15
ENDBRANCH   1  14
TORSDOF 4
ENDMDL
MODEL 3
REMARK VINA RESULT:      -7.9      0.250      1.057
REMARK  Name = 
REMARK  4 active torsions:
REMARK  status: ('A' for Active; 'I' for Inactive)
REMARK    1  A    between atoms: N_7  and  C_8
REMARK    2  A    between atoms: C_8  and  C_9
REMARK    3  A    between atoms: C_9  and  N_10
REMARK    4  A    between atoms: C_14  and  C_15
REMARK                            x       y       z     vdW  Elec       q    Type
REMARK                         _______ _______ _______ _____ _____    ______ ____
ROOT
ATOM      1  N   UNL     1       5.262   5.603  17.703  0.00  0.00    +0.000 N 
ATOM      2  C   UNL     1       6.094   4.611  18.140  0.00  0.00    +0.000 C 
ATOM      3  O   UNL     1       5.938   3.916  19.133  0.00  0.00    +0.000 OA
ATOM      4  C   UNL     1       7.301   4.537  17.250  0.00  0.00    +0.000 C 
ATOM      5  C   UNL     1       7.003   5.537  16.138  0.00  0.00    +0.000 C 
ATOM      6  C   UNL     1       5.824   6.312  16.678  0.00  0.00    +0.000 C 
ATOM      7  O   UNL     1       5.440   7.384  16.234  0.00  0.00    +0.000 OA
ENDROOT
BRANCH   5   8
ATOM      8  C   UNL     1       6.695   4.865  14.813  0.00  0.00    +0.000 A 
ATOM      9  C   UNL     1       7.577   4.950  13.722  0.00  0.00    +0.000 A 
ATOM     10  C   UNL     1       7.258   4.359  12.500  0.00  0.00    +0.000 A 
ATOM     11  C   UNL     1       6.055   3.676  12.349  0.00  0.00    +0.000 A 
ATOM     12  C   UNL     1       5.174   3.574  13.424  0.00  0.00    +0.000 A 
ATOM     13  C   UNL     1       5.491   4.163  14.650  0.00  0.00    +0.000 A 
ENDBRANCH   5   8
BRANCH   1  14
ATOM     14  C   UNL     1       4.062   5.996  18.436  0.00  0.00    +0.000 C 
BRANCH  14  15
ATOM     15  C   UNL     1       2.755   5.444  17.851  0.00  0.00    +0.000 C 
BRANCH  15  22
ATOM     16  O   UNL     1       1.665   5.654  20.593  0.00  0.00    +0.000 OA
ATOM     17  C   UNL     1       1.654   4.636  19.929  0.00  0.00    +0.000 C 
ATOM     18  C   UNL     1       1.073   3.367  20.382  0.00  0.00    +0.000 C 
ATOM     19  C   UNL     1       1.271   2.462  19.422  0.00  0.00    +0.000 C 
ATOM     20  C   UNL     1       1.980   3.128  18.323  0.00  0.00    +0.000 C 
ATOM     21  O   UNL     1       2.326   2.571  17.299  0.00  0.00    +0.000 OA
ATOM     22  N   UNL     1       2.149   4.425  18.683  0.00  0.00    +0.000 N 
ENDBRANCH  15  22
ENDBRANCH  14  15
ENDBRANCH   1  14
TORSDOF 4
ENDMDL
MODEL 4
REMARK VINA RESULT:      -7.9      0.131      1.889
REMARK  Name = 
REMARK  4 active torsions:
REMARK  status: ('A' for Active; 'I' for Inactive)
REMARK    1  A    between atoms: N_7  and  C_8
REMARK    2  A    between atoms: C_8  and  C_9
REMARK    3  A    between atoms: C_9  and  N_10
REMARK    4  A    between atoms: C_14  and  C_15
REMARK                            x       y       z     vdW  Elec       q    Type
REMARK                         _______ _______ _______ _____ _____    ______ ____
ROOT
ATOM      1  N   UNL     1       5.165   5.549  17.596  0.00  0.00    +0.000 N 
ATOM      2  C   UNL     1       6.017   4.581  18.047  0.00  0.00    +0.000 C 
ATOM      3  O   UNL     1       5.866   3.883  19.037  0.00  0.00    +0.000 OA
ATOM      4  C   UNL     1       7.239   4.540  17.174  0.00  0.00    +0.000 C 
ATOM      5  C   UNL     1       6.929   5.530  16.056  0.00  0.00    +0.000 C 
ATOM      6  C   UNL     1       5.722   6.273  16.578  0.00  0.00    +0.000 C 
ATOM      7  O   UNL     1       5.315   7.333  16.128  0.00  0.00    +0.000 OA
ENDROOT
BRANCH   5   8
ATOM      8  C   UNL     1       6.659   4.849  14.728  0.00  0.00    +0.000 A 
ATOM      9  C   UNL     1       7.560   4.946  13.654  0.00  0.00    +0.000 A 
ATOM     10  C   UNL     1       7.276   4.346  12.428  0.00  0.00    +0.000 A 
ATOM     11  C   UNL     1       6.088   3.641  12.256  0.00  0.00    +0.000 A 
ATOM     12  C   UNL     1       5.189   3.527  13.314  0.00  0.00    +0.000 A 
ATOM     13  C   UNL     1       5.472   4.124  14.544  0.00  0.00    +0.000 A 
ENDBRANCH   5   8
BRANCH   1  14
ATOM     14  C   UNL     1       3.943   5.911  18.311  0.00  0.00    +0.000 C 
BRANCH  14  15
ATOM     15  C   UNL     1       2.690   5.162  17.838  0.00  0.00    +0.000 C 
BRANCH  15  22
ATOM     16  O   UNL     1       2.562   2.211  17.655  0.00  0.00    +0.000 OA
ATOM     17  C   UNL     1       2.219   2.852  18.630  0.00  0.00    +0.000 C 
ATOM     18  C   UNL     1       1.714   2.251  19.869  0.00  0.00    +0.000 C 
ATOM     19  C   UNL     1       1.398   3.243  20.703  0.00  0.00    +0.000 C 
ATOM     20  C   UNL     1       1.698   4.508  20.023  0.00  0.00    +0.000 C 
ATOM     21  O   UNL     1       1.507   5.606  20.510  0.00  0.00    +0.000 OA
ATOM     22  N   UNL     1       2.209   4.198  18.805  0.00  0.00    +0.000 N 
ENDBRANCH  15  22
ENDBRANCH  14  15
ENDBRANCH   1  14
TORSDOF 4
ENDMDL
MODEL 5
REMARK VINA RESULT:      -7.7      1.532      1.961
REMARK  Name = 
REMARK  4 active torsions:
REMARK  status: ('A' for Active; 'I' for Inactive)
REMARK    1  A    between atoms: N_7  and  C_8
REMARK    2  A    between atoms: C_8  and  C_9
REMARK    3  A    between atoms: C_9  and  N_10
REMARK    4  A    between atoms: C_14  and  C_15
REMARK                            x       y       z     vdW  Elec       q    Type
REMARK                         _______ _______ _______ _____ _____    ______ ____
ROOT
ATOM      1  N   UNL     1       5.605   5.162  18.593  0.00  0.00    +0.000 N 
ATOM      2  C   UNL     1       6.936   5.462  18.660  0.00  0.00    +0.000 C 
ATOM      3  O   UNL     1       7.696   5.195  19.578  0.00  0.00    +0.000 OA
ATOM      4  C   UNL     1       7.334   6.254  17.448  0.00  0.00    +0.000 C 
ATOM      5  C   UNL     1       6.079   6.264  16.582  0.00  0.00    +0.000 C 
ATOM      6  C   UNL     1       5.006   5.771  17.524  0.00  0.00    +0.000 C 
ATOM      7  O   UNL     1       3.806   5.885  17.327  0.00  0.00    +0.000 OA
ENDROOT
BRANCH   5   8
ATOM      8  C   UNL     1       6.211   5.392  15.349  0.00  0.00    +0.000 A 
ATOM      9  C   UNL     1       7.313   5.502  14.483  0.00  0.00    +0.000 A 
ATOM     10  C   UNL     1       7.397   4.720  13.333  0.00  0.00    +0.000 A 
ATOM     11  C   UNL     1       6.383   3.816  13.029  0.00  0.00    +0.000 A 
ATOM     12  C   UNL     1       5.289   3.687  13.882  0.00  0.00    +0.000 A 
ATOM     13  C   UNL     1       5.203   4.468  15.036  0.00  0.00    +0.000 A 
ENDBRANCH   5   8
BRANCH   1  14
ATOM     14  C   UNL     1       4.896   4.501  19.686  0.00  0.00    +0.000 C 
BRANCH  14  15
ATOM     15  C   UNL     1       4.406   3.084  19.356  0.00  0.00    +0.000 C 
BRANCH  15  22
ATOM     16  O   UNL     1       2.866   2.680  21.850  0.00  0.00    +0.000 OA
ATOM     17  C   UNL     1       2.368   2.766  20.744  0.00  0.00    +0.000 C 
ATOM     18  C   UNL     1       0.924   2.708  20.488  0.00  0.00    +0.000 C 
ATOM     19  C   UNL     1       0.740   2.794  19.169  0.00  0.00    +0.000 C 
ATOM     20  C   UNL     1       2.062   2.917  18.544  0.00  0.00    +0.000 C 
ATOM     21  O   UNL     1       2.242   2.999  17.344  0.00  0.00    +0.000 OA
ATOM     22  N   UNL     1       2.979   2.921  19.542  0.00  0.00    +0.000 N 
ENDBRANCH  15  22
ENDBRANCH  14  15
ENDBRANCH   1  14
TORSDOF 4
ENDMDL
MODEL 6
REMARK VINA RESULT:      -7.7      1.514      1.652
REMARK  Name = 
REMARK  4 active torsions:
REMARK  status: ('A' for Active; 'I' for Inactive)
REMARK    1  A    between atoms: N_7  and  C_8
REMARK    2  A    between atoms: C_8  and  C_9
REMARK    3  A    between atoms: C_9  and  N_10
REMARK    4  A    between atoms: C_14  and  C_15
REMARK                            x       y       z     vdW  Elec       q    Type
REMARK                         _______ _______ _______ _____ _____    ______ ____
ROOT
ATOM      1  N   UNL     1       5.658   5.072  18.427  0.00  0.00    +0.000 N 
ATOM      2  C   UNL     1       6.991   5.372  18.452  0.00  0.00    +0.000 C 
ATOM      3  O   UNL     1       7.782   5.093  19.340  0.00  0.00    +0.000 OA
ATOM      4  C   UNL     1       7.348   6.181  17.238  0.00  0.00    +0.000 C 
ATOM      5  C   UNL     1       6.063   6.202  16.416  0.00  0.00    +0.000 C 
ATOM      6  C   UNL     1       5.024   5.695  17.388  0.00  0.00    +0.000 C 
ATOM      7  O   UNL     1       3.817   5.811  17.233  0.00  0.00    +0.000 OA
ENDROOT
BRANCH   5   8
ATOM      8  C   UNL     1       6.153   5.347  15.167  0.00  0.00    +0.000 A 
ATOM      9  C   UNL     1       5.147   4.425  14.833  0.00  0.00    +0.000 A 
ATOM     10  C   UNL     1       5.266   3.619  13.701  0.00  0.00    +0.000 A 
ATOM     11  C   UNL     1       6.391   3.721  12.888  0.00  0.00    +0.000 A 
ATOM     12  C   UNL     1       7.392   4.638  13.200  0.00  0.00    +0.000 A 
ATOM     13  C   UNL     1       7.275   5.448  14.331  0.00  0.00    +0.000 A 
ENDBRANCH   5   8
BRANCH   1  14
ATOM     14  C   UNL     1       4.988   4.395  19.534  0.00  0.00    +0.000 C 
BRANCH  14  15
ATOM     15  C   UNL     1       4.452   2.998  19.190  0.00  0.00    +0.000 C 
BRANCH  15  22
ATOM     16  O   UNL     1       2.983   2.625  21.731  0.00  0.00    +0.000 OA
ATOM     17  C   UNL     1       2.452   2.722  20.641  0.00  0.00    +0.000 C 
ATOM     18  C   UNL     1       1.001   2.695  20.432  0.00  0.00    +0.000 C 
ATOM     19  C   UNL     1       0.777   2.786  19.119  0.00  0.00    +0.000 C 
ATOM     20  C   UNL     1       2.080   2.881  18.452  0.00  0.00    +0.000 C 
ATOM     21  O   UNL     1       2.224   2.960  17.247  0.00  0.00    +0.000 OA
ATOM     22  N   UNL     1       3.029   2.865  19.421  0.00  0.00    +0.000 N 
ENDBRANCH  15  22
ENDBRANCH  14  15
ENDBRANCH   1  14
TORSDOF 4
ENDMDL
MODEL 7
REMARK VINA RESULT:      -7.6      1.893      6.624
REMARK  Name = 
REMARK  4 active torsions:
REMARK  status: ('A' for Active; 'I' for Inactive)
REMARK    1  A    between atoms: N_7  and  C_8
REMARK    2  A    between atoms: C_8  and  C_9
REMARK    3  A    between atoms: C_9  and  N_10
REMARK    4  A    between atoms: C_14  and  C_15
REMARK                            x       y       z     vdW  Elec       q    Type
REMARK                         _______ _______ _______ _____ _____    ______ ____
ROOT
ATOM      1  N   UNL     1       5.483   4.967  17.254  0.00  0.00    +0.000 N 
ATOM      2  C   UNL     1       4.784   6.064  16.837  0.00  0.00    +0.000 C 
ATOM      3  O   UNL     1       4.861   6.604  15.744  0.00  0.00    +0.000 OA
ATOM      4  C   UNL     1       3.934   6.578  17.964  0.00  0.00    +0.000 C 
ATOM      5  C   UNL     1       4.124   5.546  19.072  0.00  0.00    +0.000 C 
ATOM      6  C   UNL     1       5.307   4.739  18.591  0.00  0.00    +0.000 C 
ATOM      7  O   UNL     1       5.965   3.990  19.298  0.00  0.00    +0.000 OA
ENDROOT
BRANCH   5   8
ATOM      8  C   UNL     1       2.892   4.691  19.293  0.00  0.00    +0.000 A 
ATOM      9  C   UNL     1       2.341   4.510  20.573  0.00  0.00    +0.000 A 
ATOM     10  C   UNL     1       1.231   3.688  20.763  0.00  0.00    +0.000 A 
ATOM     11  C   UNL     1       0.655   3.034  19.677  0.00  0.00    +0.000 A 
ATOM     12  C   UNL     1       1.183   3.211  18.400  0.00  0.00    +0.000 A 
ATOM     13  C   UNL     1       2.293   4.035  18.207  0.00  0.00    +0.000 A 
ENDBRANCH   5   8
BRANCH   1  14
ATOM     14  C   UNL     1       6.487   4.315  16.418  0.00  0.00    +0.000 C 
BRANCH  14  15
ATOM     15  C   UNL     1       5.918   3.615  15.177  0.00  0.00    +0.000 C 
BRANCH  15  22
ATOM     16  O   UNL     1       7.893   5.773  14.733  0.00  0.00    +0.000 OA
ATOM     17  C   UNL     1       7.437   5.070  13.852  0.00  0.00    +0.000 C 
ATOM     18  C   UNL     1       7.821   5.175  12.440  0.00  0.00    +0.000 C 
ATOM     19  C   UNL     1       7.100   4.285  11.755  0.00  0.00    +0.000 C 
ATOM     20  C   UNL     1       6.239   3.581  12.711  0.00  0.00    +0.000 C 
ATOM     21  O   UNL     1       5.444   2.714  12.401  0.00  0.00    +0.000 OA
ATOM     22  N   UNL     1       6.513   4.081  13.941  0.00  0.00    +0.000 N 
ENDBRANCH  15  22
ENDBRANCH  14  15
ENDBRANCH   1  14
TORSDOF 4
ENDMDL
MODEL 8
REMARK VINA RESULT:      -7.6      2.541      3.963
REMARK  Name = 
REMARK  4 active torsions:
REMARK  status: ('A' for Active; 'I' for Inactive)
REMARK    1  A    between atoms: N_7  and  C_8
REMARK    2  A    between atoms: C_8  and  C_9
REMARK    3  A    between atoms: C_9  and  N_10
REMARK    4  A    between atoms: C_14  and  C_15
REMARK                            x       y       z     vdW  Elec       q    Type
REMARK                         _______ _______ _______ _____ _____    ______ ____
ROOT
ATOM      1  N   UNL     1       3.410   4.407  17.109  0.00  0.00    +0.000 N 
ATOM      2  C   UNL     1       2.786   5.425  17.772  0.00  0.00    +0.000 C 
ATOM      3  O   UNL     1       1.729   5.356  18.382  0.00  0.00    +0.000 OA
ATOM      4  C   UNL     1       3.559   6.699  17.583  0.00  0.00    +0.000 C 
ATOM      5  C   UNL     1       4.810   6.264  16.826  0.00  0.00    +0.000 C 
ATOM      6  C   UNL     1       4.469   4.864  16.373  0.00  0.00    +0.000 C 
ATOM      7  O   UNL     1       5.074   4.252  15.506  0.00  0.00    +0.000 OA
ENDROOT
BRANCH   5   8
ATOM      8  C   UNL     1       6.059   6.305  17.685  0.00  0.00    +0.000 A 
ATOM      9  C   UNL     1       6.265   5.386  18.729  0.00  0.00    +0.000 A 
ATOM     10  C   UNL     1       7.401   5.464  19.534  0.00  0.00    +0.000 A 
ATOM     11  C   UNL     1       8.346   6.461  19.310  0.00  0.00    +0.000 A 
ATOM     12  C   UNL     1       8.162   7.373  18.273  0.00  0.00    +0.000 A 
ATOM     13  C   UNL     1       7.027   7.296  17.464  0.00  0.00    +0.000 A 
ENDBRANCH   5   8
BRANCH   1  14
ATOM     14  C   UNL     1       2.833   3.070  17.006  0.00  0.00    +0.000 C 
BRANCH  14  15
ATOM     15  C   UNL     1       3.357   2.073  18.049  0.00  0.00    +0.000 C 
BRANCH  15  22
ATOM     16  O   UNL     1       4.769   2.431  20.625  0.00  0.00    +0.000 OA
ATOM     17  C   UNL     1       3.561   2.480  20.493  0.00  0.00    +0.000 C 
ATOM     18  C   UNL     1       2.628   2.751  21.592  0.00  0.00    +0.000 C 
ATOM     19  C   UNL     1       1.389   2.692  21.099  0.00  0.00    +0.000 C 
ATOM     20  C   UNL     1       1.496   2.387  19.668  0.00  0.00    +0.000 C 
ATOM     21  O   UNL     1       0.540   2.249  18.928  0.00  0.00    +0.000 OA
ATOM     22  N   UNL     1       2.817   2.303  19.373  0.00  0.00    +0.000 N 
ENDBRANCH  15  22
ENDBRANCH  14  15
ENDBRANCH   1  14
TORSDOF 4
ENDMDL
MODEL 9
REMARK VINA RESULT:      -7.6      1.947      6.778
REMARK  Name = 
REMARK  4 active torsions:
REMARK  status: ('A' for Active; 'I' for Inactive)
REMARK    1  A    between atoms: N_7  and  C_8
REMARK    2  A    between atoms: C_8  and  C_9
REMARK    3  A    between atoms: C_9  and  N_10
REMARK    4  A    between atoms: C_14  and  C_15
REMARK                            x       y       z     vdW  Elec       q    Type
REMARK                         _______ _______ _______ _____ _____    ______ ____
ROOT
ATOM      1  N   UNL     1       5.591   5.057  17.102  0.00  0.00    +0.000 N 
ATOM      2  C   UNL     1       4.900   6.161  16.689  0.00  0.00    +0.000 C 
ATOM      3  O   UNL     1       4.967   6.693  15.592  0.00  0.00    +0.000 OA
ATOM      4  C   UNL     1       4.076   6.692  17.827  0.00  0.00    +0.000 C 
ATOM      5  C   UNL     1       4.269   5.665  18.937  0.00  0.00    +0.000 C 
ATOM      6  C   UNL     1       5.433   4.839  18.443  0.00  0.00    +0.000 C 
ATOM      7  O   UNL     1       6.092   4.085  19.143  0.00  0.00    +0.000 OA
ENDROOT
BRANCH   5   8
ATOM      8  C   UNL     1       3.029   4.827  19.182  0.00  0.00    +0.000 A 
ATOM      9  C   UNL     1       2.367   4.167  18.133  0.00  0.00    +0.000 A 
ATOM     10  C   UNL     1       1.205   3.434  18.371  0.00  0.00    +0.000 A 
ATOM     11  C   UNL     1       0.687   3.350  19.660  0.00  0.00    +0.000 A 
ATOM     12  C   UNL     1       1.337   3.990  20.713  0.00  0.00    +0.000 A 
ATOM     13  C   UNL     1       2.502   4.723  20.478  0.00  0.00    +0.000 A 
ENDBRANCH   5   8
BRANCH   1  14
ATOM     14  C   UNL     1       6.573   4.387  16.253  0.00  0.00    +0.000 C 
BRANCH  14  15
ATOM     15  C   UNL     1       5.970   3.648  15.051  0.00  0.00    +0.000 C 
BRANCH  15  22
ATOM     16  O   UNL     1       5.457   2.620  12.324  0.00  0.00    +0.000 OA
ATOM     17  C   UNL     1       6.225   3.527  12.581  0.00  0.00    +0.000 C 
ATOM     18  C   UNL     1       6.990   4.263  11.568  0.00  0.00    +0.000 C 
ATOM     19  C   UNL     1       7.753   5.155  12.204  0.00  0.00    +0.000 C 
ATOM     20  C   UNL     1       7.492   5.019  13.641  0.00  0.00    +0.000 C 
ATOM     21  O   UNL     1       8.044   5.681  14.499  0.00  0.00    +0.000 OA
ATOM     22  N   UNL     1       6.553   4.052  13.788  0.00  0.00    +0.000 N 
ENDBRANCH  15  22
ENDBRANCH  14  15
ENDBRANCH   1  14
TORSDOF 4
ENDMDL
