MODEL 1
REMARK VINA RESULT:      -7.9      0.000      0.000
REMARK  Name = 
REMARK  4 active torsions:
REMARK  status: ('A' for Active; 'I' for Inactive)
REMARK    1  A    between atoms: C_1  and  C_2
REMARK    2  A    between atoms: N_9  and  C_10
REMARK    3  A    between atoms: C_13  and  S_14
REMARK    4  A    between atoms: S_14  and  C_15
REMARK                            x       y       z     vdW  Elec       q    Type
REMARK                         _______ _______ _______ _____ _____    ______ ____
ROOT
ATOM      1  C   UNL     1      -0.699   9.511  22.953  0.00  0.00    +0.000 C 
ATOM      2  C   UNL     1      -0.207   9.813  21.562  0.00  0.00    +0.000 A 
ATOM      3  C   UNL     1      -0.630  10.937  20.930  0.00  0.00    +0.000 A 
ATOM      4  C   UNL     1      -0.189  11.308  19.596  0.00  0.00    +0.000 A 
ATOM      5  C   UNL     1       0.688  10.515  18.966  0.00  0.00    +0.000 A 
ATOM      6  N   UNL     1       1.132   9.357  19.587  0.00  0.00    +0.000 N 
ATOM      7  N   UNL     1       1.993   8.453  19.103  0.00  0.00    +0.000 NA
ATOM      8  C   UNL     1       2.040   7.528  20.060  0.00  0.00    +0.000 A 
ATOM      9  N   UNL     1       2.734   6.374  20.032  0.00  0.00    +0.000 N 
ATOM     10  N   UNL     1       1.262   7.797  21.153  0.00  0.00    +0.000 NA
ATOM     11  C   UNL     1       0.710   8.957  20.855  0.00  0.00    +0.000 A 
ATOM     12  H   UNL     1       2.540   5.722  20.781  0.00  0.00    +0.000 HD
ENDROOT
BRANCH   9  13
ATOM     13  C   UNL     1       3.728   5.954  19.123  0.00  0.00    +0.000 A 
ATOM     14  C   UNL     1       4.927   5.356  19.547  0.00  0.00    +0.000 A 
ATOM     15  C   UNL     1       5.933   5.006  18.648  0.00  0.00    +0.000 A 
ATOM     16  C   UNL     1       5.746   5.254  17.292  0.00  0.00    +0.000 A 
ATOM     17  C   UNL     1       4.582   5.878  16.838  0.00  0.00    +0.000 A 
ATOM     18  C   UNL     1       3.580   6.223  17.754  0.00  0.00    +0.000 A 
BRANCH  16  19
ATOM     19  S   UNL     1       7.012   4.773  16.147  0.00  0.00    +0.000 S 
ATOM     20  C   UNL     1       6.181   3.578  15.131  0.00  0.00    +0.000 C 
ATOM     21  O   UNL     1       7.321   5.929  15.324  0.00  0.00    +0.000 OA
ATOM     22  O   UNL     1       8.053   4.091  16.890  0.00  0.00    +0.000 OA
ENDBRANCH  16  19
ENDBRANCH   9  13
TORSDOF 2
ENDMDL
MODEL 2
REMARK VINA RESULT:      -7.5      0.380      1.045
REMARK  Name = 
REMARK  4 active torsions:
REMARK  status: ('A' for Active; 'I' for Inactive)
REMARK    1  A    between atoms: C_1  and  C_2
REMARK    2  A    between atoms: N_9  and  C_10
REMARK    3  A    between atoms: C_13  and  S_14
REMARK    4  A    between atoms: S_14  and  C_15
REMARK                            x       y       z     vdW  Elec       q    Type
REMARK                         _______ _______ _______ _____ _____    ______ ____
ROOT
ATOM      1  C   UNL     1      -0.796   9.792  22.856  0.00  0.00    +0.000 C 
ATOM      2  C   UNL     1      -0.356  10.027  21.434  0.00  0.00    +0.000 A 
ATOM      3  C   UNL     1      -0.863  11.076  20.741  0.00  0.00    +0.000 A 
ATOM      4  C   UNL     1      -0.477  11.381  19.373  0.00  0.00    +0.000 A 
ATOM      5  C   UNL     1       0.433  10.601  18.774  0.00  0.00    +0.000 A 
ATOM      6  N   UNL     1       0.963   9.518  19.460  0.00  0.00    +0.000 N 
ATOM      7  N   UNL     1       1.868   8.637  19.014  0.00  0.00    +0.000 NA
ATOM      8  C   UNL     1       1.995   7.784  20.030  0.00  0.00    +0.000 A 
ATOM      9  N   UNL     1       2.759   6.676  20.061  0.00  0.00    +0.000 N 
ATOM     10  N   UNL     1       1.226   8.081  21.123  0.00  0.00    +0.000 NA
ATOM     11  C   UNL     1       0.596   9.181  20.762  0.00  0.00    +0.000 A 
ATOM     12  H   UNL     1       2.624   6.067  20.858  0.00  0.00    +0.000 HD
ENDROOT
BRANCH   9  13
ATOM     13  C   UNL     1       3.756   6.256  19.156  0.00  0.00    +0.000 A 
ATOM     14  C   UNL     1       3.979   6.908  17.931  0.00  0.00    +0.000 A 
ATOM     15  C   UNL     1       4.919   6.448  17.012  0.00  0.00    +0.000 A 
ATOM     16  C   UNL     1       5.660   5.310  17.313  0.00  0.00    +0.000 A 
ATOM     17  C   UNL     1       5.442   4.616  18.505  0.00  0.00    +0.000 A 
ATOM     18  C   UNL     1       4.493   5.092  19.419  0.00  0.00    +0.000 A 
BRANCH  16  19
ATOM     19  S   UNL     1       6.882   4.747  16.158  0.00  0.00    +0.000 S 
ATOM     20  C   UNL     1       6.021   3.469  15.277  0.00  0.00    +0.000 C 
ATOM     21  O   UNL     1       7.145   5.834  15.232  0.00  0.00    +0.000 OA
ATOM     22  O   UNL     1       7.960   4.134  16.908  0.00  0.00    +0.000 OA
ENDBRANCH  16  19
ENDBRANCH   9  13
TORSDOF 2
ENDMDL
MODEL 3
REMARK VINA RESULT:      -7.2      1.180      1.718
REMARK  Name = 
REMARK  4 active torsions:
REMARK  status: ('A' for Active; 'I' for Inactive)
REMARK    1  A    between atoms: C_1  and  C_2
REMARK    2  A    between atoms: N_9  and  C_10
REMARK    3  A    between atoms: C_13  and  S_14
REMARK    4  A    between atoms: S_14  and  C_15
REMARK                            x       y       z     vdW  Elec       q    Type
REMARK                         _______ _______ _______ _____ _____    ______ ____
ROOT
ATOM      1  C   UNL     1      -1.081  10.438  23.099  0.00  0.00    +0.000 C 
ATOM      2  C   UNL     1      -0.569  10.697  21.706  0.00  0.00    +0.000 A 
ATOM      3  C   UNL     1      -0.916  11.842  21.067  0.00  0.00    +0.000 A 
ATOM      4  C   UNL     1      -0.451  12.174  19.730  0.00  0.00    +0.000 A 
ATOM      5  C   UNL     1       0.371  11.320  19.106  0.00  0.00    +0.000 A 
ATOM      6  N   UNL     1       0.737  10.139  19.737  0.00  0.00    +0.000 N 
ATOM      7  N   UNL     1       1.537   9.176  19.259  0.00  0.00    +0.000 NA
ATOM      8  C   UNL     1       1.522   8.257  20.223  0.00  0.00    +0.000 A 
ATOM      9  N   UNL     1       2.138   7.059  20.204  0.00  0.00    +0.000 N 
ATOM     10  N   UNL     1       0.762   8.585  21.313  0.00  0.00    +0.000 NA
ATOM     11  C   UNL     1       0.289   9.776  21.006  0.00  0.00    +0.000 A 
ATOM     12  H   UNL     1       1.900   6.427  20.957  0.00  0.00    +0.000 HD
ENDROOT
BRANCH   9  13
ATOM     13  C   UNL     1       3.101   6.568  19.299  0.00  0.00    +0.000 A 
ATOM     14  C   UNL     1       3.191   7.031  17.975  0.00  0.00    +0.000 A 
ATOM     15  C   UNL     1       4.101   6.493  17.067  0.00  0.00    +0.000 A 
ATOM     16  C   UNL     1       4.946   5.470  17.480  0.00  0.00    +0.000 A 
ATOM     17  C   UNL     1       4.862   4.960  18.777  0.00  0.00    +0.000 A 
ATOM     18  C   UNL     1       3.943   5.512  19.679  0.00  0.00    +0.000 A 
BRANCH  16  19
ATOM     19  S   UNL     1       6.128   4.813  16.333  0.00  0.00    +0.000 S 
ATOM     20  C   UNL     1       7.558   4.560  17.354  0.00  0.00    +0.000 C 
ATOM     21  O   UNL     1       5.646   3.513  15.901  0.00  0.00    +0.000 OA
ATOM     22  O   UNL     1       6.438   5.848  15.367  0.00  0.00    +0.000 OA
ENDBRANCH  16  19
ENDBRANCH   9  13
TORSDOF 2
ENDMDL
MODEL 4
REMARK VINA RESULT:      -7.1      5.986      7.443
REMARK  Name = 
REMARK  4 active torsions:
REMARK  status: ('A' for Active; 'I' for Inactive)
REMARK    1  A    between atoms: C_1  and  C_2
REMARK    2  A    between atoms: N_9  and  C_10
REMARK    3  A    between atoms: C_13  and  S_14
REMARK    4  A    between atoms: S_14  and  C_15
REMARK                            x       y       z     vdW  Elec       q    Type
REMARK                         _______ _______ _______ _____ _____    ______ ____
ROOT
ATOM      1  C   UNL     1      10.873  13.359  17.511  0.00  0.00    +0.000 C 
ATOM      2  C   UNL     1      10.393  12.580  18.707  0.00  0.00    +0.000 A 
ATOM      3  C   UNL     1      10.618  13.062  19.955  0.00  0.00    +0.000 A 
ATOM      4  C   UNL     1      10.172  12.380  21.159  0.00  0.00    +0.000 A 
ATOM      5  C   UNL     1       9.493  11.232  21.032  0.00  0.00    +0.000 A 
ATOM      6  N   UNL     1       9.255  10.715  19.767  0.00  0.00    +0.000 N 
ATOM      7  N   UNL     1       8.607   9.584  19.460  0.00  0.00    +0.000 NA
ATOM      8  C   UNL     1       8.697   9.527  18.132  0.00  0.00    +0.000 A 
ATOM      9  N   UNL     1       8.241   8.542  17.334  0.00  0.00    +0.000 N 
ATOM     10  N   UNL     1       9.361  10.578  17.560  0.00  0.00    +0.000 NA
ATOM     11  C   UNL     1       9.690  11.328  18.593  0.00  0.00    +0.000 A 
ATOM     12  H   UNL     1       8.525   8.591  16.365  0.00  0.00    +0.000 HD
ENDROOT
BRANCH   9  13
ATOM     13  C   UNL     1       7.388   7.464  17.650  0.00  0.00    +0.000 A 
ATOM     14  C   UNL     1       6.080   7.371  17.146  0.00  0.00    +0.000 A 
ATOM     15  C   UNL     1       5.220   6.339  17.516  0.00  0.00    +0.000 A 
ATOM     16  C   UNL     1       5.667   5.371  18.408  0.00  0.00    +0.000 A 
ATOM     17  C   UNL     1       6.949   5.450  18.957  0.00  0.00    +0.000 A 
ATOM     18  C   UNL     1       7.802   6.493  18.575  0.00  0.00    +0.000 A 
BRANCH  16  19
ATOM     19  S   UNL     1       4.583   4.039  18.849  0.00  0.00    +0.000 S 
ATOM     20  C   UNL     1       3.365   4.848  19.854  0.00  0.00    +0.000 C 
ATOM     21  O   UNL     1       3.934   3.580  17.633  0.00  0.00    +0.000 OA
ATOM     22  O   UNL     1       5.324   3.117  19.687  0.00  0.00    +0.000 OA
ENDBRANCH  16  19
ENDBRANCH   9  13
TORSDOF 2
ENDMDL
MODEL 5
REMARK VINA RESULT:      -7.1      2.094      3.035
REMARK  Name = 
REMARK  4 active torsions:
REMARK  status: ('A' for Active; 'I' for Inactive)
REMARK    1  A    between atoms: C_1  and  C_2
REMARK    2  A    between atoms: N_9  and  C_10
REMARK    3  A    between atoms: C_13  and  S_14
REMARK    4  A    between atoms: S_14  and  C_15
REMARK                            x       y       z     vdW  Elec       q    Type
REMARK                         _______ _______ _______ _____ _____    ______ ____
ROOT
ATOM      1  C   UNL     1      -2.835  11.875  18.316  0.00  0.00    +0.000 C 
ATOM      2  C   UNL     1      -1.795  11.630  19.377  0.00  0.00    +0.000 A 
ATOM      3  C   UNL     1      -1.900  12.259  20.575  0.00  0.00    +0.000 A 
ATOM      4  C   UNL     1      -0.948  12.064  21.657  0.00  0.00    +0.000 A 
ATOM      5  C   UNL     1       0.069  11.212  21.471  0.00  0.00    +0.000 A 
ATOM      6  N   UNL     1       0.201  10.561  20.253  0.00  0.00    +0.000 N 
ATOM      7  N   UNL     1       1.155   9.691  19.896  0.00  0.00    +0.000 NA
ATOM      8  C   UNL     1       0.853   9.404  18.630  0.00  0.00    +0.000 A 
ATOM      9  N   UNL     1       1.546   8.604  17.797  0.00  0.00    +0.000 N 
ATOM     10  N   UNL     1      -0.264  10.034  18.153  0.00  0.00    +0.000 NA
ATOM     11  C   UNL     1      -0.676  10.744  19.185  0.00  0.00    +0.000 A 
ATOM     12  H   UNL     1       1.254   8.614  16.829  0.00  0.00    +0.000 HD
ENDROOT
BRANCH   9  13
ATOM     13  C   UNL     1       2.604   7.718  18.089  0.00  0.00    +0.000 A 
ATOM     14  C   UNL     1       3.771   7.662  17.308  0.00  0.00    +0.000 A 
ATOM     15  C   UNL     1       4.783   6.739  17.562  0.00  0.00    +0.000 A 
ATOM     16  C   UNL     1       4.637   5.846  18.618  0.00  0.00    +0.000 A 
ATOM     17  C   UNL     1       3.476   5.849  19.394  0.00  0.00    +0.000 A 
ATOM     18  C   UNL     1       2.468   6.784  19.127  0.00  0.00    +0.000 A 
BRANCH  16  19
ATOM     19  S   UNL     1       5.943   4.697  18.962  0.00  0.00    +0.000 S 
ATOM     20  C   UNL     1       6.704   4.491  17.372  0.00  0.00    +0.000 C 
ATOM     21  O   UNL     1       6.894   5.360  19.835  0.00  0.00    +0.000 OA
ATOM     22  O   UNL     1       5.340   3.434  19.343  0.00  0.00    +0.000 OA
ENDBRANCH  16  19
ENDBRANCH   9  13
TORSDOF 2
ENDMDL
MODEL 6
REMARK VINA RESULT:      -7.0      4.777      7.829
REMARK  Name = 
REMARK  4 active torsions:
REMARK  status: ('A' for Active; 'I' for Inactive)
REMARK    1  A    between atoms: C_1  and  C_2
REMARK    2  A    between atoms: N_9  and  C_10
REMARK    3  A    between atoms: C_13  and  S_14
REMARK    4  A    between atoms: S_14  and  C_15
REMARK                            x       y       z     vdW  Elec       q    Type
REMARK                         _______ _______ _______ _____ _____    ______ ____
ROOT
ATOM      1  C   UNL     1       4.755   2.097  20.557  0.00  0.00    +0.000 C 
ATOM      2  C   UNL     1       3.878   2.583  19.434  0.00  0.00    +0.000 A 
ATOM      3  C   UNL     1       3.587   1.751  18.403  0.00  0.00    +0.000 A 
ATOM      4  C   UNL     1       2.734   2.137  17.291  0.00  0.00    +0.000 A 
ATOM      5  C   UNL     1       2.197   3.365  17.290  0.00  0.00    +0.000 A 
ATOM      6  N   UNL     1       2.484   4.237  18.330  0.00  0.00    +0.000 N 
ATOM      7  N   UNL     1       2.045   5.493  18.482  0.00  0.00    +0.000 NA
ATOM      8  C   UNL     1       2.643   5.896  19.602  0.00  0.00    +0.000 A 
ATOM      9  N   UNL     1       2.565   7.118  20.164  0.00  0.00    +0.000 N 
ATOM     10  N   UNL     1       3.439   4.953  20.195  0.00  0.00    +0.000 NA
ATOM     11  C   UNL     1       3.318   3.910  19.398  0.00  0.00    +0.000 A 
ATOM     12  H   UNL     1       3.199   7.293  20.932  0.00  0.00    +0.000 HD
ENDROOT
BRANCH   9  13
ATOM     13  C   UNL     1       1.694   8.184  19.857  0.00  0.00    +0.000 A 
ATOM     14  C   UNL     1       1.737   8.856  18.623  0.00  0.00    +0.000 A 
ATOM     15  C   UNL     1       0.920   9.951  18.353  0.00  0.00    +0.000 A 
ATOM     16  C   UNL     1       0.035  10.395  19.330  0.00  0.00    +0.000 A 
ATOM     17  C   UNL     1      -0.010   9.774  20.580  0.00  0.00    +0.000 A 
ATOM     18  C   UNL     1       0.817   8.673  20.837  0.00  0.00    +0.000 A 
BRANCH  16  19
ATOM     19  S   UNL     1      -1.029  11.766  18.969  0.00  0.00    +0.000 S 
ATOM     20  C   UNL     1       0.123  13.088  18.696  0.00  0.00    +0.000 C 
ATOM     21  O   UNL     1      -1.700  11.485  17.712  0.00  0.00    +0.000 OA
ATOM     22  O   UNL     1      -1.791  12.069  20.165  0.00  0.00    +0.000 OA
ENDBRANCH  16  19
ENDBRANCH   9  13
TORSDOF 2
ENDMDL
MODEL 7
REMARK VINA RESULT:      -7.0      1.816      2.823
REMARK  Name = 
REMARK  4 active torsions:
REMARK  status: ('A' for Active; 'I' for Inactive)
REMARK    1  A    between atoms: C_1  and  C_2
REMARK    2  A    between atoms: N_9  and  C_10
REMARK    3  A    between atoms: C_13  and  S_14
REMARK    4  A    between atoms: S_14  and  C_15
REMARK                            x       y       z     vdW  Elec       q    Type
REMARK                         _______ _______ _______ _____ _____    ______ ____
ROOT
ATOM      1  C   UNL     1      -1.947  12.560  20.143  0.00  0.00    +0.000 C 
ATOM      2  C   UNL     1      -1.206  11.522  20.945  0.00  0.00    +0.000 A 
ATOM      3  C   UNL     1      -1.397  11.449  22.286  0.00  0.00    +0.000 A 
ATOM      4  C   UNL     1      -0.734  10.466  23.127  0.00  0.00    +0.000 A 
ATOM      5  C   UNL     1       0.090   9.581  22.552  0.00  0.00    +0.000 A 
ATOM      6  N   UNL     1       0.307   9.637  21.182  0.00  0.00    +0.000 N 
ATOM      7  N   UNL     1       1.098   8.843  20.451  0.00  0.00    +0.000 NA
ATOM      8  C   UNL     1       0.987   9.344  19.221  0.00  0.00    +0.000 A 
ATOM      9  N   UNL     1       1.635   8.923  18.117  0.00  0.00    +0.000 N 
ATOM     10  N   UNL     1       0.145  10.418  19.117  0.00  0.00    +0.000 NA
ATOM     11  C   UNL     1      -0.291  10.583  20.350  0.00  0.00    +0.000 A 
ATOM     12  H   UNL     1       1.541   9.510  17.299  0.00  0.00    +0.000 HD
ENDROOT
BRANCH   9  13
ATOM     13  C   UNL     1       2.400   7.754  17.926  0.00  0.00    +0.000 A 
ATOM     14  C   UNL     1       1.905   6.475  18.233  0.00  0.00    +0.000 A 
ATOM     15  C   UNL     1       2.690   5.331  18.105  0.00  0.00    +0.000 A 
ATOM     16  C   UNL     1       4.002   5.456  17.660  0.00  0.00    +0.000 A 
ATOM     17  C   UNL     1       4.539   6.714  17.379  0.00  0.00    +0.000 A 
ATOM     18  C   UNL     1       3.737   7.855  17.512  0.00  0.00    +0.000 A 
BRANCH  16  19
ATOM     19  S   UNL     1       4.987   3.995  17.463  0.00  0.00    +0.000 S 
ATOM     20  C   UNL     1       5.551   4.133  15.786  0.00  0.00    +0.000 C 
ATOM     21  O   UNL     1       6.139   4.120  18.339  0.00  0.00    +0.000 OA
ATOM     22  O   UNL     1       4.108   2.846  17.553  0.00  0.00    +0.000 OA
ENDBRANCH  16  19
ENDBRANCH   9  13
TORSDOF 2
ENDMDL
MODEL 8
REMARK VINA RESULT:      -7.0      2.602      3.688
REMARK  Name = 
REMARK  4 active torsions:
REMARK  status: ('A' for Active; 'I' for Inactive)
REMARK    1  A    between atoms: C_1  and  C_2
REMARK    2  A    between atoms: N_9  and  C_10
REMARK    3  A    between atoms: C_13  and  S_14
REMARK    4  A    between atoms: S_14  and  C_15
REMARK                            x       y       z     vdW  Elec       q    Type
REMARK                         _______ _______ _______ _____ _____    ______ ____
ROOT
ATOM      1  C   UNL     1      -1.036  13.159  19.876  0.00  0.00    +0.000 C 
ATOM      2  C   UNL     1      -0.874  12.068  20.902  0.00  0.00    +0.000 A 
ATOM      3  C   UNL     1      -1.465  12.196  22.116  0.00  0.00    +0.000 A 
ATOM      4  C   UNL     1      -1.371  11.181  23.153  0.00  0.00    +0.000 A 
ATOM      5  C   UNL     1      -0.684  10.061  22.894  0.00  0.00    +0.000 A 
ATOM      6  N   UNL     1      -0.065   9.908  21.661  0.00  0.00    +0.000 N 
ATOM      7  N   UNL     1       0.663   8.865  21.241  0.00  0.00    +0.000 NA
ATOM      8  C   UNL     1       1.060   9.236  20.025  0.00  0.00    +0.000 A 
ATOM      9  N   UNL     1       1.867   8.547  19.195  0.00  0.00    +0.000 N 
ATOM     10  N   UNL     1       0.609  10.465  19.627  0.00  0.00    +0.000 NA
ATOM     11  C   UNL     1      -0.112  10.871  20.654  0.00  0.00    +0.000 A 
ATOM     12  H   UNL     1       2.182   9.043  18.372  0.00  0.00    +0.000 HD
ENDROOT
BRANCH   9  13
ATOM     13  C   UNL     1       2.311   7.212  19.291  0.00  0.00    +0.000 A 
ATOM     14  C   UNL     1       3.014   6.579  18.251  0.00  0.00    +0.000 A 
ATOM     15  C   UNL     1       3.390   5.240  18.324  0.00  0.00    +0.000 A 
ATOM     16  C   UNL     1       3.062   4.506  19.459  0.00  0.00    +0.000 A 
ATOM     17  C   UNL     1       2.334   5.090  20.497  0.00  0.00    +0.000 A 
ATOM     18  C   UNL     1       1.964   6.439  20.409  0.00  0.00    +0.000 A 
BRANCH  16  19
ATOM     19  S   UNL     1       3.574   2.811  19.565  0.00  0.00    +0.000 S 
ATOM     20  C   UNL     1       3.300   2.220  17.914  0.00  0.00    +0.000 C 
ATOM     21  O   UNL     1       5.004   2.799  19.818  0.00  0.00    +0.000 OA
ATOM     22  O   UNL     1       2.658   2.121  20.452  0.00  0.00    +0.000 OA
ENDBRANCH  16  19
ENDBRANCH   9  13
TORSDOF 2
ENDMDL
MODEL 9
REMARK VINA RESULT:      -7.0      4.710      7.799
REMARK  Name = 
REMARK  4 active torsions:
REMARK  status: ('A' for Active; 'I' for Inactive)
REMARK    1  A    between atoms: C_1  and  C_2
REMARK    2  A    between atoms: N_9  and  C_10
REMARK    3  A    between atoms: C_13  and  S_14
REMARK    4  A    between atoms: S_14  and  C_15
REMARK                            x       y       z     vdW  Elec       q    Type
REMARK                         _______ _______ _______ _____ _____    ______ ____
ROOT
ATOM      1  C   UNL     1       4.717   2.057  20.570  0.00  0.00    +0.000 C 
ATOM      2  C   UNL     1       3.894   2.584  19.424  0.00  0.00    +0.000 A 
ATOM      3  C   UNL     1       3.655   1.789  18.351  0.00  0.00    +0.000 A 
ATOM      4  C   UNL     1       2.857   2.216  17.213  0.00  0.00    +0.000 A 
ATOM      5  C   UNL     1       2.320   3.443  17.230  0.00  0.00    +0.000 A 
ATOM      6  N   UNL     1       2.555   4.277  18.313  0.00  0.00    +0.000 N 
ATOM      7  N   UNL     1       2.107   5.527  18.489  0.00  0.00    +0.000 NA
ATOM      8  C   UNL     1       2.650   5.889  19.651  0.00  0.00    +0.000 A 
ATOM      9  N   UNL     1       2.543   7.090  20.252  0.00  0.00    +0.000 N 
ATOM     10  N   UNL     1       3.417   4.925  20.247  0.00  0.00    +0.000 NA
ATOM     11  C   UNL     1       3.336   3.911  19.409  0.00  0.00    +0.000 A 
ATOM     12  H   UNL     1       3.139   7.237  21.056  0.00  0.00    +0.000 HD
ENDROOT
BRANCH   9  13
ATOM     13  C   UNL     1       1.687   8.167  19.941  0.00  0.00    +0.000 A 
ATOM     14  C   UNL     1       0.697   8.618  20.831  0.00  0.00    +0.000 A 
ATOM     15  C   UNL     1      -0.189   9.639  20.491  0.00  0.00    +0.000 A 
ATOM     16  C   UNL     1      -0.092  10.230  19.236  0.00  0.00    +0.000 A 
ATOM     17  C   UNL     1       0.856   9.784  18.313  0.00  0.00    +0.000 A 
ATOM     18  C   UNL     1       1.741   8.758  18.670  0.00  0.00    +0.000 A 
BRANCH  16  19
ATOM     19  S   UNL     1      -1.197  11.553  18.820  0.00  0.00    +0.000 S 
ATOM     20  C   UNL     1      -1.746  12.113  20.412  0.00  0.00    +0.000 C 
ATOM     21  O   UNL     1      -0.408  12.612  18.216  0.00  0.00    +0.000 OA
ATOM     22  O   UNL     1      -2.334  10.984  18.123  0.00  0.00    +0.000 OA
ENDBRANCH  16  19
ENDBRANCH   9  13
TORSDOF 2
ENDMDL
