MODEL 1
REMARK VINA RESULT:      -8.0      0.000      0.000
REMARK  Name = 
REMARK  5 active torsions:
REMARK  status: ('A' for Active; 'I' for Inactive)
REMARK    1  A    between atoms: C_1  and  C_2
REMARK    2  A    between atoms: C_2  and  N_3
REMARK    3  A    between atoms: N_6  and  C_7
REMARK    4  A    between atoms: C_7  and  C_8
REMARK    5  A    between atoms: N_10  and  C_11
REMARK                            x       y       z     vdW  Elec       q    Type
REMARK                         _______ _______ _______ _____ _____    ______ ____
ROOT
ATOM      1  C   UNL     1       2.743   5.273  19.447  0.00  0.00    +0.000 C 
ATOM      2  O   UNL     1       1.579   4.893  19.554  0.00  0.00    +0.000 OA
ATOM      3  N   UNL     1       3.152   6.591  19.322  0.00  0.00    +0.000 N 
ATOM      4  H   UNL     1       3.985   6.728  18.754  0.00  0.00    +0.000 HD
ENDROOT
BRANCH   3   5
ATOM      5  C   UNL     1       2.250   7.672  19.379  0.00  0.00    +0.000 A 
ATOM      6  C   UNL     1       1.885   8.404  18.244  0.00  0.00    +0.000 A 
ATOM      7  C   UNL     1       1.004   9.486  18.359  0.00  0.00    +0.000 A 
ATOM      8  C   UNL     1       0.522   9.857  19.613  0.00  0.00    +0.000 A 
ATOM      9  C   UNL     1       0.867   9.108  20.741  0.00  0.00    +0.000 A 
ATOM     10  C   UNL     1       1.707   8.003  20.624  0.00  0.00    +0.000 A 
ATOM     11  O   UNL     1       0.449   9.418  22.009  0.00  0.00    +0.000 OA
ATOM     12  C   UNL     1      -0.629  10.357  21.995  0.00  0.00    +0.000 C 
ATOM     13  C   UNL     1      -0.371  11.477  21.001  0.00  0.00    +0.000 C 
ATOM     14  O   UNL     1      -0.284  10.964  19.666  0.00  0.00    +0.000 OA
ENDBRANCH   3   5
BRANCH   1  15
ATOM     15  C   UNL     1       3.894   4.270  19.321  0.00  0.00    +0.000 C 
BRANCH  15  19
ATOM     16  N   UNL     1       6.427   4.930  15.902  0.00  0.00    +0.000 N 
ATOM     17  C   UNL     1       5.044   5.380  15.877  0.00  0.00    +0.000 C 
ATOM     18  C   UNL     1       4.191   4.545  16.834  0.00  0.00    +0.000 C 
ATOM     19  N   UNL     1       4.752   4.549  18.179  0.00  0.00    +0.000 N 
ATOM     20  C   UNL     1       6.118   4.735  18.385  0.00  0.00    +0.000 C 
ATOM     21  O   UNL     1       6.596   4.931  19.499  0.00  0.00    +0.000 OA
ATOM     22  C   UNL     1       7.028   4.616  17.125  0.00  0.00    +0.000 C 
ATOM     23  O   UNL     1       8.172   4.204  17.239  0.00  0.00    +0.000 OA
BRANCH  16  25
ATOM     24  C   UNL     1       6.310   3.915  13.656  0.00  0.00    +0.000 C 
ATOM     25  C   UNL     1       7.144   4.708  14.653  0.00  0.00    +0.000 C 
ENDBRANCH  16  25
ENDBRANCH  15  19
ENDBRANCH   1  15
TORSDOF 4
ENDMDL
MODEL 2
REMARK VINA RESULT:      -7.9      0.914      1.631
REMARK  Name = 
REMARK  5 active torsions:
REMARK  status: ('A' for Active; 'I' for Inactive)
REMARK    1  A    between atoms: C_1  and  C_2
REMARK    2  A    between atoms: C_2  and  N_3
REMARK    3  A    between atoms: N_6  and  C_7
REMARK    4  A    between atoms: C_7  and  C_8
REMARK    5  A    between atoms: N_10  and  C_11
REMARK                            x       y       z     vdW  Elec       q    Type
REMARK                         _______ _______ _______ _____ _____    ______ ____
ROOT
ATOM      1  C   UNL     1       2.698   4.995  19.791  0.00  0.00    +0.000 C 
ATOM      2  O   UNL     1       1.537   4.589  19.757  0.00  0.00    +0.000 OA
ATOM      3  N   UNL     1       3.084   6.320  19.915  0.00  0.00    +0.000 N 
ATOM      4  H   UNL     1       3.948   6.560  19.434  0.00  0.00    +0.000 HD
ENDROOT
BRANCH   3   5
ATOM      5  C   UNL     1       2.156   7.366  20.090  0.00  0.00    +0.000 A 
ATOM      6  C   UNL     1       1.330   7.454  21.216  0.00  0.00    +0.000 A 
ATOM      7  C   UNL     1       0.406   8.500  21.329  0.00  0.00    +0.000 A 
ATOM      8  C   UNL     1       0.283   9.431  20.300  0.00  0.00    +0.000 A 
ATOM      9  C   UNL     1       1.128   9.356  19.189  0.00  0.00    +0.000 A 
ATOM     10  C   UNL     1       2.080   8.343  19.094  0.00  0.00    +0.000 A 
ATOM     11  O   UNL     1       1.058  10.222  18.129  0.00  0.00    +0.000 OA
ATOM     12  C   UNL     1       0.283  11.382  18.444  0.00  0.00    +0.000 C 
ATOM     13  C   UNL     1      -0.989  11.009  19.186  0.00  0.00    +0.000 C 
ATOM     14  O   UNL     1      -0.685  10.391  20.443  0.00  0.00    +0.000 OA
ENDBRANCH   3   5
BRANCH   1  15
ATOM     15  C   UNL     1       3.876   4.040  19.577  0.00  0.00    +0.000 C 
BRANCH  15  19
ATOM     16  N   UNL     1       6.266   4.946  16.111  0.00  0.00    +0.000 N 
ATOM     17  C   UNL     1       4.848   5.268  16.117  0.00  0.00    +0.000 C 
ATOM     18  C   UNL     1       4.094   4.354  17.086  0.00  0.00    +0.000 C 
ATOM     19  N   UNL     1       4.681   4.403  18.420  0.00  0.00    +0.000 N 
ATOM     20  C   UNL     1       6.028   4.711  18.599  0.00  0.00    +0.000 C 
ATOM     21  O   UNL     1       6.509   4.944  19.704  0.00  0.00    +0.000 OA
ATOM     22  C   UNL     1       6.919   4.682  17.319  0.00  0.00    +0.000 C 
ATOM     23  O   UNL     1       8.098   4.376  17.408  0.00  0.00    +0.000 OA
BRANCH  16  25
ATOM     24  C   UNL     1       6.175   3.972  13.846  0.00  0.00    +0.000 C 
ATOM     25  C   UNL     1       6.974   4.796  14.846  0.00  0.00    +0.000 C 
ENDBRANCH  16  25
ENDBRANCH  15  19
ENDBRANCH   1  15
TORSDOF 4
ENDMDL
MODEL 3
REMARK VINA RESULT:      -7.1      5.899      6.922
REMARK  Name = 
REMARK  5 active torsions:
REMARK  status: ('A' for Active; 'I' for Inactive)
REMARK    1  A    between atoms: C_1  and  C_2
REMARK    2  A    between atoms: C_2  and  N_3
REMARK    3  A    between atoms: N_6  and  C_7
REMARK    4  A    between atoms: C_7  and  C_8
REMARK    5  A    between atoms: N_10  and  C_11
REMARK                            x       y       z     vdW  Elec       q    Type
REMARK                         _______ _______ _______ _____ _____    ______ ____
ROOT
ATOM      1  C   UNL     1       8.068   8.035  18.269  0.00  0.00    +0.000 C 
ATOM      2  O   UNL     1       7.396   8.590  17.402  0.00  0.00    +0.000 OA
ATOM      3  N   UNL     1       8.962   8.664  19.121  0.00  0.00    +0.000 N 
ATOM      4  H   UNL     1       9.767   8.101  19.386  0.00  0.00    +0.000 HD
ENDROOT
BRANCH   3   5
ATOM      5  C   UNL     1       9.147  10.060  19.127  0.00  0.00    +0.000 A 
ATOM      6  C   UNL     1       9.160  10.820  17.952  0.00  0.00    +0.000 A 
ATOM      7  C   UNL     1       9.373  12.202  18.012  0.00  0.00    +0.000 A 
ATOM      8  C   UNL     1       9.612  12.815  19.240  0.00  0.00    +0.000 A 
ATOM      9  C   UNL     1       9.573  12.058  20.415  0.00  0.00    +0.000 A 
ATOM     10  C   UNL     1       9.315  10.690  20.364  0.00  0.00    +0.000 A 
ATOM     11  O   UNL     1       9.814  12.583  21.659  0.00  0.00    +0.000 OA
ATOM     12  C   UNL     1       9.765  14.011  21.648  0.00  0.00    +0.000 C 
ATOM     13  C   UNL     1      10.500  14.579  20.445  0.00  0.00    +0.000 C 
ATOM     14  O   UNL     1       9.879  14.159  19.223  0.00  0.00    +0.000 OA
ENDBRANCH   3   5
BRANCH   1  15
ATOM     15  C   UNL     1       8.061   6.510  18.420  0.00  0.00    +0.000 C 
BRANCH  15  19
ATOM     16  N   UNL     1       4.420   4.600  17.141  0.00  0.00    +0.000 N 
ATOM     17  C   UNL     1       4.370   5.669  18.126  0.00  0.00    +0.000 C 
ATOM     18  C   UNL     1       5.698   5.766  18.880  0.00  0.00    +0.000 C 
ATOM     19  N   UNL     1       6.817   5.913  17.957  0.00  0.00    +0.000 N 
ATOM     20  C   UNL     1       6.746   5.413  16.659  0.00  0.00    +0.000 C 
ATOM     21  O   UNL     1       7.584   5.680  15.803  0.00  0.00    +0.000 OA
ATOM     22  C   UNL     1       5.568   4.435  16.359  0.00  0.00    +0.000 C 
ATOM     23  O   UNL     1       5.711   3.550  15.530  0.00  0.00    +0.000 OA
BRANCH  16  25
ATOM     24  C   UNL     1       3.508   2.474  17.999  0.00  0.00    +0.000 C 
ATOM     25  C   UNL     1       3.323   3.645  17.044  0.00  0.00    +0.000 C 
ENDBRANCH  16  25
ENDBRANCH  15  19
ENDBRANCH   1  15
TORSDOF 4
ENDMDL
MODEL 4
REMARK VINA RESULT:      -7.0      5.993      7.318
REMARK  Name = 
REMARK  5 active torsions:
REMARK  status: ('A' for Active; 'I' for Inactive)
REMARK    1  A    between atoms: C_1  and  C_2
REMARK    2  A    between atoms: C_2  and  N_3
REMARK    3  A    between atoms: N_6  and  C_7
REMARK    4  A    between atoms: C_7  and  C_8
REMARK    5  A    between atoms: N_10  and  C_11
REMARK                            x       y       z     vdW  Elec       q    Type
REMARK                         _______ _______ _______ _____ _____    ______ ____
ROOT
ATOM      1  C   UNL     1       8.165   8.248  18.397  0.00  0.00    +0.000 C 
ATOM      2  O   UNL     1       7.476   8.866  17.586  0.00  0.00    +0.000 OA
ATOM      3  N   UNL     1       9.094   8.809  19.258  0.00  0.00    +0.000 N 
ATOM      4  H   UNL     1       9.898   8.219  19.462  0.00  0.00    +0.000 HD
ENDROOT
BRANCH   3   5
ATOM      5  C   UNL     1       9.302  10.200  19.344  0.00  0.00    +0.000 A 
ATOM      6  C   UNL     1       9.033  10.927  20.510  0.00  0.00    +0.000 A 
ATOM      7  C   UNL     1       9.233  12.312  20.534  0.00  0.00    +0.000 A 
ATOM      8  C   UNL     1       9.663  12.972  19.385  0.00  0.00    +0.000 A 
ATOM      9  C   UNL     1       9.956  12.240  18.231  0.00  0.00    +0.000 A 
ATOM     10  C   UNL     1       9.802  10.855  18.216  0.00  0.00    +0.000 A 
ATOM     11  O   UNL     1      10.366  12.816  17.056  0.00  0.00    +0.000 OA
ATOM     12  C   UNL     1      10.783  14.170  17.248  0.00  0.00    +0.000 C 
ATOM     13  C   UNL     1       9.815  14.921  18.148  0.00  0.00    +0.000 C 
ATOM     14  O   UNL     1       9.776  14.336  19.456  0.00  0.00    +0.000 OA
ENDBRANCH   3   5
BRANCH   1  15
ATOM     15  C   UNL     1       8.137   6.717  18.453  0.00  0.00    +0.000 C 
BRANCH  15  19
ATOM     16  N   UNL     1       4.419   4.945  17.196  0.00  0.00    +0.000 N 
ATOM     17  C   UNL     1       4.422   5.967  18.231  0.00  0.00    +0.000 C 
ATOM     18  C   UNL     1       5.773   6.001  18.948  0.00  0.00    +0.000 C 
ATOM     19  N   UNL     1       6.868   6.168  18.000  0.00  0.00    +0.000 N 
ATOM     20  C   UNL     1       6.747   5.732  16.683  0.00  0.00    +0.000 C 
ATOM     21  O   UNL     1       7.567   6.020  15.815  0.00  0.00    +0.000 OA
ATOM     22  C   UNL     1       5.541   4.793  16.374  0.00  0.00    +0.000 C 
ATOM     23  O   UNL     1       5.639   3.946  15.500  0.00  0.00    +0.000 OA
BRANCH  16  25
ATOM     24  C   UNL     1       2.080   4.516  17.852  0.00  0.00    +0.000 C 
ATOM     25  C   UNL     1       3.299   4.019  17.088  0.00  0.00    +0.000 C 
ENDBRANCH  16  25
ENDBRANCH  15  19
ENDBRANCH   1  15
TORSDOF 4
ENDMDL
MODEL 5
REMARK VINA RESULT:      -6.9      3.125      8.540
REMARK  Name = 
REMARK  5 active torsions:
REMARK  status: ('A' for Active; 'I' for Inactive)
REMARK    1  A    between atoms: C_1  and  C_2
REMARK    2  A    between atoms: C_2  and  N_3
REMARK    3  A    between atoms: N_6  and  C_7
REMARK    4  A    between atoms: C_7  and  C_8
REMARK    5  A    between atoms: N_10  and  C_11
REMARK                            x       y       z     vdW  Elec       q    Type
REMARK                         _______ _______ _______ _____ _____    ______ ____
ROOT
ATOM      1  C   UNL     1       1.718   8.794  18.846  0.00  0.00    +0.000 C 
ATOM      2  O   UNL     1       1.509   8.449  20.008  0.00  0.00    +0.000 OA
ATOM      3  N   UNL     1       2.372   8.037  17.887  0.00  0.00    +0.000 N 
ATOM      4  H   UNL     1       2.909   8.577  17.211  0.00  0.00    +0.000 HD
ENDROOT
BRANCH   3   5
ATOM      5  C   UNL     1       2.818   6.724  18.133  0.00  0.00    +0.000 A 
ATOM      6  C   UNL     1       4.134   6.437  18.512  0.00  0.00    +0.000 A 
ATOM      7  C   UNL     1       4.532   5.111  18.720  0.00  0.00    +0.000 A 
ATOM      8  C   UNL     1       3.625   4.074  18.511  0.00  0.00    +0.000 A 
ATOM      9  C   UNL     1       2.304   4.364  18.159  0.00  0.00    +0.000 A 
ATOM     10  C   UNL     1       1.892   5.686  17.996  0.00  0.00    +0.000 A 
ATOM     11  O   UNL     1       1.357   3.402  17.920  0.00  0.00    +0.000 OA
ATOM     12  C   UNL     1       1.774   2.121  18.399  0.00  0.00    +0.000 C 
ATOM     13  C   UNL     1       3.225   1.844  18.041  0.00  0.00    +0.000 C 
ATOM     14  O   UNL     1       4.095   2.796  18.667  0.00  0.00    +0.000 OA
ENDBRANCH   3   5
BRANCH   1  15
ATOM     15  C   UNL     1       1.357  10.202  18.362  0.00  0.00    +0.000 C 
BRANCH  15  19
ATOM     16  N   UNL     1      -2.840  11.139  18.569  0.00  0.00    +0.000 N 
ATOM     17  C   UNL     1      -2.407   9.877  17.989  0.00  0.00    +0.000 C 
ATOM     18  C   UNL     1      -0.981   9.996  17.447  0.00  0.00    +0.000 C 
ATOM     19  N   UNL     1      -0.067  10.479  18.475  0.00  0.00    +0.000 N 
ATOM     20  C   UNL     1      -0.523  11.275  19.523  0.00  0.00    +0.000 C 
ATOM     21  O   UNL     1       0.172  11.542  20.499  0.00  0.00    +0.000 OA
ATOM     22  C   UNL     1      -1.955  11.873  19.364  0.00  0.00    +0.000 C 
ATOM     23  O   UNL     1      -2.221  12.953  19.867  0.00  0.00    +0.000 OA
BRANCH  16  25
ATOM     24  C   UNL     1      -4.522  11.411  16.784  0.00  0.00    +0.000 C 
ATOM     25  C   UNL     1      -4.151  11.682  18.235  0.00  0.00    +0.000 C 
ENDBRANCH  16  25
ENDBRANCH  15  19
ENDBRANCH   1  15
TORSDOF 4
ENDMDL
MODEL 6
REMARK VINA RESULT:      -6.8      5.936      7.265
REMARK  Name = 
REMARK  5 active torsions:
REMARK  status: ('A' for Active; 'I' for Inactive)
REMARK    1  A    between atoms: C_1  and  C_2
REMARK    2  A    between atoms: C_2  and  N_3
REMARK    3  A    between atoms: N_6  and  C_7
REMARK    4  A    between atoms: C_7  and  C_8
REMARK    5  A    between atoms: N_10  and  C_11
REMARK                            x       y       z     vdW  Elec       q    Type
REMARK                         _______ _______ _______ _____ _____    ______ ____
ROOT
ATOM      1  C   UNL     1       7.994   8.343  18.074  0.00  0.00    +0.000 C 
ATOM      2  O   UNL     1       7.269   9.074  17.402  0.00  0.00    +0.000 OA
ATOM      3  N   UNL     1       8.979   8.771  18.951  0.00  0.00    +0.000 N 
ATOM      4  H   UNL     1       9.785   8.154  19.022  0.00  0.00    +0.000 HD
ENDROOT
BRANCH   3   5
ATOM      5  C   UNL     1       9.209  10.134  19.223  0.00  0.00    +0.000 A 
ATOM      6  C   UNL     1       9.081  10.674  20.508  0.00  0.00    +0.000 A 
ATOM      7  C   UNL     1       9.297  12.041  20.720  0.00  0.00    +0.000 A 
ATOM      8  C   UNL     1       9.600  12.870  19.642  0.00  0.00    +0.000 A 
ATOM      9  C   UNL     1       9.753  12.324  18.365  0.00  0.00    +0.000 A 
ATOM     10  C   UNL     1       9.585  10.956  18.158  0.00  0.00    +0.000 A 
ATOM     11  O   UNL     1      10.033  13.074  17.252  0.00  0.00    +0.000 OA
ATOM     12  C   UNL     1      10.482  14.386  17.598  0.00  0.00    +0.000 C 
ATOM     13  C   UNL     1       9.630  14.985  18.705  0.00  0.00    +0.000 C 
ATOM     14  O   UNL     1       9.733  14.209  19.906  0.00  0.00    +0.000 OA
ENDBRANCH   3   5
BRANCH   1  15
ATOM     15  C   UNL     1       7.951   6.820  17.913  0.00  0.00    +0.000 C 
BRANCH  15  19
ATOM     16  N   UNL     1       3.868   5.451  17.861  0.00  0.00    +0.000 N 
ATOM     17  C   UNL     1       4.609   5.568  16.615  0.00  0.00    +0.000 C 
ATOM     18  C   UNL     1       5.726   6.606  16.749  0.00  0.00    +0.000 C 
ATOM     19  N   UNL     1       6.590   6.304  17.884  0.00  0.00    +0.000 N 
ATOM     20  C   UNL     1       6.109   5.597  18.984  0.00  0.00    +0.000 C 
ATOM     21  O   UNL     1       6.847   5.164  19.864  0.00  0.00    +0.000 OA
ATOM     22  C   UNL     1       4.560   5.435  19.076  0.00  0.00    +0.000 C 
ATOM     23  O   UNL     1       4.022   5.369  20.170  0.00  0.00    +0.000 OA
BRANCH  16  25
ATOM     24  C   UNL     1       1.842   4.049  17.751  0.00  0.00    +0.000 C 
ATOM     25  C   UNL     1       2.411   5.458  17.846  0.00  0.00    +0.000 C 
ENDBRANCH  16  25
ENDBRANCH  15  19
ENDBRANCH   1  15
TORSDOF 4
ENDMDL
MODEL 7
REMARK VINA RESULT:      -6.8      1.793      2.315
REMARK  Name = 
REMARK  5 active torsions:
REMARK  status: ('A' for Active; 'I' for Inactive)
REMARK    1  A    between atoms: C_1  and  C_2
REMARK    2  A    between atoms: C_2  and  N_3
REMARK    3  A    between atoms: N_6  and  C_7
REMARK    4  A    between atoms: C_7  and  C_8
REMARK    5  A    between atoms: N_10  and  C_11
REMARK                            x       y       z     vdW  Elec       q    Type
REMARK                         _______ _______ _______ _____ _____    ______ ____
ROOT
ATOM      1  C   UNL     1       2.407   5.320  19.947  0.00  0.00    +0.000 C 
ATOM      2  O   UNL     1       1.302   4.973  20.361  0.00  0.00    +0.000 OA
ATOM      3  N   UNL     1       2.792   6.624  19.676  0.00  0.00    +0.000 N 
ATOM      4  H   UNL     1       3.456   6.723  18.911  0.00  0.00    +0.000 HD
ENDROOT
BRANCH   3   5
ATOM      5  C   UNL     1       1.952   7.728  19.921  0.00  0.00    +0.000 A 
ATOM      6  C   UNL     1       1.588   8.631  18.916  0.00  0.00    +0.000 A 
ATOM      7  C   UNL     1       0.770   9.726  19.218  0.00  0.00    +0.000 A 
ATOM      8  C   UNL     1       0.352   9.938  20.530  0.00  0.00    +0.000 A 
ATOM      9  C   UNL     1       0.695   9.021  21.527  0.00  0.00    +0.000 A 
ATOM     10  C   UNL     1       1.470   7.904  21.221  0.00  0.00    +0.000 A 
ATOM     11  O   UNL     1       0.337   9.167  22.842  0.00  0.00    +0.000 OA
ATOM     12  C   UNL     1      -0.689  10.149  23.005  0.00  0.00    +0.000 C 
ATOM     13  C   UNL     1      -0.405  11.386  22.168  0.00  0.00    +0.000 C 
ATOM     14  O   UNL     1      -0.391  11.064  20.771  0.00  0.00    +0.000 OA
ENDBRANCH   3   5
BRANCH   1  15
ATOM     15  C   UNL     1       3.472   4.286  19.570  0.00  0.00    +0.000 C 
BRANCH  15  19
ATOM     16  N   UNL     1       6.654   6.161  17.356  0.00  0.00    +0.000 N 
ATOM     17  C   UNL     1       6.957   5.402  18.559  0.00  0.00    +0.000 C 
ATOM     18  C   UNL     1       5.746   5.369  19.493  0.00  0.00    +0.000 C 
ATOM     19  N   UNL     1       4.564   4.867  18.803  0.00  0.00    +0.000 N 
ATOM     20  C   UNL     1       4.424   5.009  17.424  0.00  0.00    +0.000 C 
ATOM     21  O   UNL     1       3.542   4.439  16.789  0.00  0.00    +0.000 OA
ATOM     22  C   UNL     1       5.415   5.991  16.728  0.00  0.00    +0.000 C 
ATOM     23  O   UNL     1       5.063   6.604  15.732  0.00  0.00    +0.000 OA
BRANCH  16  25
ATOM     24  C   UNL     1       7.873   8.229  17.923  0.00  0.00    +0.000 C 
ATOM     25  C   UNL     1       7.592   7.165  16.871  0.00  0.00    +0.000 C 
ENDBRANCH  16  25
ENDBRANCH  15  19
ENDBRANCH   1  15
TORSDOF 4
ENDMDL
MODEL 8
REMARK VINA RESULT:      -6.8      1.827      2.708
REMARK  Name = 
REMARK  5 active torsions:
REMARK  status: ('A' for Active; 'I' for Inactive)
REMARK    1  A    between atoms: C_1  and  C_2
REMARK    2  A    between atoms: C_2  and  N_3
REMARK    3  A    between atoms: N_6  and  C_7
REMARK    4  A    between atoms: C_7  and  C_8
REMARK    5  A    between atoms: N_10  and  C_11
REMARK                            x       y       z     vdW  Elec       q    Type
REMARK                         _______ _______ _______ _____ _____    ______ ____
ROOT
ATOM      1  C   UNL     1       2.564   5.065  19.572  0.00  0.00    +0.000 C 
ATOM      2  O   UNL     1       1.400   4.694  19.433  0.00  0.00    +0.000 OA
ATOM      3  N   UNL     1       2.968   6.358  19.865  0.00  0.00    +0.000 N 
ATOM      4  H   UNL     1       3.861   6.629  19.459  0.00  0.00    +0.000 HD
ENDROOT
BRANCH   3   5
ATOM      5  C   UNL     1       2.051   7.399  20.110  0.00  0.00    +0.000 A 
ATOM      6  C   UNL     1       1.259   7.446  21.263  0.00  0.00    +0.000 A 
ATOM      7  C   UNL     1       0.346   8.491  21.445  0.00  0.00    +0.000 A 
ATOM      8  C   UNL     1       0.197   9.463  20.458  0.00  0.00    +0.000 A 
ATOM      9  C   UNL     1       1.007   9.429  19.320  0.00  0.00    +0.000 A 
ATOM     10  C   UNL     1       1.951   8.416  19.156  0.00  0.00    +0.000 A 
ATOM     11  O   UNL     1       0.911  10.337  18.297  0.00  0.00    +0.000 OA
ATOM     12  C   UNL     1       0.152  11.486  18.681  0.00  0.00    +0.000 C 
ATOM     13  C   UNL     1      -1.100  11.089  19.446  0.00  0.00    +0.000 C 
ATOM     14  O   UNL     1      -0.761  10.420  20.668  0.00  0.00    +0.000 OA
ENDBRANCH   3   5
BRANCH   1  15
ATOM     15  C   UNL     1       3.735   4.111  19.312  0.00  0.00    +0.000 C 
BRANCH  15  19
ATOM     16  N   UNL     1       6.918   6.177  17.276  0.00  0.00    +0.000 N 
ATOM     17  C   UNL     1       7.196   5.446  18.502  0.00  0.00    +0.000 C 
ATOM     18  C   UNL     1       5.935   5.339  19.362  0.00  0.00    +0.000 C 
ATOM     19  N   UNL     1       4.831   4.758  18.607  0.00  0.00    +0.000 N 
ATOM     20  C   UNL     1       4.766   4.885  17.221  0.00  0.00    +0.000 C 
ATOM     21  O   UNL     1       3.963   4.256  16.539  0.00  0.00    +0.000 OA
ATOM     22  C   UNL     1       5.733   5.925  16.577  0.00  0.00    +0.000 C 
ATOM     23  O   UNL     1       5.403   6.510  15.557  0.00  0.00    +0.000 OA
BRANCH  16  25
ATOM     24  C   UNL     1       7.766   8.440  17.772  0.00  0.00    +0.000 C 
ATOM     25  C   UNL     1       7.817   7.238  16.840  0.00  0.00    +0.000 C 
ENDBRANCH  16  25
ENDBRANCH  15  19
ENDBRANCH   1  15
TORSDOF 4
ENDMDL
MODEL 9
REMARK VINA RESULT:      -6.6      2.368      3.398
REMARK  Name = 
REMARK  5 active torsions:
REMARK  status: ('A' for Active; 'I' for Inactive)
REMARK    1  A    between atoms: C_1  and  C_2
REMARK    2  A    between atoms: C_2  and  N_3
REMARK    3  A    between atoms: N_6  and  C_7
REMARK    4  A    between atoms: C_7  and  C_8
REMARK    5  A    between atoms: N_10  and  C_11
REMARK                            x       y       z     vdW  Elec       q    Type
REMARK                         _______ _______ _______ _____ _____    ______ ____
ROOT
ATOM      1  C   UNL     1       2.333   8.132  18.601  0.00  0.00    +0.000 C 
ATOM      2  O   UNL     1       2.057   7.659  19.702  0.00  0.00    +0.000 OA
ATOM      3  N   UNL     1       1.688   9.200  17.997  0.00  0.00    +0.000 N 
ATOM      4  H   UNL     1       1.643   9.153  16.982  0.00  0.00    +0.000 HD
ENDROOT
BRANCH   3   5
ATOM      5  C   UNL     1       0.660   9.921  18.636  0.00  0.00    +0.000 A 
ATOM      6  C   UNL     1      -0.632  10.015  18.106  0.00  0.00    +0.000 A 
ATOM      7  C   UNL     1      -1.611  10.766  18.768  0.00  0.00    +0.000 A 
ATOM      8  C   UNL     1      -1.285  11.453  19.935  0.00  0.00    +0.000 A 
ATOM      9  C   UNL     1      -0.002  11.337  20.477  0.00  0.00    +0.000 A 
ATOM     10  C   UNL     1       0.961  10.553  19.846  0.00  0.00    +0.000 A 
ATOM     11  O   UNL     1       0.400  11.994  21.611  0.00  0.00    +0.000 OA
ATOM     12  C   UNL     1      -0.712  12.514  22.343  0.00  0.00    +0.000 C 
ATOM     13  C   UNL     1      -1.720  13.175  21.417  0.00  0.00    +0.000 C 
ATOM     14  O   UNL     1      -2.270  12.223  20.498  0.00  0.00    +0.000 OA
ENDBRANCH   3   5
BRANCH   1  15
ATOM     15  C   UNL     1       3.393   7.483  17.705  0.00  0.00    +0.000 C 
BRANCH  15  19
ATOM     16  N   UNL     1       3.450   3.220  18.307  0.00  0.00    +0.000 N 
ATOM     17  C   UNL     1       2.506   3.806  17.369  0.00  0.00    +0.000 C 
ATOM     18  C   UNL     1       2.208   5.259  17.745  0.00  0.00    +0.000 C 
ATOM     19  N   UNL     1       3.437   6.036  17.856  0.00  0.00    +0.000 N 
ATOM     20  C   UNL     1       4.644   5.425  18.188  0.00  0.00    +0.000 C 
ATOM     21  O   UNL     1       5.722   6.007  18.107  0.00  0.00    +0.000 OA
ATOM     22  C   UNL     1       4.552   3.967  18.736  0.00  0.00    +0.000 C 
ATOM     23  O   UNL     1       5.378   3.568  19.541  0.00  0.00    +0.000 OA
BRANCH  16  25
ATOM     24  C   UNL     1       1.904   1.882  19.689  0.00  0.00    +0.000 C 
ATOM     25  C   UNL     1       3.190   1.903  18.875  0.00  0.00    +0.000 C 
ENDBRANCH  16  25
ENDBRANCH  15  19
ENDBRANCH   1  15
TORSDOF 4
ENDMDL
