MODEL 1
REMARK VINA RESULT:      -7.8      0.000      0.000
REMARK  Name = 
REMARK  7 active torsions:
REMARK  status: ('A' for Active; 'I' for Inactive)
REMARK    1  A    between atoms: C_1  and  O_2
REMARK    2  A    between atoms: O_2  and  C_3
REMARK    3  A    between atoms: C_8  and  C_9
REMARK    4  A    between atoms: C_9  and  N_10
REMARK    5  A    between atoms: C_11  and  C_13
REMARK    6  A    between atoms: C_15  and  C_16
REMARK    7  A    between atoms: C_18  and  C_19
REMARK                            x       y       z     vdW  Elec       q    Type
REMARK                         _______ _______ _______ _____ _____    ______ ____
ROOT
ATOM      1  N   UNL     1       4.421   2.502  17.522  0.00  0.00    +0.000 N 
ATOM      2  C   UNL     1       4.201   3.797  17.094  0.00  0.00    +0.000 C 
ATOM      3  O   UNL     1       3.103   4.347  17.142  0.00  0.00    +0.000 OA
ATOM      4  H   UNL     1       5.295   2.064  17.252  0.00  0.00    +0.000 HD
ENDROOT
BRANCH   2   5
ATOM      5  C   UNL     1       5.389   4.524  16.543  0.00  0.00    +0.000 A 
ATOM      6  C   UNL     1       5.806   4.237  15.259  0.00  0.00    +0.000 A 
ATOM      7  C   UNL     1       6.877   4.961  14.795  0.00  0.00    +0.000 A 
ATOM      8  C   UNL     1       7.438   4.732  13.424  0.00  0.00    +0.000 C 
ATOM      9  N   UNL     1       7.457   5.927  15.536  0.00  0.00    +0.000 NA
ATOM     10  C   UNL     1       6.974   6.169  16.781  0.00  0.00    +0.000 A 
ATOM     11  N   UNL     1       5.958   5.463  17.335  0.00  0.00    +0.000 NA
BRANCH  10  12
ATOM     12  C   UNL     1       7.574   7.337  17.578  0.00  0.00    +0.000 C 
ATOM     13  F   UNL     1       8.521   8.050  16.899  0.00  0.00    +0.000 F 
ATOM     14  F   UNL     1       6.633   8.256  17.956  0.00  0.00    +0.000 F 
ATOM     15  F   UNL     1       8.180   6.937  18.736  0.00  0.00    +0.000 F 
ENDBRANCH  10  12
ENDBRANCH   2   5
BRANCH   1  16
ATOM     16  C   UNL     1       3.322   1.705  18.034  0.00  0.00    +0.000 C 
BRANCH  16  22
ATOM     17  C   UNL     1       3.550   2.375  20.452  0.00  0.00    +0.000 A 
ATOM     18  N   UNL     1       3.108   2.830  21.650  0.00  0.00    +0.000 NA
ATOM     19  C   UNL     1       1.785   3.048  21.768  0.00  0.00    +0.000 A 
ATOM     20  C   UNL     1       0.878   2.817  20.750  0.00  0.00    +0.000 A 
ATOM     21  C   UNL     1       1.362   2.381  19.519  0.00  0.00    +0.000 A 
ATOM     22  C   UNL     1       2.737   2.195  19.330  0.00  0.00    +0.000 A 
BRANCH  17  24
ATOM     23  C   UNL     1       5.263   0.990  21.222  0.00  0.00    +0.000 C 
ATOM     24  O   UNL     1       4.884   2.043  20.335  0.00  0.00    +0.000 OA
ENDBRANCH  17  24
ENDBRANCH  16  22
ENDBRANCH   1  16
TORSDOF 5
ENDMDL
MODEL 2
REMARK VINA RESULT:      -7.6      2.379      3.387
REMARK  Name = 
REMARK  7 active torsions:
REMARK  status: ('A' for Active; 'I' for Inactive)
REMARK    1  A    between atoms: C_1  and  O_2
REMARK    2  A    between atoms: O_2  and  C_3
REMARK    3  A    between atoms: C_8  and  C_9
REMARK    4  A    between atoms: C_9  and  N_10
REMARK    5  A    between atoms: C_11  and  C_13
REMARK    6  A    between atoms: C_15  and  C_16
REMARK    7  A    between atoms: C_18  and  C_19
REMARK                            x       y       z     vdW  Elec       q    Type
REMARK                         _______ _______ _______ _____ _____    ______ ____
ROOT
ATOM      1  N   UNL     1       5.289   3.010  19.114  0.00  0.00    +0.000 N 
ATOM      2  C   UNL     1       5.262   4.387  19.224  0.00  0.00    +0.000 C 
ATOM      3  O   UNL     1       4.709   4.980  20.148  0.00  0.00    +0.000 OA
ATOM      4  H   UNL     1       5.578   2.619  18.223  0.00  0.00    +0.000 HD
ENDROOT
BRANCH   2   5
ATOM      5  C   UNL     1       5.946   5.152  18.134  0.00  0.00    +0.000 A 
ATOM      6  C   UNL     1       6.673   6.277  18.468  0.00  0.00    +0.000 A 
ATOM      7  C   UNL     1       7.308   6.916  17.430  0.00  0.00    +0.000 A 
ATOM      8  C   UNL     1       8.115   8.159  17.657  0.00  0.00    +0.000 C 
ATOM      9  N   UNL     1       7.260   6.445  16.168  0.00  0.00    +0.000 NA
ATOM     10  C   UNL     1       6.546   5.317  15.923  0.00  0.00    +0.000 A 
ATOM     11  N   UNL     1       5.844   4.658  16.878  0.00  0.00    +0.000 NA
BRANCH  10  12
ATOM     12  C   UNL     1       6.579   4.731  14.503  0.00  0.00    +0.000 C 
ATOM     13  F   UNL     1       7.594   5.209  13.724  0.00  0.00    +0.000 F 
ATOM     14  F   UNL     1       6.730   3.372  14.498  0.00  0.00    +0.000 F 
ATOM     15  F   UNL     1       5.433   4.974  13.798  0.00  0.00    +0.000 F 
ENDBRANCH  10  12
ENDBRANCH   2   5
BRANCH   1  16
ATOM     16  C   UNL     1       4.618   2.184  20.101  0.00  0.00    +0.000 C 
BRANCH  16  22
ATOM     17  C   UNL     1       2.325   2.360  19.072  0.00  0.00    +0.000 A 
ATOM     18  N   UNL     1       0.981   2.534  19.083  0.00  0.00    +0.000 NA
ATOM     19  C   UNL     1       0.417   2.844  20.266  0.00  0.00    +0.000 A 
ATOM     20  C   UNL     1       1.135   3.008  21.436  0.00  0.00    +0.000 A 
ATOM     21  C   UNL     1       2.511   2.792  21.403  0.00  0.00    +0.000 A 
ATOM     22  C   UNL     1       3.135   2.410  20.209  0.00  0.00    +0.000 A 
BRANCH  17  24
ATOM     23  C   UNL     1       2.643   3.166  16.906  0.00  0.00    +0.000 C 
ATOM     24  O   UNL     1       2.942   2.145  17.856  0.00  0.00    +0.000 OA
ENDBRANCH  17  24
ENDBRANCH  16  22
ENDBRANCH   1  16
TORSDOF 5
ENDMDL
MODEL 3
REMARK VINA RESULT:      -7.5      1.596      2.295
REMARK  Name = 
REMARK  7 active torsions:
REMARK  status: ('A' for Active; 'I' for Inactive)
REMARK    1  A    between atoms: C_1  and  O_2
REMARK    2  A    between atoms: O_2  and  C_3
REMARK    3  A    between atoms: C_8  and  C_9
REMARK    4  A    between atoms: C_9  and  N_10
REMARK    5  A    between atoms: C_11  and  C_13
REMARK    6  A    between atoms: C_15  and  C_16
REMARK    7  A    between atoms: C_18  and  C_19
REMARK                            x       y       z     vdW  Elec       q    Type
REMARK                         _______ _______ _______ _____ _____    ______ ____
ROOT
ATOM      1  N   UNL     1       2.878   4.749  17.248  0.00  0.00    +0.000 N 
ATOM      2  C   UNL     1       3.976   3.928  17.075  0.00  0.00    +0.000 C 
ATOM      3  O   UNL     1       3.976   2.731  17.353  0.00  0.00    +0.000 OA
ATOM      4  H   UNL     1       3.031   5.750  17.195  0.00  0.00    +0.000 HD
ENDROOT
BRANCH   2   5
ATOM      5  C   UNL     1       5.209   4.579  16.528  0.00  0.00    +0.000 A 
ATOM      6  C   UNL     1       5.624   4.250  15.254  0.00  0.00    +0.000 A 
ATOM      7  C   UNL     1       6.740   4.906  14.793  0.00  0.00    +0.000 A 
ATOM      8  C   UNL     1       7.304   4.626  13.432  0.00  0.00    +0.000 C 
ATOM      9  N   UNL     1       7.365   5.848  15.527  0.00  0.00    +0.000 NA
ATOM     10  C   UNL     1       6.882   6.136  16.762  0.00  0.00    +0.000 A 
ATOM     11  N   UNL     1       5.822   5.496  17.314  0.00  0.00    +0.000 NA
BRANCH  10  12
ATOM     12  C   UNL     1       7.537   7.280  17.550  0.00  0.00    +0.000 C 
ATOM     13  F   UNL     1       8.167   6.883  18.695  0.00  0.00    +0.000 F 
ATOM     14  F   UNL     1       8.491   7.941  16.825  0.00  0.00    +0.000 F 
ATOM     15  F   UNL     1       6.644   8.240  17.939  0.00  0.00    +0.000 F 
ENDBRANCH  10  12
ENDBRANCH   2   5
BRANCH   1  16
ATOM     16  C   UNL     1       1.650   4.217  17.811  0.00  0.00    +0.000 C 
BRANCH  16  22
ATOM     17  C   UNL     1       2.210   4.786  20.201  0.00  0.00    +0.000 A 
ATOM     18  N   UNL     1       2.295   4.554  21.533  0.00  0.00    +0.000 NA
ATOM     19  C   UNL     1       1.955   3.323  21.960  0.00  0.00    +0.000 A 
ATOM     20  C   UNL     1       1.550   2.305  21.116  0.00  0.00    +0.000 A 
ATOM     21  C   UNL     1       1.440   2.580  19.755  0.00  0.00    +0.000 A 
ATOM     22  C   UNL     1       1.727   3.862  19.270  0.00  0.00    +0.000 A 
BRANCH  17  24
ATOM     23  C   UNL     1       1.935   7.101  20.286  0.00  0.00    +0.000 C 
ATOM     24  O   UNL     1       2.652   6.003  19.723  0.00  0.00    +0.000 OA
ENDBRANCH  17  24
ENDBRANCH  16  22
ENDBRANCH   1  16
TORSDOF 5
ENDMDL
MODEL 4
REMARK VINA RESULT:      -7.4      1.534      2.198
REMARK  Name = 
REMARK  7 active torsions:
REMARK  status: ('A' for Active; 'I' for Inactive)
REMARK    1  A    between atoms: C_1  and  O_2
REMARK    2  A    between atoms: O_2  and  C_3
REMARK    3  A    between atoms: C_8  and  C_9
REMARK    4  A    between atoms: C_9  and  N_10
REMARK    5  A    between atoms: C_11  and  C_13
REMARK    6  A    between atoms: C_15  and  C_16
REMARK    7  A    between atoms: C_18  and  C_19
REMARK                            x       y       z     vdW  Elec       q    Type
REMARK                         _______ _______ _______ _____ _____    ______ ____
ROOT
ATOM      1  N   UNL     1       5.324   2.918  19.106  0.00  0.00    +0.000 N 
ATOM      2  C   UNL     1       5.367   4.297  19.187  0.00  0.00    +0.000 C 
ATOM      3  O   UNL     1       4.813   4.940  20.076  0.00  0.00    +0.000 OA
ATOM      4  H   UNL     1       5.624   2.492  18.236  0.00  0.00    +0.000 HD
ENDROOT
BRANCH   2   5
ATOM      5  C   UNL     1       6.133   4.999  18.109  0.00  0.00    +0.000 A 
ATOM      6  C   UNL     1       6.113   4.477  16.832  0.00  0.00    +0.000 A 
ATOM      7  C   UNL     1       6.804   5.185  15.878  0.00  0.00    +0.000 A 
ATOM      8  C   UNL     1       6.875   4.714  14.456  0.00  0.00    +0.000 C 
ATOM      9  N   UNL     1       7.425   6.346  16.165  0.00  0.00    +0.000 NA
ATOM     10  C   UNL     1       7.377   6.811  17.440  0.00  0.00    +0.000 A 
ATOM     11  N   UNL     1       6.767   6.146  18.451  0.00  0.00    +0.000 NA
BRANCH  10  12
ATOM     12  C   UNL     1       8.000   8.183  17.736  0.00  0.00    +0.000 C 
ATOM     13  F   UNL     1       8.849   8.635  16.765  0.00  0.00    +0.000 F 
ATOM     14  F   UNL     1       7.062   9.168  17.881  0.00  0.00    +0.000 F 
ATOM     15  F   UNL     1       8.729   8.200  18.893  0.00  0.00    +0.000 F 
ENDBRANCH  10  12
ENDBRANCH   2   5
BRANCH   1  16
ATOM     16  C   UNL     1       4.572   2.152  20.083  0.00  0.00    +0.000 C 
BRANCH  16  22
ATOM     17  C   UNL     1       2.326   2.453  18.982  0.00  0.00    +0.000 A 
ATOM     18  N   UNL     1       0.996   2.711  18.949  0.00  0.00    +0.000 NA
ATOM     19  C   UNL     1       0.418   3.078  20.108  0.00  0.00    +0.000 A 
ATOM     20  C   UNL     1       1.110   3.218  21.297  0.00  0.00    +0.000 A 
ATOM     21  C   UNL     1       2.470   2.915  21.310  0.00  0.00    +0.000 A 
ATOM     22  C   UNL     1       3.104   2.473  20.142  0.00  0.00    +0.000 A 
BRANCH  17  24
ATOM     23  C   UNL     1       2.734   3.182  16.803  0.00  0.00    +0.000 C 
ATOM     24  O   UNL     1       2.964   2.177  17.789  0.00  0.00    +0.000 OA
ENDBRANCH  17  24
ENDBRANCH  16  22
ENDBRANCH   1  16
TORSDOF 5
ENDMDL
MODEL 5
REMARK VINA RESULT:      -7.3      5.004      6.933
REMARK  Name = 
REMARK  7 active torsions:
REMARK  status: ('A' for Active; 'I' for Inactive)
REMARK    1  A    between atoms: C_1  and  O_2
REMARK    2  A    between atoms: O_2  and  C_3
REMARK    3  A    between atoms: C_8  and  C_9
REMARK    4  A    between atoms: C_9  and  N_10
REMARK    5  A    between atoms: C_11  and  C_13
REMARK    6  A    between atoms: C_15  and  C_16
REMARK    7  A    between atoms: C_18  and  C_19
REMARK                            x       y       z     vdW  Elec       q    Type
REMARK                         _______ _______ _______ _____ _____    ______ ____
ROOT
ATOM      1  N   UNL     1       3.741   5.880  18.899  0.00  0.00    +0.000 N 
ATOM      2  C   UNL     1       2.613   6.006  19.687  0.00  0.00    +0.000 C 
ATOM      3  O   UNL     1       2.075   5.057  20.254  0.00  0.00    +0.000 OA
ATOM      4  H   UNL     1       3.986   6.666  18.308  0.00  0.00    +0.000 HD
ENDROOT
BRANCH   2   5
ATOM      5  C   UNL     1       2.047   7.386  19.819  0.00  0.00    +0.000 A 
ATOM      6  C   UNL     1       2.123   8.240  18.738  0.00  0.00    +0.000 A 
ATOM      7  C   UNL     1       1.555   9.480  18.906  0.00  0.00    +0.000 A 
ATOM      8  C   UNL     1       1.585  10.507  17.814  0.00  0.00    +0.000 C 
ATOM      9  N   UNL     1       0.921   9.824  20.045  0.00  0.00    +0.000 NA
ATOM     10  C   UNL     1       0.865   8.919  21.056  0.00  0.00    +0.000 A 
ATOM     11  N   UNL     1       1.448   7.697  20.993  0.00  0.00    +0.000 NA
BRANCH  10  12
ATOM     12  C   UNL     1       0.055   9.281  22.310  0.00  0.00    +0.000 C 
ATOM     13  F   UNL     1      -0.525  10.516  22.265  0.00  0.00    +0.000 F 
ATOM     14  F   UNL     1      -0.972   8.408  22.543  0.00  0.00    +0.000 F 
ATOM     15  F   UNL     1       0.808   9.273  23.451  0.00  0.00    +0.000 F 
ENDBRANCH  10  12
ENDBRANCH   2   5
BRANCH   1  16
ATOM     16  C   UNL     1       4.337   4.574  18.680  0.00  0.00    +0.000 C 
BRANCH  16  22
ATOM     17  C   UNL     1       6.633   4.622  17.646  0.00  0.00    +0.000 A 
ATOM     18  N   UNL     1       7.528   4.541  16.631  0.00  0.00    +0.000 NA
ATOM     19  C   UNL     1       7.028   4.396  15.389  0.00  0.00    +0.000 A 
ATOM     20  C   UNL     1       5.675   4.347  15.110  0.00  0.00    +0.000 A 
ATOM     21  C   UNL     1       4.778   4.399  16.174  0.00  0.00    +0.000 A 
ATOM     22  C   UNL     1       5.251   4.491  17.489  0.00  0.00    +0.000 A 
BRANCH  17  24
ATOM     23  C   UNL     1       7.842   6.099  18.987  0.00  0.00    +0.000 C 
ATOM     24  O   UNL     1       7.112   4.875  18.915  0.00  0.00    +0.000 OA
ENDBRANCH  17  24
ENDBRANCH  16  22
ENDBRANCH   1  16
TORSDOF 5
ENDMDL
MODEL 6
REMARK VINA RESULT:      -7.2      6.111      7.353
REMARK  Name = 
REMARK  7 active torsions:
REMARK  status: ('A' for Active; 'I' for Inactive)
REMARK    1  A    between atoms: C_1  and  O_2
REMARK    2  A    between atoms: O_2  and  C_3
REMARK    3  A    between atoms: C_8  and  C_9
REMARK    4  A    between atoms: C_9  and  N_10
REMARK    5  A    between atoms: C_11  and  C_13
REMARK    6  A    between atoms: C_15  and  C_16
REMARK    7  A    between atoms: C_18  and  C_19
REMARK                            x       y       z     vdW  Elec       q    Type
REMARK                         _______ _______ _______ _____ _____    ______ ____
ROOT
ATOM      1  N   UNL     1       2.335   7.493  18.892  0.00  0.00    +0.000 N 
ATOM      2  C   UNL     1       1.924   8.684  18.325  0.00  0.00    +0.000 C 
ATOM      3  O   UNL     1       2.323   9.086  17.234  0.00  0.00    +0.000 OA
ATOM      4  H   UNL     1       2.124   7.345  19.873  0.00  0.00    +0.000 HD
ENDROOT
BRANCH   2   5
ATOM      5  C   UNL     1       0.952   9.496  19.123  0.00  0.00    +0.000 A 
ATOM      6  C   UNL     1       0.111  10.366  18.459  0.00  0.00    +0.000 A 
ATOM      7  C   UNL     1      -0.784  11.057  19.240  0.00  0.00    +0.000 A 
ATOM      8  C   UNL     1      -1.740  12.045  18.644  0.00  0.00    +0.000 C 
ATOM      9  N   UNL     1      -0.865  10.860  20.572  0.00  0.00    +0.000 NA
ATOM     10  C   UNL     1      -0.021   9.968  21.150  0.00  0.00    +0.000 A 
ATOM     11  N   UNL     1       0.928   9.288  20.461  0.00  0.00    +0.000 NA
BRANCH  10  12
ATOM     12  C   UNL     1      -0.188   9.676  22.649  0.00  0.00    +0.000 C 
ATOM     13  F   UNL     1      -0.689  10.722  23.370  0.00  0.00    +0.000 F 
ATOM     14  F   UNL     1      -1.037   8.632  22.891  0.00  0.00    +0.000 F 
ATOM     15  F   UNL     1       0.988   9.341  23.261  0.00  0.00    +0.000 F 
ENDBRANCH  10  12
ENDBRANCH   2   5
BRANCH   1  16
ATOM     16  C   UNL     1       3.308   6.657  18.211  0.00  0.00    +0.000 C 
BRANCH  16  22
ATOM     17  C   UNL     1       4.068   4.349  18.875  0.00  0.00    +0.000 A 
ATOM     18  N   UNL     1       3.933   3.012  19.050  0.00  0.00    +0.000 NA
ATOM     19  C   UNL     1       2.787   2.453  18.617  0.00  0.00    +0.000 A 
ATOM     20  C   UNL     1       1.775   3.165  18.000  0.00  0.00    +0.000 A 
ATOM     21  C   UNL     1       1.925   4.543  17.862  0.00  0.00    +0.000 A 
ATOM     22  C   UNL     1       3.074   5.178  18.349  0.00  0.00    +0.000 A 
BRANCH  17  24
ATOM     23  C   UNL     1       6.294   4.664  18.253  0.00  0.00    +0.000 C 
ATOM     24  O   UNL     1       5.273   4.930  19.214  0.00  0.00    +0.000 OA
ENDBRANCH  17  24
ENDBRANCH  16  22
ENDBRANCH   1  16
TORSDOF 5
ENDMDL
MODEL 7
REMARK VINA RESULT:      -7.1      6.048      7.491
REMARK  Name = 
REMARK  7 active torsions:
REMARK  status: ('A' for Active; 'I' for Inactive)
REMARK    1  A    between atoms: C_1  and  O_2
REMARK    2  A    between atoms: O_2  and  C_3
REMARK    3  A    between atoms: C_8  and  C_9
REMARK    4  A    between atoms: C_9  and  N_10
REMARK    5  A    between atoms: C_11  and  C_13
REMARK    6  A    between atoms: C_15  and  C_16
REMARK    7  A    between atoms: C_18  and  C_19
REMARK                            x       y       z     vdW  Elec       q    Type
REMARK                         _______ _______ _______ _____ _____    ______ ____
ROOT
ATOM      1  N   UNL     1       2.374   7.556  18.713  0.00  0.00    +0.000 N 
ATOM      2  C   UNL     1       1.966   8.772  18.201  0.00  0.00    +0.000 C 
ATOM      3  O   UNL     1       2.381   9.232  17.139  0.00  0.00    +0.000 OA
ATOM      4  H   UNL     1       2.146   7.357  19.681  0.00  0.00    +0.000 HD
ENDROOT
BRANCH   2   5
ATOM      5  C   UNL     1       0.976   9.539  19.022  0.00  0.00    +0.000 A 
ATOM      6  C   UNL     1       0.101  10.393  18.382  0.00  0.00    +0.000 A 
ATOM      7  C   UNL     1      -0.808  11.041  19.184  0.00  0.00    +0.000 A 
ATOM      8  C   UNL     1      -1.800  12.009  18.614  0.00  0.00    +0.000 C 
ATOM      9  N   UNL     1      -0.870  10.818  20.512  0.00  0.00    +0.000 NA
ATOM     10  C   UNL     1       0.007   9.942  21.066  0.00  0.00    +0.000 A 
ATOM     11  N   UNL     1       0.971   9.306  20.356  0.00  0.00    +0.000 NA
BRANCH  10  12
ATOM     12  C   UNL     1      -0.136   9.618  22.560  0.00  0.00    +0.000 C 
ATOM     13  F   UNL     1      -0.941   8.547  22.827  0.00  0.00    +0.000 F 
ATOM     14  F   UNL     1       1.061   9.325  23.153  0.00  0.00    +0.000 F 
ATOM     15  F   UNL     1      -0.658  10.655  23.283  0.00  0.00    +0.000 F 
ENDBRANCH  10  12
ENDBRANCH   2   5
BRANCH   1  16
ATOM     16  C   UNL     1       3.362   6.760  18.007  0.00  0.00    +0.000 C 
BRANCH  16  22
ATOM     17  C   UNL     1       3.994   4.390  17.432  0.00  0.00    +0.000 A 
ATOM     18  N   UNL     1       3.801   3.052  17.344  0.00  0.00    +0.000 NA
ATOM     19  C   UNL     1       2.587   2.587  17.696  0.00  0.00    +0.000 A 
ATOM     20  C   UNL     1       1.549   3.400  18.115  0.00  0.00    +0.000 A 
ATOM     21  C   UNL     1       1.785   4.768  18.228  0.00  0.00    +0.000 A 
ATOM     22  C   UNL     1       3.049   5.291  17.929  0.00  0.00    +0.000 A 
BRANCH  17  24
ATOM     23  C   UNL     1       5.831   4.046  16.035  0.00  0.00    +0.000 C 
ATOM     24  O   UNL     1       5.192   4.905  16.979  0.00  0.00    +0.000 OA
ENDBRANCH  17  24
ENDBRANCH  16  22
ENDBRANCH   1  16
TORSDOF 5
ENDMDL
MODEL 8
REMARK VINA RESULT:      -7.1      6.354      7.592
REMARK  Name = 
REMARK  7 active torsions:
REMARK  status: ('A' for Active; 'I' for Inactive)
REMARK    1  A    between atoms: C_1  and  O_2
REMARK    2  A    between atoms: O_2  and  C_3
REMARK    3  A    between atoms: C_8  and  C_9
REMARK    4  A    between atoms: C_9  and  N_10
REMARK    5  A    between atoms: C_11  and  C_13
REMARK    6  A    between atoms: C_15  and  C_16
REMARK    7  A    between atoms: C_18  and  C_19
REMARK                            x       y       z     vdW  Elec       q    Type
REMARK                         _______ _______ _______ _____ _____    ______ ____
ROOT
ATOM      1  N   UNL     1       2.292   7.848  18.990  0.00  0.00    +0.000 N 
ATOM      2  C   UNL     1       1.769   9.027  18.493  0.00  0.00    +0.000 C 
ATOM      3  O   UNL     1       1.809   9.335  17.304  0.00  0.00    +0.000 OA
ATOM      4  H   UNL     1       2.404   7.775  19.995  0.00  0.00    +0.000 HD
ENDROOT
BRANCH   2   5
ATOM      5  C   UNL     1       1.142   9.947  19.494  0.00  0.00    +0.000 A 
ATOM      6  C   UNL     1       0.935  11.266  19.145  0.00  0.00    +0.000 A 
ATOM      7  C   UNL     1       0.323  12.053  20.091  0.00  0.00    +0.000 A 
ATOM      8  C   UNL     1       0.057  13.507  19.842  0.00  0.00    +0.000 C 
ATOM      9  N   UNL     1      -0.091  11.553  21.272  0.00  0.00    +0.000 NA
ATOM     10  C   UNL     1       0.125  10.238  21.533  0.00  0.00    +0.000 A 
ATOM     11  N   UNL     1       0.772   9.407  20.679  0.00  0.00    +0.000 NA
BRANCH  10  12
ATOM     12  C   UNL     1      -0.439   9.655  22.837  0.00  0.00    +0.000 C 
ATOM     13  F   UNL     1      -1.025   8.429  22.695  0.00  0.00    +0.000 F 
ATOM     14  F   UNL     1       0.521   9.485  23.797  0.00  0.00    +0.000 F 
ATOM     15  F   UNL     1      -1.392  10.450  23.410  0.00  0.00    +0.000 F 
ENDBRANCH  10  12
ENDBRANCH   2   5
BRANCH   1  16
ATOM     16  C   UNL     1       2.955   6.911  18.102  0.00  0.00    +0.000 C 
BRANCH  16  22
ATOM     17  C   UNL     1       3.656   4.757  19.205  0.00  0.00    +0.000 A 
ATOM     18  N   UNL     1       3.521   3.457  19.563  0.00  0.00    +0.000 NA
ATOM     19  C   UNL     1       2.454   2.798  19.072  0.00  0.00    +0.000 A 
ATOM     20  C   UNL     1       1.524   3.372  18.225  0.00  0.00    +0.000 A 
ATOM     21  C   UNL     1       1.668   4.719  17.900  0.00  0.00    +0.000 A 
ATOM     22  C   UNL     1       2.730   5.461  18.432  0.00  0.00    +0.000 A 
BRANCH  17  24
ATOM     23  C   UNL     1       5.955   5.003  18.893  0.00  0.00    +0.000 C 
ATOM     24  O   UNL     1       4.795   5.427  19.606  0.00  0.00    +0.000 OA
ENDBRANCH  17  24
ENDBRANCH  16  22
ENDBRANCH   1  16
TORSDOF 5
ENDMDL
MODEL 9
REMARK VINA RESULT:      -7.0      5.895      7.157
REMARK  Name = 
REMARK  7 active torsions:
REMARK  status: ('A' for Active; 'I' for Inactive)
REMARK    1  A    between atoms: C_1  and  O_2
REMARK    2  A    between atoms: O_2  and  C_3
REMARK    3  A    between atoms: C_8  and  C_9
REMARK    4  A    between atoms: C_9  and  N_10
REMARK    5  A    between atoms: C_11  and  C_13
REMARK    6  A    between atoms: C_15  and  C_16
REMARK    7  A    between atoms: C_18  and  C_19
REMARK                            x       y       z     vdW  Elec       q    Type
REMARK                         _______ _______ _______ _____ _____    ______ ____
ROOT
ATOM      1  N   UNL     1       2.582   6.851  20.016  0.00  0.00    +0.000 N 
ATOM      2  C   UNL     1       2.207   7.829  19.115  0.00  0.00    +0.000 C 
ATOM      3  O   UNL     1       2.501   7.798  17.922  0.00  0.00    +0.000 OA
ATOM      4  H   UNL     1       2.482   7.062  21.003  0.00  0.00    +0.000 HD
ENDROOT
BRANCH   2   5
ATOM      5  C   UNL     1       1.412   8.971  19.670  0.00  0.00    +0.000 A 
ATOM      6  C   UNL     1       1.046   9.998  18.825  0.00  0.00    +0.000 A 
ATOM      7  C   UNL     1       0.287  10.999  19.382  0.00  0.00    +0.000 A 
ATOM      8  C   UNL     1      -0.161  12.180  18.575  0.00  0.00    +0.000 C 
ATOM      9  N   UNL     1      -0.114  10.955  20.669  0.00  0.00    +0.000 NA
ATOM     10  C   UNL     1       0.265   9.898  21.432  0.00  0.00    +0.000 A 
ATOM     11  N   UNL     1       1.060   8.899  20.975  0.00  0.00    +0.000 NA
BRANCH  10  12
ATOM     12  C   UNL     1      -0.278   9.805  22.865  0.00  0.00    +0.000 C 
ATOM     13  F   UNL     1       0.683   9.613  23.817  0.00  0.00    +0.000 F 
ATOM     14  F   UNL     1      -0.946  10.935  23.250  0.00  0.00    +0.000 F 
ATOM     15  F   UNL     1      -1.167   8.780  23.033  0.00  0.00    +0.000 F 
ENDBRANCH  10  12
ENDBRANCH   2   5
BRANCH   1  16
ATOM     16  C   UNL     1       3.389   5.727  19.579  0.00  0.00    +0.000 C 
BRANCH  16  22
ATOM     17  C   UNL     1       2.723   3.861  18.022  0.00  0.00    +0.000 A 
ATOM     18  N   UNL     1       2.075   2.725  17.670  0.00  0.00    +0.000 NA
ATOM     19  C   UNL     1       1.220   2.207  18.572  0.00  0.00    +0.000 A 
ATOM     20  C   UNL     1       0.967   2.782  19.804  0.00  0.00    +0.000 A 
ATOM     21  C   UNL     1       1.671   3.932  20.154  0.00  0.00    +0.000 A 
ATOM     22  C   UNL     1       2.614   4.475  19.272  0.00  0.00    +0.000 A 
BRANCH  17  24
ATOM     23  C   UNL     1       4.729   3.744  16.837  0.00  0.00    +0.000 C 
ATOM     24  O   UNL     1       3.525   4.471  17.078  0.00  0.00    +0.000 OA
ENDBRANCH  17  24
ENDBRANCH  16  22
ENDBRANCH   1  16
TORSDOF 5
ENDMDL
