MODEL 1
REMARK VINA RESULT:      -9.2      0.000      0.000
REMARK  Name = 
REMARK  8 active torsions:
REMARK  status: ('A' for Active; 'I' for Inactive)
REMARK    1  A    between atoms: O_1  and  C_2
REMARK    2  A    between atoms: C_2  and  C_3
REMARK    3  A    between atoms: C_3  and  O_4
REMARK    4  A    between atoms: C_3  and  C_5
REMARK    5  A    between atoms: C_5  and  N_6
REMARK    6  A    between atoms: C_9  and  C_10
REMARK    7  A    between atoms: C_13  and  O_14
REMARK    8  A    between atoms: O_14  and  C_15
REMARK                            x       y       z     vdW  Elec       q    Type
REMARK                         _______ _______ _______ _____ _____    ______ ____
ROOT
ATOM      1  N   UNL     1       6.721   5.718  17.140  0.00  0.00    +0.000 N 
ATOM      2  C   UNL     1       5.408   5.440  17.465  0.00  0.00    +0.000 A 
ATOM      3  N   UNL     1       4.628   6.481  17.770  0.00  0.00    +0.000 NA
ATOM      4  C   UNL     1       3.341   6.233  18.116  0.00  0.00    +0.000 A 
ATOM      5  C   UNL     1       2.800   4.925  18.100  0.00  0.00    +0.000 A 
ATOM      6  C   UNL     1       1.447   4.540  18.338  0.00  0.00    +0.000 A 
ATOM      7  C   UNL     1       1.071   3.201  18.419  0.00  0.00    +0.000 A 
ATOM      8  C   UNL     1       2.022   2.221  18.201  0.00  0.00    +0.000 A 
ATOM      9  C   UNL     1       3.328   2.592  17.876  0.00  0.00    +0.000 A 
ATOM     10  C   UNL     1       3.727   3.922  17.815  0.00  0.00    +0.000 A 
ATOM     11  N   UNL     1       4.994   4.170  17.492  0.00  0.00    +0.000 NA
ATOM     12  H   UNL     1       6.782   6.700  16.891  0.00  0.00    +0.000 HD
ENDROOT
BRANCH   4  13
ATOM     13  C   UNL     1       2.582   7.441  18.549  0.00  0.00    +0.000 A 
ATOM     14  C   UNL     1       2.383   8.539  17.691  0.00  0.00    +0.000 A 
ATOM     15  C   UNL     1       1.577   9.627  18.066  0.00  0.00    +0.000 A 
ATOM     16  C   UNL     1       0.937   9.633  19.305  0.00  0.00    +0.000 A 
ATOM     17  C   UNL     1       1.223   8.625  20.219  0.00  0.00    +0.000 A 
ATOM     18  C   UNL     1       2.048   7.558  19.847  0.00  0.00    +0.000 A 
BRANCH  16  19
ATOM     19  O   UNL     1       0.097  10.690  19.572  0.00  0.00    +0.000 OA
BRANCH  19  20
ATOM     20  C   UNL     1      -1.103  10.789  18.898  0.00  0.00    +0.000 A 
ATOM     21  C   UNL     1      -1.289   9.889  17.844  0.00  0.00    +0.000 A 
ATOM     22  C   UNL     1      -2.476   9.904  17.108  0.00  0.00    +0.000 A 
ATOM     23  C   UNL     1      -3.471  10.820  17.431  0.00  0.00    +0.000 A 
ATOM     24  F   UNL     1      -4.603  10.846  16.715  0.00  0.00    +0.000 F 
ATOM     25  C   UNL     1      -3.312  11.703  18.492  0.00  0.00    +0.000 A 
ATOM     26  C   UNL     1      -2.135  11.672  19.245  0.00  0.00    +0.000 A 
ENDBRANCH  19  20
ENDBRANCH  16  19
ENDBRANCH   4  13
BRANCH   1  27
ATOM     27  C   UNL     1       7.371   4.815  16.189  0.00  0.00    +0.000 C 
BRANCH  27  28
ATOM     28  C   UNL     1       6.995   5.187  14.742  0.00  0.00    +0.000 C 
BRANCH  28  29
ATOM     29  O   UNL     1       8.194   5.532  14.022  0.00  0.00    +0.000 OA
ATOM     30  H   UNL     1       8.565   4.679  13.717  0.00  0.00    +0.000 HD
ENDBRANCH  28  29
BRANCH  28  31
ATOM     31  C   UNL     1       6.300   4.033  14.011  0.00  0.00    +0.000 C 
BRANCH  31  32
ATOM     32  O   UNL     1       5.949   3.005  14.937  0.00  0.00    +0.000 OA
ATOM     33  H   UNL     1       6.546   3.100  15.702  0.00  0.00    +0.000 HD
ENDBRANCH  31  32
ENDBRANCH  28  31
ENDBRANCH  27  28
ENDBRANCH   1  27
TORSDOF 8
ENDMDL
MODEL 2
REMARK VINA RESULT:      -9.1      0.880      1.244
REMARK  Name = 
REMARK  8 active torsions:
REMARK  status: ('A' for Active; 'I' for Inactive)
REMARK    1  A    between atoms: O_1  and  C_2
REMARK    2  A    between atoms: C_2  and  C_3
REMARK    3  A    between atoms: C_3  and  O_4
REMARK    4  A    between atoms: C_3  and  C_5
REMARK    5  A    between atoms: C_5  and  N_6
REMARK    6  A    between atoms: C_9  and  C_10
REMARK    7  A    between atoms: C_13  and  O_14
REMARK    8  A    between atoms: O_14  and  C_15
REMARK                            x       y       z     vdW  Elec       q    Type
REMARK                         _______ _______ _______ _____ _____    ______ ____
ROOT
ATOM      1  N   UNL     1       6.394   5.838  17.505  0.00  0.00    +0.000 N 
ATOM      2  C   UNL     1       5.144   5.588  18.036  0.00  0.00    +0.000 A 
ATOM      3  N   UNL     1       4.329   6.637  18.182  0.00  0.00    +0.000 NA
ATOM      4  C   UNL     1       3.104   6.422  18.723  0.00  0.00    +0.000 A 
ATOM      5  C   UNL     1       2.656   5.126  19.072  0.00  0.00    +0.000 A 
ATOM      6  C   UNL     1       1.365   4.750  19.547  0.00  0.00    +0.000 A 
ATOM      7  C   UNL     1       1.093   3.453  19.978  0.00  0.00    +0.000 A 
ATOM      8  C   UNL     1       2.082   2.490  19.882  0.00  0.00    +0.000 A 
ATOM      9  C   UNL     1       3.319   2.831  19.330  0.00  0.00    +0.000 A 
ATOM     10  C   UNL     1       3.617   4.125  18.919  0.00  0.00    +0.000 A 
ATOM     11  N   UNL     1       4.823   4.344  18.402  0.00  0.00    +0.000 NA
ATOM     12  H   UNL     1       6.360   6.736  17.031  0.00  0.00    +0.000 HD
ENDROOT
BRANCH   4  13
ATOM     13  C   UNL     1       2.312   7.665  18.952  0.00  0.00    +0.000 A 
ATOM     14  C   UNL     1       2.114   8.616  17.934  0.00  0.00    +0.000 A 
ATOM     15  C   UNL     1       1.279   9.730  18.124  0.00  0.00    +0.000 A 
ATOM     16  C   UNL     1       0.607   9.907  19.333  0.00  0.00    +0.000 A 
ATOM     17  C   UNL     1       0.890   9.055  20.394  0.00  0.00    +0.000 A 
ATOM     18  C   UNL     1       1.744   7.964  20.206  0.00  0.00    +0.000 A 
BRANCH  16  19
ATOM     19  O   UNL     1      -0.259  10.974  19.419  0.00  0.00    +0.000 OA
BRANCH  19  20
ATOM     20  C   UNL     1      -1.509  10.879  18.842  0.00  0.00    +0.000 A 
ATOM     21  C   UNL     1      -2.431  11.863  19.214  0.00  0.00    +0.000 A 
ATOM     22  C   UNL     1      -3.719  11.858  18.675  0.00  0.00    +0.000 A 
ATOM     23  C   UNL     1      -4.079  10.868  17.766  0.00  0.00    +0.000 A 
ATOM     24  F   UNL     1      -5.319  10.854  17.262  0.00  0.00    +0.000 F 
ATOM     25  C   UNL     1      -3.166   9.901  17.366  0.00  0.00    +0.000 A 
ATOM     26  C   UNL     1      -1.869   9.919  17.886  0.00  0.00    +0.000 A 
ENDBRANCH  19  20
ENDBRANCH  16  19
ENDBRANCH   4  13
BRANCH   1  27
ATOM     27  C   UNL     1       7.003   4.765  16.718  0.00  0.00    +0.000 C 
BRANCH  27  28
ATOM     28  C   UNL     1       6.643   4.913  15.227  0.00  0.00    +0.000 C 
BRANCH  28  29
ATOM     29  O   UNL     1       7.826   5.291  14.497  0.00  0.00    +0.000 OA
ATOM     30  H   UNL     1       8.041   4.518  13.937  0.00  0.00    +0.000 HD
ENDBRANCH  28  29
BRANCH  28  31
ATOM     31  C   UNL     1       6.097   3.610  14.633  0.00  0.00    +0.000 C 
BRANCH  31  32
ATOM     32  O   UNL     1       6.446   3.517  13.251  0.00  0.00    +0.000 OA
ATOM     33  H   UNL     1       6.203   2.619  12.960  0.00  0.00    +0.000 HD
ENDBRANCH  31  32
ENDBRANCH  28  31
ENDBRANCH  27  28
ENDBRANCH   1  27
TORSDOF 8
ENDMDL
MODEL 3
REMARK VINA RESULT:      -9.0      2.189      2.876
REMARK  Name = 
REMARK  8 active torsions:
REMARK  status: ('A' for Active; 'I' for Inactive)
REMARK    1  A    between atoms: O_1  and  C_2
REMARK    2  A    between atoms: C_2  and  C_3
REMARK    3  A    between atoms: C_3  and  O_4
REMARK    4  A    between atoms: C_3  and  C_5
REMARK    5  A    between atoms: C_5  and  N_6
REMARK    6  A    between atoms: C_9  and  C_10
REMARK    7  A    between atoms: C_13  and  O_14
REMARK    8  A    between atoms: O_14  and  C_15
REMARK                            x       y       z     vdW  Elec       q    Type
REMARK                         _______ _______ _______ _____ _____    ______ ____
ROOT
ATOM      1  N   UNL     1       5.088   6.172  16.775  0.00  0.00    +0.000 N 
ATOM      2  C   UNL     1       4.114   5.863  17.703  0.00  0.00    +0.000 A 
ATOM      3  N   UNL     1       3.451   6.888  18.246  0.00  0.00    +0.000 NA
ATOM      4  C   UNL     1       2.505   6.613  19.178  0.00  0.00    +0.000 A 
ATOM      5  C   UNL     1       2.167   5.285  19.534  0.00  0.00    +0.000 A 
ATOM      6  C   UNL     1       1.130   4.857  20.413  0.00  0.00    +0.000 A 
ATOM      7  C   UNL     1       0.986   3.521  20.779  0.00  0.00    +0.000 A 
ATOM      8  C   UNL     1       1.832   2.576  20.226  0.00  0.00    +0.000 A 
ATOM      9  C   UNL     1       2.790   2.977  19.293  0.00  0.00    +0.000 A 
ATOM     10  C   UNL     1       2.965   4.309  18.935  0.00  0.00    +0.000 A 
ATOM     11  N   UNL     1       3.903   4.586  18.033  0.00  0.00    +0.000 NA
ATOM     12  H   UNL     1       4.917   7.116  16.441  0.00  0.00    +0.000 HD
ENDROOT
BRANCH   4  13
ATOM     13  C   UNL     1       1.902   7.822  19.810  0.00  0.00    +0.000 A 
ATOM     14  C   UNL     1       1.692   7.906  21.199  0.00  0.00    +0.000 A 
ATOM     15  C   UNL     1       1.224   9.087  21.800  0.00  0.00    +0.000 A 
ATOM     16  C   UNL     1       0.972  10.218  21.024  0.00  0.00    +0.000 A 
ATOM     17  C   UNL     1       1.046  10.118  19.640  0.00  0.00    +0.000 A 
ATOM     18  C   UNL     1       1.487   8.930  19.047  0.00  0.00    +0.000 A 
BRANCH  16  19
ATOM     19  O   UNL     1       0.597  11.364  21.689  0.00  0.00    +0.000 OA
BRANCH  19  20
ATOM     20  C   UNL     1      -0.731  11.738  21.697  0.00  0.00    +0.000 A 
ATOM     21  C   UNL     1      -1.369  11.708  22.942  0.00  0.00    +0.000 A 
ATOM     22  C   UNL     1      -2.710  12.080  23.054  0.00  0.00    +0.000 A 
ATOM     23  C   UNL     1      -3.408  12.479  21.919  0.00  0.00    +0.000 A 
ATOM     24  F   UNL     1      -4.699  12.820  22.024  0.00  0.00    +0.000 F 
ATOM     25  C   UNL     1      -2.781  12.540  20.680  0.00  0.00    +0.000 A 
ATOM     26  C   UNL     1      -1.432  12.192  20.571  0.00  0.00    +0.000 A 
ENDBRANCH  19  20
ENDBRANCH  16  19
ENDBRANCH   4  13
BRANCH   1  27
ATOM     27  C   UNL     1       5.323   5.192  15.713  0.00  0.00    +0.000 C 
BRANCH  27  28
ATOM     28  C   UNL     1       6.765   4.654  15.778  0.00  0.00    +0.000 C 
BRANCH  28  29
ATOM     29  O   UNL     1       7.538   5.264  14.727  0.00  0.00    +0.000 OA
ATOM     30  H   UNL     1       8.191   4.585  14.461  0.00  0.00    +0.000 HD
ENDBRANCH  28  29
BRANCH  28  31
ATOM     31  C   UNL     1       7.436   4.960  17.121  0.00  0.00    +0.000 C 
BRANCH  31  32
ATOM     32  O   UNL     1       6.951   4.070  18.127  0.00  0.00    +0.000 OA
ATOM     33  H   UNL     1       6.865   3.194  17.709  0.00  0.00    +0.000 HD
ENDBRANCH  31  32
ENDBRANCH  28  31
ENDBRANCH  27  28
ENDBRANCH   1  27
TORSDOF 8
ENDMDL
MODEL 4
REMARK VINA RESULT:      -8.9      1.460      2.042
REMARK  Name = 
REMARK  8 active torsions:
REMARK  status: ('A' for Active; 'I' for Inactive)
REMARK    1  A    between atoms: O_1  and  C_2
REMARK    2  A    between atoms: C_2  and  C_3
REMARK    3  A    between atoms: C_3  and  O_4
REMARK    4  A    between atoms: C_3  and  C_5
REMARK    5  A    between atoms: C_5  and  N_6
REMARK    6  A    between atoms: C_9  and  C_10
REMARK    7  A    between atoms: C_13  and  O_14
REMARK    8  A    between atoms: O_14  and  C_15
REMARK                            x       y       z     vdW  Elec       q    Type
REMARK                         _______ _______ _______ _____ _____    ______ ____
ROOT
ATOM      1  N   UNL     1       6.518   5.570  18.290  0.00  0.00    +0.000 N 
ATOM      2  C   UNL     1       5.239   5.361  18.766  0.00  0.00    +0.000 A 
ATOM      3  N   UNL     1       4.387   6.387  18.681  0.00  0.00    +0.000 NA
ATOM      4  C   UNL     1       3.132   6.214  19.164  0.00  0.00    +0.000 A 
ATOM      5  C   UNL     1       2.694   4.974  19.687  0.00  0.00    +0.000 A 
ATOM      6  C   UNL     1       1.382   4.630  20.127  0.00  0.00    +0.000 A 
ATOM      7  C   UNL     1       1.114   3.410  20.744  0.00  0.00    +0.000 A 
ATOM      8  C   UNL     1       2.133   2.484  20.876  0.00  0.00    +0.000 A 
ATOM      9  C   UNL     1       3.398   2.779  20.363  0.00  0.00    +0.000 A 
ATOM     10  C   UNL     1       3.690   4.000  19.768  0.00  0.00    +0.000 A 
ATOM     11  N   UNL     1       4.926   4.180  19.307  0.00  0.00    +0.000 NA
ATOM     12  H   UNL     1       6.496   6.378  17.674  0.00  0.00    +0.000 HD
ENDROOT
BRANCH   4  13
ATOM     13  C   UNL     1       2.292   7.446  19.131  0.00  0.00    +0.000 A 
ATOM     14  C   UNL     1       1.656   7.942  20.285  0.00  0.00    +0.000 A 
ATOM     15  C   UNL     1       0.956   9.159  20.271  0.00  0.00    +0.000 A 
ATOM     16  C   UNL     1       0.890   9.919  19.104  0.00  0.00    +0.000 A 
ATOM     17  C   UNL     1       1.395   9.388  17.923  0.00  0.00    +0.000 A 
ATOM     18  C   UNL     1       2.068   8.162  17.939  0.00  0.00    +0.000 A 
BRANCH  16  19
ATOM     19  O   UNL     1       0.260  11.140  19.185  0.00  0.00    +0.000 OA
BRANCH  19  20
ATOM     20  C   UNL     1      -1.091  11.225  18.915  0.00  0.00    +0.000 A 
ATOM     21  C   UNL     1      -1.819  12.120  19.705  0.00  0.00    +0.000 A 
ATOM     22  C   UNL     1      -3.190  12.284  19.499  0.00  0.00    +0.000 A 
ATOM     23  C   UNL     1      -3.827  11.549  18.504  0.00  0.00    +0.000 A 
ATOM     24  F   UNL     1      -5.146  11.694  18.318  0.00  0.00    +0.000 F 
ATOM     25  C   UNL     1      -3.113  10.676  17.694  0.00  0.00    +0.000 A 
ATOM     26  C   UNL     1      -1.736  10.530  17.882  0.00  0.00    +0.000 A 
ENDBRANCH  19  20
ENDBRANCH  16  19
ENDBRANCH   4  13
BRANCH   1  27
ATOM     27  C   UNL     1       7.213   4.409  17.733  0.00  0.00    +0.000 C 
BRANCH  27  28
ATOM     28  C   UNL     1       7.003   4.328  16.209  0.00  0.00    +0.000 C 
BRANCH  28  29
ATOM     29  O   UNL     1       5.939   3.397  15.933  0.00  0.00    +0.000 OA
ATOM     30  H   UNL     1       5.143   3.949  15.798  0.00  0.00    +0.000 HD
ENDBRANCH  28  29
BRANCH  28  31
ATOM     31  C   UNL     1       6.633   5.687  15.604  0.00  0.00    +0.000 C 
BRANCH  31  32
ATOM     32  O   UNL     1       5.213   5.830  15.550  0.00  0.00    +0.000 OA
ATOM     33  H   UNL     1       5.014   6.355  14.753  0.00  0.00    +0.000 HD
ENDBRANCH  31  32
ENDBRANCH  28  31
ENDBRANCH  27  28
ENDBRANCH   1  27
TORSDOF 8
ENDMDL
MODEL 5
REMARK VINA RESULT:      -8.9      2.064      2.493
REMARK  Name = 
REMARK  8 active torsions:
REMARK  status: ('A' for Active; 'I' for Inactive)
REMARK    1  A    between atoms: O_1  and  C_2
REMARK    2  A    between atoms: C_2  and  C_3
REMARK    3  A    between atoms: C_3  and  O_4
REMARK    4  A    between atoms: C_3  and  C_5
REMARK    5  A    between atoms: C_5  and  N_6
REMARK    6  A    between atoms: C_9  and  C_10
REMARK    7  A    between atoms: C_13  and  O_14
REMARK    8  A    between atoms: O_14  and  C_15
REMARK                            x       y       z     vdW  Elec       q    Type
REMARK                         _______ _______ _______ _____ _____    ______ ____
ROOT
ATOM      1  N   UNL     1       6.640   5.544  17.255  0.00  0.00    +0.000 N 
ATOM      2  C   UNL     1       5.343   5.252  17.627  0.00  0.00    +0.000 A 
ATOM      3  N   UNL     1       4.555   6.286  17.933  0.00  0.00    +0.000 NA
ATOM      4  C   UNL     1       3.283   6.024  18.325  0.00  0.00    +0.000 A 
ATOM      5  C   UNL     1       2.764   4.708  18.354  0.00  0.00    +0.000 A 
ATOM      6  C   UNL     1       1.426   4.306  18.642  0.00  0.00    +0.000 A 
ATOM      7  C   UNL     1       1.075   2.964  18.763  0.00  0.00    +0.000 A 
ATOM      8  C   UNL     1       2.036   1.994  18.536  0.00  0.00    +0.000 A 
ATOM      9  C   UNL     1       3.325   2.379  18.162  0.00  0.00    +0.000 A 
ATOM     10  C   UNL     1       3.699   3.714  18.061  0.00  0.00    +0.000 A 
ATOM     11  N   UNL     1       4.951   3.976  17.693  0.00  0.00    +0.000 NA
ATOM     12  H   UNL     1       6.677   6.522  16.983  0.00  0.00    +0.000 HD
ENDROOT
BRANCH   4  13
ATOM     13  C   UNL     1       2.518   7.229  18.756  0.00  0.00    +0.000 A 
ATOM     14  C   UNL     1       2.236   8.286  17.870  0.00  0.00    +0.000 A 
ATOM     15  C   UNL     1       1.424   9.367  18.251  0.00  0.00    +0.000 A 
ATOM     16  C   UNL     1       0.860   9.406  19.526  0.00  0.00    +0.000 A 
ATOM     17  C   UNL     1       1.229   8.444  20.459  0.00  0.00    +0.000 A 
ATOM     18  C   UNL     1       2.060   7.385  20.079  0.00  0.00    +0.000 A 
BRANCH  16  19
ATOM     19  O   UNL     1       0.007  10.452  19.802  0.00  0.00    +0.000 OA
BRANCH  19  20
ATOM     20  C   UNL     1       0.406  11.743  19.523  0.00  0.00    +0.000 A 
ATOM     21  C   UNL     1      -0.509  12.527  18.815  0.00  0.00    +0.000 A 
ATOM     22  C   UNL     1      -0.201  13.851  18.495  0.00  0.00    +0.000 A 
ATOM     23  C   UNL     1       1.024  14.383  18.885  0.00  0.00    +0.000 A 
ATOM     24  F   UNL     1       1.326  15.648  18.564  0.00  0.00    +0.000 F 
ATOM     25  C   UNL     1       1.933  13.625  19.612  0.00  0.00    +0.000 A 
ATOM     26  C   UNL     1       1.615  12.308  19.954  0.00  0.00    +0.000 A 
ENDBRANCH  19  20
ENDBRANCH  16  19
ENDBRANCH   4  13
BRANCH   1  27
ATOM     27  C   UNL     1       7.275   4.631  16.303  0.00  0.00    +0.000 C 
BRANCH  27  28
ATOM     28  C   UNL     1       6.853   4.970  14.860  0.00  0.00    +0.000 C 
BRANCH  28  29
ATOM     29  O   UNL     1       8.021   5.357  14.111  0.00  0.00    +0.000 OA
ATOM     30  H   UNL     1       8.384   4.523  13.752  0.00  0.00    +0.000 HD
ENDBRANCH  28  29
BRANCH  28  31
ATOM     31  C   UNL     1       6.193   3.779  14.156  0.00  0.00    +0.000 C 
BRANCH  31  32
ATOM     32  O   UNL     1       6.721   3.634  12.838  0.00  0.00    +0.000 OA
ATOM     33  H   UNL     1       6.010   3.885  12.220  0.00  0.00    +0.000 HD
ENDBRANCH  31  32
ENDBRANCH  28  31
ENDBRANCH  27  28
ENDBRANCH   1  27
TORSDOF 8
ENDMDL
MODEL 6
REMARK VINA RESULT:      -8.8      0.690      1.167
REMARK  Name = 
REMARK  8 active torsions:
REMARK  status: ('A' for Active; 'I' for Inactive)
REMARK    1  A    between atoms: O_1  and  C_2
REMARK    2  A    between atoms: C_2  and  C_3
REMARK    3  A    between atoms: C_3  and  O_4
REMARK    4  A    between atoms: C_3  and  C_5
REMARK    5  A    between atoms: C_5  and  N_6
REMARK    6  A    between atoms: C_9  and  C_10
REMARK    7  A    between atoms: C_13  and  O_14
REMARK    8  A    between atoms: O_14  and  C_15
REMARK                            x       y       z     vdW  Elec       q    Type
REMARK                         _______ _______ _______ _____ _____    ______ ____
ROOT
ATOM      1  N   UNL     1       6.664   5.635  17.236  0.00  0.00    +0.000 N 
ATOM      2  C   UNL     1       5.364   5.316  17.574  0.00  0.00    +0.000 A 
ATOM      3  N   UNL     1       4.549   6.334  17.865  0.00  0.00    +0.000 NA
ATOM      4  C   UNL     1       3.273   6.046  18.223  0.00  0.00    +0.000 A 
ATOM      5  C   UNL     1       2.779   4.720  18.233  0.00  0.00    +0.000 A 
ATOM      6  C   UNL     1       1.442   4.291  18.485  0.00  0.00    +0.000 A 
ATOM      7  C   UNL     1       1.114   2.941  18.592  0.00  0.00    +0.000 A 
ATOM      8  C   UNL     1       2.098   1.991  18.385  0.00  0.00    +0.000 A 
ATOM      9  C   UNL     1       3.389   2.404  18.045  0.00  0.00    +0.000 A 
ATOM     10  C   UNL     1       3.740   3.746  17.960  0.00  0.00    +0.000 A 
ATOM     11  N   UNL     1       4.995   4.033  17.625  0.00  0.00    +0.000 NA
ATOM     12  H   UNL     1       6.689   6.615  16.970  0.00  0.00    +0.000 HD
ENDROOT
BRANCH   4  13
ATOM     13  C   UNL     1       2.474   7.234  18.641  0.00  0.00    +0.000 A 
ATOM     14  C   UNL     1       1.978   7.372  19.951  0.00  0.00    +0.000 A 
ATOM     15  C   UNL     1       1.319   8.541  20.367  0.00  0.00    +0.000 A 
ATOM     16  C   UNL     1       1.158   9.608  19.484  0.00  0.00    +0.000 A 
ATOM     17  C   UNL     1       1.520   9.445  18.152  0.00  0.00    +0.000 A 
ATOM     18  C   UNL     1       2.151   8.267  17.739  0.00  0.00    +0.000 A 
BRANCH  16  19
ATOM     19  O   UNL     1       0.578  10.753  19.984  0.00  0.00    +0.000 OA
BRANCH  19  20
ATOM     20  C   UNL     1      -0.695  11.099  19.581  0.00  0.00    +0.000 A 
ATOM     21  C   UNL     1      -1.219  10.368  18.509  0.00  0.00    +0.000 A 
ATOM     22  C   UNL     1      -2.505  10.637  18.037  0.00  0.00    +0.000 A 
ATOM     23  C   UNL     1      -3.261  11.637  18.639  0.00  0.00    +0.000 A 
ATOM     24  F   UNL     1      -4.489  11.906  18.175  0.00  0.00    +0.000 F 
ATOM     25  C   UNL     1      -2.766  12.353  19.722  0.00  0.00    +0.000 A 
ATOM     26  C   UNL     1      -1.489  12.068  20.211  0.00  0.00    +0.000 A 
ENDBRANCH  19  20
ENDBRANCH  16  19
ENDBRANCH   4  13
BRANCH   1  27
ATOM     27  C   UNL     1       7.340   4.740  16.297  0.00  0.00    +0.000 C 
BRANCH  27  28
ATOM     28  C   UNL     1       6.856   4.996  14.857  0.00  0.00    +0.000 C 
BRANCH  28  29
ATOM     29  O   UNL     1       7.959   5.492  14.075  0.00  0.00    +0.000 OA
ATOM     30  H   UNL     1       8.561   4.728  13.964  0.00  0.00    +0.000 HD
ENDBRANCH  28  29
BRANCH  28  31
ATOM     31  C   UNL     1       6.319   3.724  14.193  0.00  0.00    +0.000 C 
BRANCH  31  32
ATOM     32  O   UNL     1       5.257   4.050  13.294  0.00  0.00    +0.000 OA
ATOM     33  H   UNL     1       4.758   3.227  13.139  0.00  0.00    +0.000 HD
ENDBRANCH  31  32
ENDBRANCH  28  31
ENDBRANCH  27  28
ENDBRANCH   1  27
TORSDOF 8
ENDMDL
MODEL 7
REMARK VINA RESULT:      -8.8      1.189      1.538
REMARK  Name = 
REMARK  8 active torsions:
REMARK  status: ('A' for Active; 'I' for Inactive)
REMARK    1  A    between atoms: O_1  and  C_2
REMARK    2  A    between atoms: C_2  and  C_3
REMARK    3  A    between atoms: C_3  and  O_4
REMARK    4  A    between atoms: C_3  and  C_5
REMARK    5  A    between atoms: C_5  and  N_6
REMARK    6  A    between atoms: C_9  and  C_10
REMARK    7  A    between atoms: C_13  and  O_14
REMARK    8  A    between atoms: O_14  and  C_15
REMARK                            x       y       z     vdW  Elec       q    Type
REMARK                         _______ _______ _______ _____ _____    ______ ____
ROOT
ATOM      1  N   UNL     1       6.642   5.425  18.611  0.00  0.00    +0.000 N 
ATOM      2  C   UNL     1       5.298   5.211  18.846  0.00  0.00    +0.000 A 
ATOM      3  N   UNL     1       4.515   6.292  18.897  0.00  0.00    +0.000 NA
ATOM      4  C   UNL     1       3.195   6.110  19.150  0.00  0.00    +0.000 A 
ATOM      5  C   UNL     1       2.630   4.821  19.295  0.00  0.00    +0.000 A 
ATOM      6  C   UNL     1       1.253   4.487  19.458  0.00  0.00    +0.000 A 
ATOM      7  C   UNL     1       0.842   3.182  19.720  0.00  0.00    +0.000 A 
ATOM      8  C   UNL     1       1.788   2.174  19.760  0.00  0.00    +0.000 A 
ATOM      9  C   UNL     1       3.128   2.480  19.510  0.00  0.00    +0.000 A 
ATOM     10  C   UNL     1       3.559   3.780  19.272  0.00  0.00    +0.000 A 
ATOM     11  N   UNL     1       4.856   3.965  19.039  0.00  0.00    +0.000 NA
ATOM     12  H   UNL     1       6.748   6.353  18.212  0.00  0.00    +0.000 HD
ENDROOT
BRANCH   4  13
ATOM     13  C   UNL     1       2.423   7.378  19.303  0.00  0.00    +0.000 A 
ATOM     14  C   UNL     1       2.340   8.325  18.265  0.00  0.00    +0.000 A 
ATOM     15  C   UNL     1       1.525   9.464  18.374  0.00  0.00    +0.000 A 
ATOM     16  C   UNL     1       0.760   9.672  19.521  0.00  0.00    +0.000 A 
ATOM     17  C   UNL     1       0.926   8.823  20.609  0.00  0.00    +0.000 A 
ATOM     18  C   UNL     1       1.760   7.705  20.501  0.00  0.00    +0.000 A 
BRANCH  16  19
ATOM     19  O   UNL     1      -0.079  10.764  19.525  0.00  0.00    +0.000 OA
BRANCH  19  20
ATOM     20  C   UNL     1      -1.170  10.784  18.681  0.00  0.00    +0.000 A 
ATOM     21  C   UNL     1      -1.156   9.850  17.640  0.00  0.00    +0.000 A 
ATOM     22  C   UNL     1      -2.222   9.784  16.740  0.00  0.00    +0.000 A 
ATOM     23  C   UNL     1      -3.296  10.655  16.886  0.00  0.00    +0.000 A 
ATOM     24  F   UNL     1      -4.311  10.604  16.012  0.00  0.00    +0.000 F 
ATOM     25  C   UNL     1      -3.337  11.570  17.930  0.00  0.00    +0.000 A 
ATOM     26  C   UNL     1      -2.283  11.620  18.846  0.00  0.00    +0.000 A 
ENDBRANCH  19  20
ENDBRANCH  16  19
ENDBRANCH   4  13
BRANCH   1  27
ATOM     27  C   UNL     1       7.361   4.374  17.890  0.00  0.00    +0.000 C 
BRANCH  27  28
ATOM     28  C   UNL     1       7.028   4.421  16.386  0.00  0.00    +0.000 C 
BRANCH  28  29
ATOM     29  O   UNL     1       5.907   3.554  16.130  0.00  0.00    +0.000 OA
ATOM     30  H   UNL     1       5.155   3.957  16.609  0.00  0.00    +0.000 HD
ENDBRANCH  28  29
BRANCH  28  31
ATOM     31  C   UNL     1       6.671   5.835  15.917  0.00  0.00    +0.000 C 
BRANCH  31  32
ATOM     32  O   UNL     1       7.652   6.766  16.374  0.00  0.00    +0.000 OA
ATOM     33  H   UNL     1       7.216   7.332  17.038  0.00  0.00    +0.000 HD
ENDBRANCH  31  32
ENDBRANCH  28  31
ENDBRANCH  27  28
ENDBRANCH   1  27
TORSDOF 8
ENDMDL
MODEL 8
REMARK VINA RESULT:      -8.8      2.327      2.886
REMARK  Name = 
REMARK  8 active torsions:
REMARK  status: ('A' for Active; 'I' for Inactive)
REMARK    1  A    between atoms: O_1  and  C_2
REMARK    2  A    between atoms: C_2  and  C_3
REMARK    3  A    between atoms: C_3  and  O_4
REMARK    4  A    between atoms: C_3  and  C_5
REMARK    5  A    between atoms: C_5  and  N_6
REMARK    6  A    between atoms: C_9  and  C_10
REMARK    7  A    between atoms: C_13  and  O_14
REMARK    8  A    between atoms: O_14  and  C_15
REMARK                            x       y       z     vdW  Elec       q    Type
REMARK                         _______ _______ _______ _____ _____    ______ ____
ROOT
ATOM      1  N   UNL     1       6.612   5.776  17.500  0.00  0.00    +0.000 N 
ATOM      2  C   UNL     1       5.317   5.454  17.856  0.00  0.00    +0.000 A 
ATOM      3  N   UNL     1       4.490   6.471  18.112  0.00  0.00    +0.000 NA
ATOM      4  C   UNL     1       3.220   6.180  18.487  0.00  0.00    +0.000 A 
ATOM      5  C   UNL     1       2.743   4.850  18.549  0.00  0.00    +0.000 A 
ATOM      6  C   UNL     1       1.413   4.414  18.824  0.00  0.00    +0.000 A 
ATOM      7  C   UNL     1       1.103   3.065  18.984  0.00  0.00    +0.000 A 
ATOM      8  C   UNL     1       2.099   2.120  18.809  0.00  0.00    +0.000 A 
ATOM      9  C   UNL     1       3.383   2.536  18.447  0.00  0.00    +0.000 A 
ATOM     10  C   UNL     1       3.716   3.878  18.309  0.00  0.00    +0.000 A 
ATOM     11  N   UNL     1       4.966   4.169  17.957  0.00  0.00    +0.000 NA
ATOM     12  H   UNL     1       6.622   6.745  17.196  0.00  0.00    +0.000 HD
ENDROOT
BRANCH   4  13
ATOM     13  C   UNL     1       2.407   7.373  18.862  0.00  0.00    +0.000 A 
ATOM     14  C   UNL     1       2.023   8.338  17.912  0.00  0.00    +0.000 A 
ATOM     15  C   UNL     1       1.169   9.401  18.250  0.00  0.00    +0.000 A 
ATOM     16  C   UNL     1       0.663   9.512  19.544  0.00  0.00    +0.000 A 
ATOM     17  C   UNL     1       1.131   8.650  20.529  0.00  0.00    +0.000 A 
ATOM     18  C   UNL     1       2.003   7.610  20.190  0.00  0.00    +0.000 A 
BRANCH  16  19
ATOM     19  O   UNL     1      -0.234  10.529  19.782  0.00  0.00    +0.000 OA
BRANCH  19  20
ATOM     20  C   UNL     1       0.206  11.696  20.371  0.00  0.00    +0.000 A 
ATOM     21  C   UNL     1      -0.620  12.229  21.367  0.00  0.00    +0.000 A 
ATOM     22  C   UNL     1      -0.255  13.403  22.029  0.00  0.00    +0.000 A 
ATOM     23  C   UNL     1       0.936  14.038  21.692  0.00  0.00    +0.000 A 
ATOM     24  F   UNL     1       1.278  15.173  22.315  0.00  0.00    +0.000 F 
ATOM     25  C   UNL     1       1.779  13.507  20.724  0.00  0.00    +0.000 A 
ATOM     26  C   UNL     1       1.427  12.319  20.078  0.00  0.00    +0.000 A 
ENDBRANCH  19  20
ENDBRANCH  16  19
ENDBRANCH   4  13
BRANCH   1  27
ATOM     27  C   UNL     1       7.296   4.854  16.591  0.00  0.00    +0.000 C 
BRANCH  27  28
ATOM     28  C   UNL     1       6.874   5.115  15.133  0.00  0.00    +0.000 C 
BRANCH  28  29
ATOM     29  O   UNL     1       8.050   5.406  14.352  0.00  0.00    +0.000 OA
ATOM     30  H   UNL     1       8.796   5.360  14.984  0.00  0.00    +0.000 HD
ENDBRANCH  28  29
BRANCH  28  31
ATOM     31  C   UNL     1       6.162   3.908  14.512  0.00  0.00    +0.000 C 
BRANCH  31  32
ATOM     32  O   UNL     1       5.915   2.917  15.511  0.00  0.00    +0.000 OA
ATOM     33  H   UNL     1       6.270   3.268  16.348  0.00  0.00    +0.000 HD
ENDBRANCH  31  32
ENDBRANCH  28  31
ENDBRANCH  27  28
ENDBRANCH   1  27
TORSDOF 8
ENDMDL
MODEL 9
REMARK VINA RESULT:      -8.8      1.236      1.469
REMARK  Name = 
REMARK  8 active torsions:
REMARK  status: ('A' for Active; 'I' for Inactive)
REMARK    1  A    between atoms: O_1  and  C_2
REMARK    2  A    between atoms: C_2  and  C_3
REMARK    3  A    between atoms: C_3  and  O_4
REMARK    4  A    between atoms: C_3  and  C_5
REMARK    5  A    between atoms: C_5  and  N_6
REMARK    6  A    between atoms: C_9  and  C_10
REMARK    7  A    between atoms: C_13  and  O_14
REMARK    8  A    between atoms: O_14  and  C_15
REMARK                            x       y       z     vdW  Elec       q    Type
REMARK                         _______ _______ _______ _____ _____    ______ ____
ROOT
ATOM      1  N   UNL     1       5.843   5.087  16.833  0.00  0.00    +0.000 N 
ATOM      2  C   UNL     1       4.797   5.071  17.734  0.00  0.00    +0.000 A 
ATOM      3  N   UNL     1       4.080   6.192  17.846  0.00  0.00    +0.000 NA
ATOM      4  C   UNL     1       3.062   6.210  18.742  0.00  0.00    +0.000 A 
ATOM      5  C   UNL     1       2.710   5.068  19.499  0.00  0.00    +0.000 A 
ATOM      6  C   UNL     1       1.607   4.920  20.390  0.00  0.00    +0.000 A 
ATOM      7  C   UNL     1       1.447   3.780  21.176  0.00  0.00    +0.000 A 
ATOM      8  C   UNL     1       2.348   2.739  21.041  0.00  0.00    +0.000 A 
ATOM      9  C   UNL     1       3.377   2.839  20.102  0.00  0.00    +0.000 A 
ATOM     10  C   UNL     1       3.566   3.979  19.328  0.00  0.00    +0.000 A 
ATOM     11  N   UNL     1       4.574   3.972  18.460  0.00  0.00    +0.000 NA
ATOM     12  H   UNL     1       5.690   5.856  16.187  0.00  0.00    +0.000 HD
ENDROOT
BRANCH   4  13
ATOM     13  C   UNL     1       2.394   7.536  18.879  0.00  0.00    +0.000 A 
ATOM     14  C   UNL     1       2.361   8.464  17.821  0.00  0.00    +0.000 A 
ATOM     15  C   UNL     1       1.639   9.665  17.920  0.00  0.00    +0.000 A 
ATOM     16  C   UNL     1       0.917   9.957  19.076  0.00  0.00    +0.000 A 
ATOM     17  C   UNL     1       1.041   9.122  20.180  0.00  0.00    +0.000 A 
ATOM     18  C   UNL     1       1.784   7.941  20.083  0.00  0.00    +0.000 A 
BRANCH  16  19
ATOM     19  O   UNL     1       0.165  11.111  19.072  0.00  0.00    +0.000 OA
BRANCH  19  20
ATOM     20  C   UNL     1      -1.156  11.057  18.677  0.00  0.00    +0.000 A 
ATOM     21  C   UNL     1      -1.469  10.091  17.714  0.00  0.00    +0.000 A 
ATOM     22  C   UNL     1      -2.781   9.952  17.259  0.00  0.00    +0.000 A 
ATOM     23  C   UNL     1      -3.775  10.781  17.768  0.00  0.00    +0.000 A 
ATOM     24  F   UNL     1      -5.031  10.658  17.319  0.00  0.00    +0.000 F 
ATOM     25  C   UNL     1      -3.486  11.726  18.744  0.00  0.00    +0.000 A 
ATOM     26  C   UNL     1      -2.177  11.850  19.218  0.00  0.00    +0.000 A 
ENDBRANCH  19  20
ENDBRANCH  16  19
ENDBRANCH   4  13
BRANCH   1  27
ATOM     27  C   UNL     1       6.177   3.817  16.186  0.00  0.00    +0.000 C 
BRANCH  27  28
ATOM     28  C   UNL     1       6.118   3.955  14.653  0.00  0.00    +0.000 C 
BRANCH  28  29
ATOM     29  O   UNL     1       4.952   4.723  14.298  0.00  0.00    +0.000 OA
ATOM     30  H   UNL     1       5.287   5.619  14.093  0.00  0.00    +0.000 HD
ENDBRANCH  28  29
BRANCH  28  31
ATOM     31  C   UNL     1       7.357   4.658  14.087  0.00  0.00    +0.000 C 
BRANCH  31  32
ATOM     32  O   UNL     1       7.783   5.692  14.975  0.00  0.00    +0.000 OA
ATOM     33  H   UNL     1       8.491   6.182  14.518  0.00  0.00    +0.000 HD
ENDBRANCH  31  32
ENDBRANCH  28  31
ENDBRANCH  27  28
ENDBRANCH   1  27
TORSDOF 8
ENDMDL
