MODEL 1
REMARK VINA RESULT:      -8.7      0.000      0.000
REMARK  Name = 
REMARK  9 active torsions:
REMARK  status: ('A' for Active; 'I' for Inactive)
REMARK    1  A    between atoms: C_2  and  C_14
REMARK    2  A    between atoms: N_3  and  C_4
REMARK    3  A    between atoms: C_4  and  C_5
REMARK    4  A    between atoms: C_16  and  C_17
REMARK    5  A    between atoms: C_21  and  O_22
REMARK    6  A    between atoms: O_22  and  C_23
REMARK    7  A    between atoms: C_23  and  C_24
REMARK    8  A    between atoms: C_27  and  C_28
REMARK    9  A    between atoms: C_28  and  O_29
REMARK                            x       y       z     vdW  Elec       q    Type
REMARK                         _______ _______ _______ _____ _____    ______ ____
ROOT
ATOM      1  C   UNL     1       3.918   5.631  19.334  0.00  0.00    +0.000 C 
ATOM      2  C   UNL     1       3.311   4.807  20.207  0.00  0.00    +0.000 C 
ATOM      3  C   UNL     1       1.970   5.088  20.804  0.00  0.00    +0.000 C 
ATOM      4  C   UNL     1       1.311   6.263  20.085  0.00  0.00    +0.000 C 
ATOM      5  C   UNL     1       2.334   7.352  19.767  0.00  0.00    +0.000 C 
ATOM      6  O   UNL     1       3.390   6.844  18.929  0.00  0.00    +0.000 OA
ENDROOT
BRANCH   1   8
ATOM      7  O   UNL     1       5.791   4.144  19.131  0.00  0.00    +0.000 OA
ATOM      8  C   UNL     1       5.233   5.176  18.767  0.00  0.00    +0.000 C 
ATOM      9  N   UNL     1       5.761   6.010  17.818  0.00  0.00    +0.000 N 
ATOM     10  H   UNL     1       5.338   6.922  17.667  0.00  0.00    +0.000 HD
BRANCH   9  11
ATOM     11  C   UNL     1       7.070   5.740  17.285  0.00  0.00    +0.000 C 
BRANCH  11  12
ATOM     12  C   UNL     1       6.960   5.149  15.927  0.00  0.00    +0.000 A 
ATOM     13  N   UNL     1       6.139   4.190  15.542  0.00  0.00    +0.000 NA
ATOM     14  C   UNL     1       6.338   4.054  14.191  0.00  0.00    +0.000 A 
ATOM     15  C   UNL     1       5.699   3.211  13.270  0.00  0.00    +0.000 A 
ATOM     16  C   UNL     1       6.077   3.278  11.922  0.00  0.00    +0.000 A 
ATOM     17  C   UNL     1       7.073   4.163  11.502  0.00  0.00    +0.000 A 
ATOM     18  C   UNL     1       7.723   5.011  12.407  0.00  0.00    +0.000 A 
ATOM     19  C   UNL     1       7.324   4.926  13.742  0.00  0.00    +0.000 A 
ATOM     20  N   UNL     1       7.719   5.593  14.871  0.00  0.00    +0.000 N 
ATOM     21  H   UNL     1       8.426   6.314  14.914  0.00  0.00    +0.000 HD
ENDBRANCH  11  12
ENDBRANCH   9  11
ENDBRANCH   1   8
BRANCH   3  22
ATOM     22  C   UNL     1       1.028   3.906  20.788  0.00  0.00    +0.000 C 
ATOM     23  C   UNL     1       1.408   2.606  20.126  0.00  0.00    +0.000 C 
ATOM     24  C   UNL     1       1.337   2.689  21.625  0.00  0.00    +0.000 C 
ENDBRANCH   3  22
BRANCH   5  25
ATOM     25  O   UNL     1       1.697   8.440  19.085  0.00  0.00    +0.000 OA
BRANCH  25  26
ATOM     26  C   UNL     1       1.021   9.335  19.962  0.00  0.00    +0.000 C 
BRANCH  26  27
ATOM     27  C   UNL     1      -0.152   9.960  19.254  0.00  0.00    +0.000 A 
ATOM     28  C   UNL     1      -0.536   9.510  17.984  0.00  0.00    +0.000 A 
ATOM     29  C   UNL     1      -1.651  10.059  17.345  0.00  0.00    +0.000 A 
ATOM     30  C   UNL     1      -2.406  11.060  17.968  0.00  0.00    +0.000 A 
ATOM     31  C   UNL     1      -1.995  11.534  19.222  0.00  0.00    +0.000 A 
ATOM     32  C   UNL     1      -0.885  10.983  19.864  0.00  0.00    +0.000 A 
BRANCH  30  33
ATOM     33  C   UNL     1      -3.591  11.658  17.252  0.00  0.00    +0.000 C 
BRANCH  33  34
ATOM     34  O   UNL     1      -4.581  12.124  18.163  0.00  0.00    +0.000 OA
ATOM     35  H   UNL     1      -5.067  11.340  18.472  0.00  0.00    +0.000 HD
ENDBRANCH  33  34
ENDBRANCH  30  33
ENDBRANCH  26  27
ENDBRANCH  25  26
ENDBRANCH   5  25
TORSDOF 9
ENDMDL
MODEL 2
REMARK VINA RESULT:      -8.6      0.224      1.048
REMARK  Name = 
REMARK  9 active torsions:
REMARK  status: ('A' for Active; 'I' for Inactive)
REMARK    1  A    between atoms: C_2  and  C_14
REMARK    2  A    between atoms: N_3  and  C_4
REMARK    3  A    between atoms: C_4  and  C_5
REMARK    4  A    between atoms: C_16  and  C_17
REMARK    5  A    between atoms: C_21  and  O_22
REMARK    6  A    between atoms: O_22  and  C_23
REMARK    7  A    between atoms: C_23  and  C_24
REMARK    8  A    between atoms: C_27  and  C_28
REMARK    9  A    between atoms: C_28  and  O_29
REMARK                            x       y       z     vdW  Elec       q    Type
REMARK                         _______ _______ _______ _____ _____    ______ ____
ROOT
ATOM      1  C   UNL     1       3.923   5.552  19.345  0.00  0.00    +0.000 C 
ATOM      2  C   UNL     1       3.321   4.760  20.251  0.00  0.00    +0.000 C 
ATOM      3  C   UNL     1       1.990   5.070  20.857  0.00  0.00    +0.000 C 
ATOM      4  C   UNL     1       1.331   6.227  20.111  0.00  0.00    +0.000 C 
ATOM      5  C   UNL     1       2.358   7.298  19.747  0.00  0.00    +0.000 C 
ATOM      6  O   UNL     1       3.399   6.756  18.911  0.00  0.00    +0.000 OA
ENDROOT
BRANCH   1   8
ATOM      7  O   UNL     1       5.776   4.039  19.156  0.00  0.00    +0.000 OA
ATOM      8  C   UNL     1       5.226   5.069  18.775  0.00  0.00    +0.000 C 
ATOM      9  N   UNL     1       5.754   5.877  17.804  0.00  0.00    +0.000 N 
ATOM     10  H   UNL     1       5.341   6.790  17.638  0.00  0.00    +0.000 HD
BRANCH   9  11
ATOM     11  C   UNL     1       7.055   5.580  17.265  0.00  0.00    +0.000 C 
BRANCH  11  12
ATOM     12  C   UNL     1       6.942   5.194  15.834  0.00  0.00    +0.000 A 
ATOM     13  N   UNL     1       7.719   5.587  14.842  0.00  0.00    +0.000 NA
ATOM     14  C   UNL     1       7.284   4.897  13.738  0.00  0.00    +0.000 A 
ATOM     15  C   UNL     1       7.780   4.898  12.426  0.00  0.00    +0.000 A 
ATOM     16  C   UNL     1       7.161   4.079  11.472  0.00  0.00    +0.000 A 
ATOM     17  C   UNL     1       6.070   3.278  11.817  0.00  0.00    +0.000 A 
ATOM     18  C   UNL     1       5.559   3.265  13.122  0.00  0.00    +0.000 A 
ATOM     19  C   UNL     1       6.197   4.088  14.052  0.00  0.00    +0.000 A 
ATOM     20  N   UNL     1       5.986   4.315  15.386  0.00  0.00    +0.000 N 
ATOM     21  H   UNL     1       5.269   3.883  15.952  0.00  0.00    +0.000 HD
ENDBRANCH  11  12
ENDBRANCH   9  11
ENDBRANCH   1   8
BRANCH   3  22
ATOM     22  C   UNL     1       1.039   3.895  20.889  0.00  0.00    +0.000 C 
ATOM     23  C   UNL     1       1.343   2.616  20.152  0.00  0.00    +0.000 C 
ATOM     24  C   UNL     1       1.413   2.649  21.654  0.00  0.00    +0.000 C 
ENDBRANCH   3  22
BRANCH   5  25
ATOM     25  O   UNL     1       1.720   8.370  19.040  0.00  0.00    +0.000 OA
BRANCH  25  26
ATOM     26  C   UNL     1       1.240   9.401  19.896  0.00  0.00    +0.000 C 
BRANCH  26  27
ATOM     27  C   UNL     1      -0.021   9.995  19.327  0.00  0.00    +0.000 A 
ATOM     28  C   UNL     1      -0.408   9.713  18.011  0.00  0.00    +0.000 A 
ATOM     29  C   UNL     1      -1.600  10.228  17.496  0.00  0.00    +0.000 A 
ATOM     30  C   UNL     1      -2.431  11.028  18.291  0.00  0.00    +0.000 A 
ATOM     31  C   UNL     1      -2.021  11.340  19.595  0.00  0.00    +0.000 A 
ATOM     32  C   UNL     1      -0.832  10.821  20.112  0.00  0.00    +0.000 A 
BRANCH  30  33
ATOM     33  C   UNL     1      -3.702  11.596  17.710  0.00  0.00    +0.000 C 
BRANCH  33  34
ATOM     34  O   UNL     1      -4.265  12.598  18.548  0.00  0.00    +0.000 OA
ATOM     35  H   UNL     1      -4.527  12.157  19.374  0.00  0.00    +0.000 HD
ENDBRANCH  33  34
ENDBRANCH  30  33
ENDBRANCH  26  27
ENDBRANCH  25  26
ENDBRANCH   5  25
TORSDOF 9
ENDMDL
MODEL 3
REMARK VINA RESULT:      -8.5      1.420      1.870
REMARK  Name = 
REMARK  9 active torsions:
REMARK  status: ('A' for Active; 'I' for Inactive)
REMARK    1  A    between atoms: C_2  and  C_14
REMARK    2  A    between atoms: N_3  and  C_4
REMARK    3  A    between atoms: C_4  and  C_5
REMARK    4  A    between atoms: C_16  and  C_17
REMARK    5  A    between atoms: C_21  and  O_22
REMARK    6  A    between atoms: O_22  and  C_23
REMARK    7  A    between atoms: C_23  and  C_24
REMARK    8  A    between atoms: C_27  and  C_28
REMARK    9  A    between atoms: C_28  and  O_29
REMARK                            x       y       z     vdW  Elec       q    Type
REMARK                         _______ _______ _______ _____ _____    ______ ____
ROOT
ATOM      1  C   UNL     1       3.764   5.222  19.657  0.00  0.00    +0.000 C 
ATOM      2  C   UNL     1       3.276   4.056  20.115  0.00  0.00    +0.000 C 
ATOM      3  C   UNL     1       1.925   3.919  20.741  0.00  0.00    +0.000 C 
ATOM      4  C   UNL     1       1.119   5.200  20.533  0.00  0.00    +0.000 C 
ATOM      5  C   UNL     1       2.003   6.435  20.701  0.00  0.00    +0.000 C 
ATOM      6  O   UNL     1       3.091   6.427  19.756  0.00  0.00    +0.000 OA
ENDROOT
BRANCH   1   8
ATOM      7  O   UNL     1       6.017   4.450  19.366  0.00  0.00    +0.000 OA
ATOM      8  C   UNL     1       5.109   5.185  18.988  0.00  0.00    +0.000 C 
ATOM      9  N   UNL     1       5.240   6.043  17.929  0.00  0.00    +0.000 N 
ATOM     10  H   UNL     1       4.515   6.734  17.757  0.00  0.00    +0.000 HD
BRANCH   9  11
ATOM     11  C   UNL     1       6.518   6.180  17.282  0.00  0.00    +0.000 C 
BRANCH  11  12
ATOM     12  C   UNL     1       6.514   5.460  15.982  0.00  0.00    +0.000 A 
ATOM     13  N   UNL     1       5.599   4.617  15.544  0.00  0.00    +0.000 NA
ATOM     14  C   UNL     1       5.979   4.290  14.266  0.00  0.00    +0.000 A 
ATOM     15  C   UNL     1       5.347   3.465  13.324  0.00  0.00    +0.000 A 
ATOM     16  C   UNL     1       5.939   3.307  12.064  0.00  0.00    +0.000 A 
ATOM     17  C   UNL     1       7.137   3.954  11.750  0.00  0.00    +0.000 A 
ATOM     18  C   UNL     1       7.784   4.779  12.678  0.00  0.00    +0.000 A 
ATOM     19  C   UNL     1       7.170   4.922  13.923  0.00  0.00    +0.000 A 
ATOM     20  N   UNL     1       7.501   5.640  15.042  0.00  0.00    +0.000 N 
ATOM     21  H   UNL     1       8.315   6.230  15.146  0.00  0.00    +0.000 HD
ENDBRANCH  11  12
ENDBRANCH   9  11
ENDBRANCH   1   8
BRANCH   3  22
ATOM     22  C   UNL     1       1.125   2.742  20.232  0.00  0.00    +0.000 C 
ATOM     23  C   UNL     1       0.621   2.689  18.813  0.00  0.00    +0.000 C 
ATOM     24  C   UNL     1       1.745   1.787  19.241  0.00  0.00    +0.000 C 
ENDBRANCH   3  22
BRANCH   5  25
ATOM     25  O   UNL     1       1.230   7.624  20.493  0.00  0.00    +0.000 OA
BRANCH  25  26
ATOM     26  C   UNL     1       1.329   8.553  21.567  0.00  0.00    +0.000 C 
BRANCH  26  27
ATOM     27  C   UNL     1       0.459   9.751  21.291  0.00  0.00    +0.000 A 
ATOM     28  C   UNL     1      -0.328  10.306  22.309  0.00  0.00    +0.000 A 
ATOM     29  C   UNL     1      -1.101  11.444  22.066  0.00  0.00    +0.000 A 
ATOM     30  C   UNL     1      -1.095  12.052  20.804  0.00  0.00    +0.000 A 
ATOM     31  C   UNL     1      -0.337  11.471  19.779  0.00  0.00    +0.000 A 
ATOM     32  C   UNL     1       0.441  10.337  20.021  0.00  0.00    +0.000 A 
BRANCH  30  33
ATOM     33  C   UNL     1      -1.956  13.265  20.555  0.00  0.00    +0.000 C 
BRANCH  33  34
ATOM     34  O   UNL     1      -3.091  12.953  19.755  0.00  0.00    +0.000 OA
ATOM     35  H   UNL     1      -3.846  13.427  20.145  0.00  0.00    +0.000 HD
ENDBRANCH  33  34
ENDBRANCH  30  33
ENDBRANCH  26  27
ENDBRANCH  25  26
ENDBRANCH   5  25
TORSDOF 9
ENDMDL
MODEL 4
REMARK VINA RESULT:      -8.5      2.970      9.171
REMARK  Name = 
REMARK  9 active torsions:
REMARK  status: ('A' for Active; 'I' for Inactive)
REMARK    1  A    between atoms: C_2  and  C_14
REMARK    2  A    between atoms: N_3  and  C_4
REMARK    3  A    between atoms: C_4  and  C_5
REMARK    4  A    between atoms: C_16  and  C_17
REMARK    5  A    between atoms: C_21  and  O_22
REMARK    6  A    between atoms: O_22  and  C_23
REMARK    7  A    between atoms: C_23  and  C_24
REMARK    8  A    between atoms: C_27  and  C_28
REMARK    9  A    between atoms: C_28  and  O_29
REMARK                            x       y       z     vdW  Elec       q    Type
REMARK                         _______ _______ _______ _____ _____    ______ ____
ROOT
ATOM      1  C   UNL     1       1.929   7.227  20.167  0.00  0.00    +0.000 C 
ATOM      2  C   UNL     1       1.475   6.033  20.586  0.00  0.00    +0.000 C 
ATOM      3  C   UNL     1       2.155   4.739  20.271  0.00  0.00    +0.000 C 
ATOM      4  C   UNL     1       3.531   5.004  19.664  0.00  0.00    +0.000 C 
ATOM      5  C   UNL     1       3.482   6.185  18.697  0.00  0.00    +0.000 C 
ATOM      6  O   UNL     1       3.044   7.385  19.364  0.00  0.00    +0.000 OA
ENDROOT
BRANCH   1   8
ATOM      7  O   UNL     1       0.689   8.538  21.749  0.00  0.00    +0.000 OA
ATOM      8  C   UNL     1       1.176   8.444  20.625  0.00  0.00    +0.000 C 
ATOM      9  N   UNL     1       1.071   9.434  19.686  0.00  0.00    +0.000 N 
ATOM     10  H   UNL     1       1.356   9.243  18.729  0.00  0.00    +0.000 HD
BRANCH   9  11
ATOM     11  C   UNL     1       0.275  10.599  19.968  0.00  0.00    +0.000 C 
BRANCH  11  12
ATOM     12  C   UNL     1      -0.812  10.734  18.964  0.00  0.00    +0.000 A 
ATOM     13  N   UNL     1      -0.846  10.204  17.756  0.00  0.00    +0.000 NA
ATOM     14  C   UNL     1      -2.080  10.526  17.246  0.00  0.00    +0.000 A 
ATOM     15  C   UNL     1      -2.662  10.181  16.018  0.00  0.00    +0.000 A 
ATOM     16  C   UNL     1      -3.962  10.626  15.741  0.00  0.00    +0.000 A 
ATOM     17  C   UNL     1      -4.665  11.401  16.667  0.00  0.00    +0.000 A 
ATOM     18  C   UNL     1      -4.099  11.756  17.898  0.00  0.00    +0.000 A 
ATOM     19  C   UNL     1      -2.806  11.296  18.149  0.00  0.00    +0.000 A 
ATOM     20  N   UNL     1      -1.965  11.434  19.222  0.00  0.00    +0.000 N 
ATOM     21  H   UNL     1      -2.173  11.937  20.074  0.00  0.00    +0.000 HD
ENDBRANCH  11  12
ENDBRANCH   9  11
ENDBRANCH   1   8
BRANCH   3  22
ATOM     22  C   UNL     1       2.307   3.817  21.460  0.00  0.00    +0.000 C 
ATOM     23  C   UNL     1       1.363   2.664  21.687  0.00  0.00    +0.000 C 
ATOM     24  C   UNL     1       2.778   2.398  21.252  0.00  0.00    +0.000 C 
ENDBRANCH   3  22
BRANCH   5  25
ATOM     25  O   UNL     1       4.785   6.422  18.146  0.00  0.00    +0.000 OA
BRANCH  25  26
ATOM     26  C   UNL     1       5.588   5.249  18.078  0.00  0.00    +0.000 C 
BRANCH  26  27
ATOM     27  C   UNL     1       5.826   4.871  16.640  0.00  0.00    +0.000 A 
ATOM     28  C   UNL     1       6.884   5.443  15.922  0.00  0.00    +0.000 A 
ATOM     29  C   UNL     1       7.134   5.061  14.602  0.00  0.00    +0.000 A 
ATOM     30  C   UNL     1       6.333   4.095  13.978  0.00  0.00    +0.000 A 
ATOM     31  C   UNL     1       5.251   3.555  14.687  0.00  0.00    +0.000 A 
ATOM     32  C   UNL     1       5.005   3.932  16.009  0.00  0.00    +0.000 A 
BRANCH  30  33
ATOM     33  C   UNL     1       6.602   3.714  12.543  0.00  0.00    +0.000 C 
BRANCH  33  34
ATOM     34  O   UNL     1       5.927   2.515  12.179  0.00  0.00    +0.000 OA
ATOM     35  H   UNL     1       5.004   2.760  11.993  0.00  0.00    +0.000 HD
ENDBRANCH  33  34
ENDBRANCH  30  33
ENDBRANCH  26  27
ENDBRANCH  25  26
ENDBRANCH   5  25
TORSDOF 9
ENDMDL
MODEL 5
REMARK VINA RESULT:      -8.4      1.359      2.040
REMARK  Name = 
REMARK  9 active torsions:
REMARK  status: ('A' for Active; 'I' for Inactive)
REMARK    1  A    between atoms: C_2  and  C_14
REMARK    2  A    between atoms: N_3  and  C_4
REMARK    3  A    between atoms: C_4  and  C_5
REMARK    4  A    between atoms: C_16  and  C_17
REMARK    5  A    between atoms: C_21  and  O_22
REMARK    6  A    between atoms: O_22  and  C_23
REMARK    7  A    between atoms: C_23  and  C_24
REMARK    8  A    between atoms: C_27  and  C_28
REMARK    9  A    between atoms: C_28  and  O_29
REMARK                            x       y       z     vdW  Elec       q    Type
REMARK                         _______ _______ _______ _____ _____    ______ ____
ROOT
ATOM      1  C   UNL     1       3.915   5.633  19.449  0.00  0.00    +0.000 C 
ATOM      2  C   UNL     1       3.356   4.694  20.233  0.00  0.00    +0.000 C 
ATOM      3  C   UNL     1       2.020   4.856  20.884  0.00  0.00    +0.000 C 
ATOM      4  C   UNL     1       1.306   6.081  20.316  0.00  0.00    +0.000 C 
ATOM      5  C   UNL     1       2.284   7.235  20.106  0.00  0.00    +0.000 C 
ATOM      6  O   UNL     1       3.337   6.864  19.195  0.00  0.00    +0.000 OA
ENDROOT
BRANCH   1   8
ATOM      7  O   UNL     1       5.893   4.311  19.134  0.00  0.00    +0.000 OA
ATOM      8  C   UNL     1       5.231   5.293  18.808  0.00  0.00    +0.000 C 
ATOM      9  N   UNL     1       5.634   6.173  17.840  0.00  0.00    +0.000 N 
ATOM     10  H   UNL     1       5.128   7.046  17.719  0.00  0.00    +0.000 HD
BRANCH   9  11
ATOM     11  C   UNL     1       6.931   6.017  17.236  0.00  0.00    +0.000 C 
BRANCH  11  12
ATOM     12  C   UNL     1       6.794   5.481  15.857  0.00  0.00    +0.000 A 
ATOM     13  N   UNL     1       7.667   5.589  14.873  0.00  0.00    +0.000 NA
ATOM     14  C   UNL     1       7.144   4.860  13.834  0.00  0.00    +0.000 A 
ATOM     15  C   UNL     1       7.676   4.600  12.563  0.00  0.00    +0.000 A 
ATOM     16  C   UNL     1       6.942   3.798  11.678  0.00  0.00    +0.000 A 
ATOM     17  C   UNL     1       5.703   3.271  12.050  0.00  0.00    +0.000 A 
ATOM     18  C   UNL     1       5.155   3.522  13.315  0.00  0.00    +0.000 A 
ATOM     19  C   UNL     1       5.910   4.319  14.177  0.00  0.00    +0.000 A 
ATOM     20  N   UNL     1       5.700   4.750  15.460  0.00  0.00    +0.000 N 
ATOM     21  H   UNL     1       4.893   4.538  16.030  0.00  0.00    +0.000 HD
ENDBRANCH  11  12
ENDBRANCH   9  11
ENDBRANCH   1   8
BRANCH   3  22
ATOM     22  C   UNL     1       1.118   3.650  20.750  0.00  0.00    +0.000 C 
ATOM     23  C   UNL     1       1.615   2.359  20.151  0.00  0.00    +0.000 C 
ATOM     24  C   UNL     1       1.345   2.444  21.628  0.00  0.00    +0.000 C 
ENDBRANCH   3  22
BRANCH   5  25
ATOM     25  O   UNL     1       1.595   8.370  19.565  0.00  0.00    +0.000 OA
BRANCH  25  26
ATOM     26  C   UNL     1       0.759   9.025  20.513  0.00  0.00    +0.000 C 
BRANCH  26  27
ATOM     27  C   UNL     1       0.504  10.444  20.080  0.00  0.00    +0.000 A 
ATOM     28  C   UNL     1       1.140  11.509  20.731  0.00  0.00    +0.000 A 
ATOM     29  C   UNL     1       0.939  12.823  20.302  0.00  0.00    +0.000 A 
ATOM     30  C   UNL     1       0.105  13.095  19.209  0.00  0.00    +0.000 A 
ATOM     31  C   UNL     1      -0.560  12.030  18.587  0.00  0.00    +0.000 A 
ATOM     32  C   UNL     1      -0.355  10.715  19.011  0.00  0.00    +0.000 A 
BRANCH  30  33
ATOM     33  C   UNL     1      -0.120  14.523  18.777  0.00  0.00    +0.000 C 
BRANCH  33  34
ATOM     34  O   UNL     1      -1.332  15.050  19.302  0.00  0.00    +0.000 OA
ATOM     35  H   UNL     1      -1.190  16.004  19.428  0.00  0.00    +0.000 HD
ENDBRANCH  33  34
ENDBRANCH  30  33
ENDBRANCH  26  27
ENDBRANCH  25  26
ENDBRANCH   5  25
TORSDOF 9
ENDMDL
MODEL 6
REMARK VINA RESULT:      -8.4      1.468      2.224
REMARK  Name = 
REMARK  9 active torsions:
REMARK  status: ('A' for Active; 'I' for Inactive)
REMARK    1  A    between atoms: C_2  and  C_14
REMARK    2  A    between atoms: N_3  and  C_4
REMARK    3  A    between atoms: C_4  and  C_5
REMARK    4  A    between atoms: C_16  and  C_17
REMARK    5  A    between atoms: C_21  and  O_22
REMARK    6  A    between atoms: O_22  and  C_23
REMARK    7  A    between atoms: C_23  and  C_24
REMARK    8  A    between atoms: C_27  and  C_28
REMARK    9  A    between atoms: C_28  and  O_29
REMARK                            x       y       z     vdW  Elec       q    Type
REMARK                         _______ _______ _______ _____ _____    ______ ____
ROOT
ATOM      1  C   UNL     1       3.805   5.146  19.656  0.00  0.00    +0.000 C 
ATOM      2  C   UNL     1       3.338   3.962  20.090  0.00  0.00    +0.000 C 
ATOM      3  C   UNL     1       1.987   3.788  20.707  0.00  0.00    +0.000 C 
ATOM      4  C   UNL     1       1.157   5.057  20.517  0.00  0.00    +0.000 C 
ATOM      5  C   UNL     1       2.016   6.305  20.712  0.00  0.00    +0.000 C 
ATOM      6  O   UNL     1       3.109   6.335  19.773  0.00  0.00    +0.000 OA
ENDROOT
BRANCH   1   8
ATOM      7  O   UNL     1       6.080   4.436  19.375  0.00  0.00    +0.000 OA
ATOM      8  C   UNL     1       5.154   5.147  18.994  0.00  0.00    +0.000 C 
ATOM      9  N   UNL     1       5.267   6.010  17.937  0.00  0.00    +0.000 N 
ATOM     10  H   UNL     1       4.525   6.682  17.763  0.00  0.00    +0.000 HD
BRANCH   9  11
ATOM     11  C   UNL     1       6.544   6.183  17.297  0.00  0.00    +0.000 C 
BRANCH  11  12
ATOM     12  C   UNL     1       6.517   5.596  15.932  0.00  0.00    +0.000 A 
ATOM     13  N   UNL     1       7.481   5.636  15.032  0.00  0.00    +0.000 NA
ATOM     14  C   UNL     1       7.032   4.881  13.976  0.00  0.00    +0.000 A 
ATOM     15  C   UNL     1       7.670   4.552  12.772  0.00  0.00    +0.000 A 
ATOM     16  C   UNL     1       6.994   3.738  11.853  0.00  0.00    +0.000 A 
ATOM     17  C   UNL     1       5.709   3.265  12.127  0.00  0.00    +0.000 A 
ATOM     18  C   UNL     1       5.055   3.584  13.324  0.00  0.00    +0.000 A 
ATOM     19  C   UNL     1       5.753   4.393  14.222  0.00  0.00    +0.000 A 
ATOM     20  N   UNL     1       5.440   4.883  15.463  0.00  0.00    +0.000 N 
ATOM     21  H   UNL     1       4.577   4.720  15.962  0.00  0.00    +0.000 HD
ENDBRANCH  11  12
ENDBRANCH   9  11
ENDBRANCH   1   8
BRANCH   3  22
ATOM     22  C   UNL     1       1.213   2.605  20.172  0.00  0.00    +0.000 C 
ATOM     23  C   UNL     1       0.587   2.629  18.801  0.00  0.00    +0.000 C 
ATOM     24  C   UNL     1       1.794   1.771  19.057  0.00  0.00    +0.000 C 
ENDBRANCH   3  22
BRANCH   5  25
ATOM     25  O   UNL     1       1.221   7.482  20.521  0.00  0.00    +0.000 OA
BRANCH  25  26
ATOM     26  C   UNL     1       1.480   8.498  21.483  0.00  0.00    +0.000 C 
BRANCH  26  27
ATOM     27  C   UNL     1       0.478   9.612  21.338  0.00  0.00    +0.000 A 
ATOM     28  C   UNL     1      -0.135  10.167  22.470  0.00  0.00    +0.000 A 
ATOM     29  C   UNL     1      -1.031  11.230  22.340  0.00  0.00    +0.000 A 
ATOM     30  C   UNL     1      -1.327  11.763  21.079  0.00  0.00    +0.000 A 
ATOM     31  C   UNL     1      -0.742  11.178  19.947  0.00  0.00    +0.000 A 
ATOM     32  C   UNL     1       0.159  10.119  20.075  0.00  0.00    +0.000 A 
BRANCH  30  33
ATOM     33  C   UNL     1      -2.317  12.894  20.957  0.00  0.00    +0.000 C 
BRANCH  33  34
ATOM     34  O   UNL     1      -2.061  13.701  19.813  0.00  0.00    +0.000 OA
ATOM     35  H   UNL     1      -2.795  14.335  19.749  0.00  0.00    +0.000 HD
ENDBRANCH  33  34
ENDBRANCH  30  33
ENDBRANCH  26  27
ENDBRANCH  25  26
ENDBRANCH   5  25
TORSDOF 9
ENDMDL
MODEL 7
REMARK VINA RESULT:      -8.4      1.510      2.099
REMARK  Name = 
REMARK  9 active torsions:
REMARK  status: ('A' for Active; 'I' for Inactive)
REMARK    1  A    between atoms: C_2  and  C_14
REMARK    2  A    between atoms: N_3  and  C_4
REMARK    3  A    between atoms: C_4  and  C_5
REMARK    4  A    between atoms: C_16  and  C_17
REMARK    5  A    between atoms: C_21  and  O_22
REMARK    6  A    between atoms: O_22  and  C_23
REMARK    7  A    between atoms: C_23  and  C_24
REMARK    8  A    between atoms: C_27  and  C_28
REMARK    9  A    between atoms: C_28  and  O_29
REMARK                            x       y       z     vdW  Elec       q    Type
REMARK                         _______ _______ _______ _____ _____    ______ ____
ROOT
ATOM      1  C   UNL     1       3.775   5.743  18.938  0.00  0.00    +0.000 C 
ATOM      2  C   UNL     1       3.787   4.411  19.122  0.00  0.00    +0.000 C 
ATOM      3  C   UNL     1       2.740   3.681  19.902  0.00  0.00    +0.000 C 
ATOM      4  C   UNL     1       1.566   4.610  20.201  0.00  0.00    +0.000 C 
ATOM      5  C   UNL     1       2.056   6.012  20.560  0.00  0.00    +0.000 C 
ATOM      6  O   UNL     1       2.823   6.585  19.483  0.00  0.00    +0.000 OA
ENDROOT
BRANCH   1   8
ATOM      7  O   UNL     1       4.687   7.320  17.376  0.00  0.00    +0.000 OA
ATOM      8  C   UNL     1       4.857   6.322  18.070  0.00  0.00    +0.000 C 
ATOM      9  N   UNL     1       6.043   5.640  18.112  0.00  0.00    +0.000 N 
ATOM     10  H   UNL     1       6.082   4.739  18.580  0.00  0.00    +0.000 HD
BRANCH   9  11
ATOM     11  C   UNL     1       7.117   6.031  17.238  0.00  0.00    +0.000 C 
BRANCH  11  12
ATOM     12  C   UNL     1       6.896   5.481  15.876  0.00  0.00    +0.000 A 
ATOM     13  N   UNL     1       7.716   5.559  14.845  0.00  0.00    +0.000 NA
ATOM     14  C   UNL     1       7.124   4.827  13.846  0.00  0.00    +0.000 A 
ATOM     15  C   UNL     1       7.581   4.540  12.551  0.00  0.00    +0.000 A 
ATOM     16  C   UNL     1       6.786   3.741  11.719  0.00  0.00    +0.000 A 
ATOM     17  C   UNL     1       5.560   3.242  12.165  0.00  0.00    +0.000 A 
ATOM     18  C   UNL     1       5.086   3.520  13.453  0.00  0.00    +0.000 A 
ATOM     19  C   UNL     1       5.900   4.314  14.262  0.00  0.00    +0.000 A 
ATOM     20  N   UNL     1       5.769   4.765  15.549  0.00  0.00    +0.000 N 
ATOM     21  H   UNL     1       4.990   4.576  16.165  0.00  0.00    +0.000 HD
ENDBRANCH  11  12
ENDBRANCH   9  11
ENDBRANCH   1   8
BRANCH   3  22
ATOM     22  C   UNL     1       2.224   2.433  19.222  0.00  0.00    +0.000 C 
ATOM     23  C   UNL     1       2.292   2.267  17.725  0.00  0.00    +0.000 C 
ATOM     24  C   UNL     1       3.198   1.456  18.610  0.00  0.00    +0.000 C 
ENDBRANCH   3  22
BRANCH   5  25
ATOM     25  O   UNL     1       0.939   6.868  20.828  0.00  0.00    +0.000 OA
BRANCH  25  26
ATOM     26  C   UNL     1       1.313   8.121  21.391  0.00  0.00    +0.000 C 
BRANCH  26  27
ATOM     27  C   UNL     1       0.719   9.246  20.585  0.00  0.00    +0.000 A 
ATOM     28  C   UNL     1       1.172   9.502  19.284  0.00  0.00    +0.000 A 
ATOM     29  C   UNL     1       0.591  10.516  18.519  0.00  0.00    +0.000 A 
ATOM     30  C   UNL     1      -0.458  11.287  19.037  0.00  0.00    +0.000 A 
ATOM     31  C   UNL     1      -0.881  11.052  20.353  0.00  0.00    +0.000 A 
ATOM     32  C   UNL     1      -0.305  10.035  21.117  0.00  0.00    +0.000 A 
BRANCH  30  33
ATOM     33  C   UNL     1      -1.055  12.394  18.205  0.00  0.00    +0.000 C 
BRANCH  33  34
ATOM     34  O   UNL     1      -1.702  11.891  17.041  0.00  0.00    +0.000 OA
ATOM     35  H   UNL     1      -1.384  10.981  16.916  0.00  0.00    +0.000 HD
ENDBRANCH  33  34
ENDBRANCH  30  33
ENDBRANCH  26  27
ENDBRANCH  25  26
ENDBRANCH   5  25
TORSDOF 9
ENDMDL
MODEL 8
REMARK VINA RESULT:      -8.4      1.424      1.940
REMARK  Name = 
REMARK  9 active torsions:
REMARK  status: ('A' for Active; 'I' for Inactive)
REMARK    1  A    between atoms: C_2  and  C_14
REMARK    2  A    between atoms: N_3  and  C_4
REMARK    3  A    between atoms: C_4  and  C_5
REMARK    4  A    between atoms: C_16  and  C_17
REMARK    5  A    between atoms: C_21  and  O_22
REMARK    6  A    between atoms: O_22  and  C_23
REMARK    7  A    between atoms: C_23  and  C_24
REMARK    8  A    between atoms: C_27  and  C_28
REMARK    9  A    between atoms: C_28  and  O_29
REMARK                            x       y       z     vdW  Elec       q    Type
REMARK                         _______ _______ _______ _____ _____    ______ ____
ROOT
ATOM      1  C   UNL     1       3.937   5.225  19.403  0.00  0.00    +0.000 C 
ATOM      2  C   UNL     1       3.739   3.915  19.631  0.00  0.00    +0.000 C 
ATOM      3  C   UNL     1       2.508   3.373  20.284  0.00  0.00    +0.000 C 
ATOM      4  C   UNL     1       1.446   4.465  20.390  0.00  0.00    +0.000 C 
ATOM      5  C   UNL     1       2.076   5.805  20.767  0.00  0.00    +0.000 C 
ATOM      6  O   UNL     1       3.049   6.214  19.786  0.00  0.00    +0.000 OA
ENDROOT
BRANCH   1   8
ATOM      7  O   UNL     1       5.366   6.726  18.192  0.00  0.00    +0.000 OA
ATOM      8  C   UNL     1       5.193   5.609  18.673  0.00  0.00    +0.000 C 
ATOM      9  N   UNL     1       6.124   4.609  18.580  0.00  0.00    +0.000 N 
ATOM     10  H   UNL     1       5.868   3.665  18.857  0.00  0.00    +0.000 HD
BRANCH   9  11
ATOM     11  C   UNL     1       7.317   4.820  17.805  0.00  0.00    +0.000 C 
BRANCH  11  12
ATOM     12  C   UNL     1       7.057   4.528  16.371  0.00  0.00    +0.000 A 
ATOM     13  N   UNL     1       6.101   3.764  15.878  0.00  0.00    +0.000 NA
ATOM     14  C   UNL     1       6.204   3.877  14.514  0.00  0.00    +0.000 A 
ATOM     15  C   UNL     1       5.413   3.313  13.503  0.00  0.00    +0.000 A 
ATOM     16  C   UNL     1       5.721   3.603  12.167  0.00  0.00    +0.000 A 
ATOM     17  C   UNL     1       6.795   4.436  11.845  0.00  0.00    +0.000 A 
ATOM     18  C   UNL     1       7.597   5.007  12.841  0.00  0.00    +0.000 A 
ATOM     19  C   UNL     1       7.266   4.704  14.162  0.00  0.00    +0.000 A 
ATOM     20  N   UNL     1       7.806   5.085  15.363  0.00  0.00    +0.000 N 
ATOM     21  H   UNL     1       8.600   5.698  15.485  0.00  0.00    +0.000 HD
ENDBRANCH  11  12
ENDBRANCH   9  11
ENDBRANCH   1   8
BRANCH   3  22
ATOM     22  C   UNL     1       1.915   2.172  19.582  0.00  0.00    +0.000 C 
ATOM     23  C   UNL     1       0.729   2.305  18.662  0.00  0.00    +0.000 C 
ATOM     24  C   UNL     1       2.089   2.015  18.091  0.00  0.00    +0.000 C 
ENDBRANCH   3  22
BRANCH   5  25
ATOM     25  O   UNL     1       1.064   6.817  20.852  0.00  0.00    +0.000 OA
BRANCH  25  26
ATOM     26  C   UNL     1       1.586   8.111  21.133  0.00  0.00    +0.000 C 
BRANCH  26  27
ATOM     27  C   UNL     1       0.741   9.162  20.463  0.00  0.00    +0.000 A 
ATOM     28  C   UNL     1      -0.209   9.883  21.197  0.00  0.00    +0.000 A 
ATOM     29  C   UNL     1      -0.962  10.889  20.587  0.00  0.00    +0.000 A 
ATOM     30  C   UNL     1      -0.772  11.198  19.234  0.00  0.00    +0.000 A 
ATOM     31  C   UNL     1       0.152  10.448  18.494  0.00  0.00    +0.000 A 
ATOM     32  C   UNL     1       0.909   9.446  19.104  0.00  0.00    +0.000 A 
BRANCH  30  33
ATOM     33  C   UNL     1      -1.612  12.271  18.586  0.00  0.00    +0.000 C 
BRANCH  33  34
ATOM     34  O   UNL     1      -0.958  12.850  17.464  0.00  0.00    +0.000 OA
ATOM     35  H   UNL     1      -1.651  13.059  16.813  0.00  0.00    +0.000 HD
ENDBRANCH  33  34
ENDBRANCH  30  33
ENDBRANCH  26  27
ENDBRANCH  25  26
ENDBRANCH   5  25
TORSDOF 9
ENDMDL
MODEL 9
REMARK VINA RESULT:      -8.4      1.473      1.745
REMARK  Name = 
REMARK  9 active torsions:
REMARK  status: ('A' for Active; 'I' for Inactive)
REMARK    1  A    between atoms: C_2  and  C_14
REMARK    2  A    between atoms: N_3  and  C_4
REMARK    3  A    between atoms: C_4  and  C_5
REMARK    4  A    between atoms: C_16  and  C_17
REMARK    5  A    between atoms: C_21  and  O_22
REMARK    6  A    between atoms: O_22  and  C_23
REMARK    7  A    between atoms: C_23  and  C_24
REMARK    8  A    between atoms: C_27  and  C_28
REMARK    9  A    between atoms: C_28  and  O_29
REMARK                            x       y       z     vdW  Elec       q    Type
REMARK                         _______ _______ _______ _____ _____    ______ ____
ROOT
ATOM      1  C   UNL     1       3.921   4.888  19.658  0.00  0.00    +0.000 C 
ATOM      2  C   UNL     1       3.451   3.674  19.998  0.00  0.00    +0.000 C 
ATOM      3  C   UNL     1       2.117   3.460  20.639  0.00  0.00    +0.000 C 
ATOM      4  C   UNL     1       1.300   4.749  20.591  0.00  0.00    +0.000 C 
ATOM      5  C   UNL     1       2.181   5.965  20.871  0.00  0.00    +0.000 C 
ATOM      6  O   UNL     1       3.244   6.069  19.904  0.00  0.00    +0.000 OA
ENDROOT
BRANCH   1   8
ATOM      7  O   UNL     1       6.182   4.194  19.253  0.00  0.00    +0.000 OA
ATOM      8  C   UNL     1       5.248   4.934  18.956  0.00  0.00    +0.000 C 
ATOM      9  N   UNL     1       5.334   5.875  17.965  0.00  0.00    +0.000 N 
ATOM     10  H   UNL     1       4.590   6.561  17.865  0.00  0.00    +0.000 HD
BRANCH   9  11
ATOM     11  C   UNL     1       6.591   6.092  17.299  0.00  0.00    +0.000 C 
BRANCH  11  12
ATOM     12  C   UNL     1       6.595   5.417  15.976  0.00  0.00    +0.000 A 
ATOM     13  N   UNL     1       5.690   4.577  15.511  0.00  0.00    +0.000 NA
ATOM     14  C   UNL     1       6.072   4.298  14.222  0.00  0.00    +0.000 A 
ATOM     15  C   UNL     1       5.449   3.498  13.253  0.00  0.00    +0.000 A 
ATOM     16  C   UNL     1       6.041   3.390  11.988  0.00  0.00    +0.000 A 
ATOM     17  C   UNL     1       7.230   4.062  11.695  0.00  0.00    +0.000 A 
ATOM     18  C   UNL     1       7.868   4.864  12.650  0.00  0.00    +0.000 A 
ATOM     19  C   UNL     1       7.254   4.956  13.900  0.00  0.00    +0.000 A 
ATOM     20  N   UNL     1       7.577   5.641  15.042  0.00  0.00    +0.000 N 
ATOM     21  H   UNL     1       8.384   6.238  15.164  0.00  0.00    +0.000 HD
ENDBRANCH  11  12
ENDBRANCH   9  11
ENDBRANCH   1   8
BRANCH   3  22
ATOM     22  C   UNL     1       1.311   2.339  20.024  0.00  0.00    +0.000 C 
ATOM     23  C   UNL     1       0.439   2.567  18.816  0.00  0.00    +0.000 C 
ATOM     24  C   UNL     1       1.711   1.776  18.682  0.00  0.00    +0.000 C 
ENDBRANCH   3  22
BRANCH   5  25
ATOM     25  O   UNL     1       1.396   7.163  20.812  0.00  0.00    +0.000 OA
BRANCH  25  26
ATOM     26  C   UNL     1       1.799   8.049  19.773  0.00  0.00    +0.000 C 
BRANCH  26  27
ATOM     27  C   UNL     1       1.036   9.343  19.875  0.00  0.00    +0.000 A 
ATOM     28  C   UNL     1       1.101  10.288  18.844  0.00  0.00    +0.000 A 
ATOM     29  C   UNL     1       0.359  11.470  18.917  0.00  0.00    +0.000 A 
ATOM     30  C   UNL     1      -0.467  11.724  20.020  0.00  0.00    +0.000 A 
ATOM     31  C   UNL     1      -0.498  10.793  21.068  0.00  0.00    +0.000 A 
ATOM     32  C   UNL     1       0.239   9.609  20.993  0.00  0.00    +0.000 A 
BRANCH  30  33
ATOM     33  C   UNL     1      -1.240  13.016  20.094  0.00  0.00    +0.000 C 
BRANCH  33  34
ATOM     34  O   UNL     1      -1.503  13.550  18.801  0.00  0.00    +0.000 OA
ATOM     35  H   UNL     1      -2.467  13.664  18.737  0.00  0.00    +0.000 HD
ENDBRANCH  33  34
ENDBRANCH  30  33
ENDBRANCH  26  27
ENDBRANCH  25  26
ENDBRANCH   5  25
TORSDOF 9
ENDMDL
