MODEL 1
REMARK VINA RESULT:      -7.8      0.000      0.000
REMARK  Name = 
REMARK  4 active torsions:
REMARK  status: ('A' for Active; 'I' for Inactive)
REMARK    1  A    between atoms: C_1  and  C_2
REMARK    2  A    between atoms: N_4  and  C_5
REMARK    3  A    between atoms: C_7  and  C_8
REMARK    4  A    between atoms: C_20  and  C_21
REMARK                            x       y       z     vdW  Elec       q    Type
REMARK                         _______ _______ _______ _____ _____    ______ ____
ROOT
ATOM      1  C   UNL     1       6.386   3.856  14.048  0.00  0.00    +0.000 A 
ATOM      2  C   UNL     1       5.532   3.517  15.107  0.00  0.00    +0.000 A 
ATOM      3  C   UNL     1       5.346   4.352  16.215  0.00  0.00    +0.000 A 
ATOM      4  C   UNL     1       6.052   5.555  16.267  0.00  0.00    +0.000 A 
ATOM      5  C   UNL     1       6.937   5.897  15.243  0.00  0.00    +0.000 A 
ATOM      6  C   UNL     1       7.118   5.058  14.125  0.00  0.00    +0.000 A 
ATOM      7  C   UNL     1       8.079   5.505  13.057  0.00  0.00    +0.000 C 
ENDROOT
BRANCH   3   8
ATOM      8  C   UNL     1       4.437   3.979  17.294  0.00  0.00    +0.000 A 
ATOM      9  N   UNL     1       4.711   3.712  18.560  0.00  0.00    +0.000 NA
ATOM     10  C   UNL     1       3.486   3.424  19.104  0.00  0.00    +0.000 A 
ATOM     11  C   UNL     1       3.121   3.074  20.407  0.00  0.00    +0.000 A 
ATOM     12  C   UNL     1       1.764   2.837  20.662  0.00  0.00    +0.000 A 
ATOM     13 CL   UNL     1       1.277   2.413  22.259  0.00  0.00    +0.000 Cl
ATOM     14  C   UNL     1       0.795   2.938  19.654  0.00  0.00    +0.000 A 
ATOM     15  C   UNL     1       1.147   3.290  18.344  0.00  0.00    +0.000 A 
ATOM     16  C   UNL     1       2.501   3.521  18.132  0.00  0.00    +0.000 A 
ATOM     17  O   UNL     1       3.107   3.877  16.967  0.00  0.00    +0.000 OA
ENDBRANCH   3   8
BRANCH   1  21
ATOM     18  C   UNL     1       5.941   1.729  10.953  0.00  0.00    +0.000 C 
ATOM     19  C   UNL     1       5.559   2.787  11.950  0.00  0.00    +0.000 C 
ATOM     20  O   UNL     1       4.494   3.387  11.824  0.00  0.00    +0.000 OA
ATOM     21  N   UNL     1       6.521   2.994  12.929  0.00  0.00    +0.000 N 
ATOM     22  H   UNL     1       7.430   2.578  12.776  0.00  0.00    +0.000 HD
ENDBRANCH   1  21
TORSDOF 2
ENDMDL
MODEL 2
REMARK VINA RESULT:      -7.7      0.932      1.021
REMARK  Name = 
REMARK  4 active torsions:
REMARK  status: ('A' for Active; 'I' for Inactive)
REMARK    1  A    between atoms: C_1  and  C_2
REMARK    2  A    between atoms: N_4  and  C_5
REMARK    3  A    between atoms: C_7  and  C_8
REMARK    4  A    between atoms: C_20  and  C_21
REMARK                            x       y       z     vdW  Elec       q    Type
REMARK                         _______ _______ _______ _____ _____    ______ ____
ROOT
ATOM      1  C   UNL     1       6.348   3.912  14.071  0.00  0.00    +0.000 A 
ATOM      2  C   UNL     1       5.525   3.676  15.181  0.00  0.00    +0.000 A 
ATOM      3  C   UNL     1       5.413   4.588  16.238  0.00  0.00    +0.000 A 
ATOM      4  C   UNL     1       6.163   5.764  16.183  0.00  0.00    +0.000 A 
ATOM      5  C   UNL     1       7.019   6.004  15.106  0.00  0.00    +0.000 A 
ATOM      6  C   UNL     1       7.125   5.088  14.041  0.00  0.00    +0.000 A 
ATOM      7  C   UNL     1       8.058   5.427  12.910  0.00  0.00    +0.000 C 
ENDROOT
BRANCH   3   8
ATOM      8  C   UNL     1       4.536   4.321  17.372  0.00  0.00    +0.000 A 
ATOM      9  N   UNL     1       4.304   3.178  17.997  0.00  0.00    +0.000 NA
ATOM     10  C   UNL     1       3.403   3.517  18.973  0.00  0.00    +0.000 A 
ATOM     11  C   UNL     1       2.786   2.744  19.960  0.00  0.00    +0.000 A 
ATOM     12  C   UNL     1       1.896   3.387  20.829  0.00  0.00    +0.000 A 
ATOM     13 CL   UNL     1       1.124   2.465  22.065  0.00  0.00    +0.000 Cl
ATOM     14  C   UNL     1       1.621   4.757  20.723  0.00  0.00    +0.000 A 
ATOM     15  C   UNL     1       2.234   5.544  19.739  0.00  0.00    +0.000 A 
ATOM     16  C   UNL     1       3.112   4.872  18.899  0.00  0.00    +0.000 A 
ATOM     17  O   UNL     1       3.837   5.393  17.872  0.00  0.00    +0.000 OA
ENDBRANCH   3   8
BRANCH   1  21
ATOM     18  C   UNL     1       5.728   1.665  11.094  0.00  0.00    +0.000 C 
ATOM     19  C   UNL     1       5.447   2.817  12.018  0.00  0.00    +0.000 C 
ATOM     20  O   UNL     1       4.459   3.522  11.829  0.00  0.00    +0.000 OA
ATOM     21  N   UNL     1       6.407   2.975  13.008  0.00  0.00    +0.000 N 
ATOM     22  H   UNL     1       7.267   2.452  12.903  0.00  0.00    +0.000 HD
ENDBRANCH   1  21
TORSDOF 2
ENDMDL
MODEL 3
REMARK VINA RESULT:      -7.7      5.036      6.208
REMARK  Name = 
REMARK  4 active torsions:
REMARK  status: ('A' for Active; 'I' for Inactive)
REMARK    1  A    between atoms: C_1  and  C_2
REMARK    2  A    between atoms: N_4  and  C_5
REMARK    3  A    between atoms: C_7  and  C_8
REMARK    4  A    between atoms: C_20  and  C_21
REMARK                            x       y       z     vdW  Elec       q    Type
REMARK                         _______ _______ _______ _____ _____    ______ ____
ROOT
ATOM      1  C   UNL     1       3.607   4.728  17.690  0.00  0.00    +0.000 A 
ATOM      2  C   UNL     1       2.835   5.609  18.461  0.00  0.00    +0.000 A 
ATOM      3  C   UNL     1       2.930   6.999  18.329  0.00  0.00    +0.000 A 
ATOM      4  C   UNL     1       3.839   7.518  17.406  0.00  0.00    +0.000 A 
ATOM      5  C   UNL     1       4.647   6.663  16.655  0.00  0.00    +0.000 A 
ATOM      6  C   UNL     1       4.544   5.263  16.784  0.00  0.00    +0.000 A 
ATOM      7  C   UNL     1       5.438   4.409  15.927  0.00  0.00    +0.000 C 
ENDROOT
BRANCH   3   8
ATOM      8  C   UNL     1       2.101   7.890  19.134  0.00  0.00    +0.000 A 
ATOM      9  N   UNL     1       1.780   7.800  20.414  0.00  0.00    +0.000 NA
ATOM     10  C   UNL     1       0.987   8.898  20.629  0.00  0.00    +0.000 A 
ATOM     11  C   UNL     1       0.349   9.356  21.785  0.00  0.00    +0.000 A 
ATOM     12  C   UNL     1      -0.405  10.533  21.689  0.00  0.00    +0.000 A 
ATOM     13 CL   UNL     1      -1.197  11.132  23.098  0.00  0.00    +0.000 Cl
ATOM     14  C   UNL     1      -0.527  11.235  20.483  0.00  0.00    +0.000 A 
ATOM     15  C   UNL     1       0.109  10.788  19.317  0.00  0.00    +0.000 A 
ATOM     16  C   UNL     1       0.850   9.621  19.452  0.00  0.00    +0.000 A 
ATOM     17  O   UNL     1       1.563   8.977  18.489  0.00  0.00    +0.000 OA
ENDBRANCH   3   8
BRANCH   1  21
ATOM     18  C   UNL     1       3.819   1.070  18.626  0.00  0.00    +0.000 C 
ATOM     19  C   UNL     1       4.082   2.541  18.793  0.00  0.00    +0.000 C 
ATOM     20  O   UNL     1       4.772   2.933  19.732  0.00  0.00    +0.000 OA
ATOM     21  N   UNL     1       3.455   3.325  17.835  0.00  0.00    +0.000 N 
ATOM     22  H   UNL     1       2.753   2.876  17.261  0.00  0.00    +0.000 HD
ENDBRANCH   1  21
TORSDOF 2
ENDMDL
MODEL 4
REMARK VINA RESULT:      -7.6      5.396      7.189
REMARK  Name = 
REMARK  4 active torsions:
REMARK  status: ('A' for Active; 'I' for Inactive)
REMARK    1  A    between atoms: C_1  and  C_2
REMARK    2  A    between atoms: N_4  and  C_5
REMARK    3  A    between atoms: C_7  and  C_8
REMARK    4  A    between atoms: C_20  and  C_21
REMARK                            x       y       z     vdW  Elec       q    Type
REMARK                         _______ _______ _______ _____ _____    ______ ____
ROOT
ATOM      1  C   UNL     1       4.021   4.702  19.060  0.00  0.00    +0.000 A 
ATOM      2  C   UNL     1       3.420   5.954  19.251  0.00  0.00    +0.000 A 
ATOM      3  C   UNL     1       2.290   6.127  20.060  0.00  0.00    +0.000 A 
ATOM      4  C   UNL     1       1.740   5.005  20.681  0.00  0.00    +0.000 A 
ATOM      5  C   UNL     1       2.297   3.742  20.476  0.00  0.00    +0.000 A 
ATOM      6  C   UNL     1       3.439   3.571  19.667  0.00  0.00    +0.000 A 
ATOM      7  C   UNL     1       3.988   2.179  19.508  0.00  0.00    +0.000 C 
ENDROOT
BRANCH   3   8
ATOM      8  C   UNL     1       1.697   7.446  20.251  0.00  0.00    +0.000 A 
ATOM      9  N   UNL     1       1.693   8.486  19.434  0.00  0.00    +0.000 NA
ATOM     10  C   UNL     1       0.998   9.443  20.128  0.00  0.00    +0.000 A 
ATOM     11  C   UNL     1       0.655  10.754  19.787  0.00  0.00    +0.000 A 
ATOM     12  C   UNL     1      -0.073  11.501  20.723  0.00  0.00    +0.000 A 
ATOM     13 CL   UNL     1      -0.522  13.118  20.331  0.00  0.00    +0.000 Cl
ATOM     14  C   UNL     1      -0.448  10.966  21.962  0.00  0.00    +0.000 A 
ATOM     15  C   UNL     1      -0.112   9.652  22.316  0.00  0.00    +0.000 A 
ATOM     16  C   UNL     1       0.607   8.943  21.361  0.00  0.00    +0.000 A 
ATOM     17  O   UNL     1       1.053   7.661  21.446  0.00  0.00    +0.000 OA
ENDBRANCH   3   8
BRANCH   1  21
ATOM     18  C   UNL     1       7.486   4.774  17.547  0.00  0.00    +0.000 C 
ATOM     19  C   UNL     1       6.475   4.901  18.653  0.00  0.00    +0.000 C 
ATOM     20  O   UNL     1       6.841   5.234  19.777  0.00  0.00    +0.000 OA
ATOM     21  N   UNL     1       5.184   4.578  18.258  0.00  0.00    +0.000 N 
ATOM     22  H   UNL     1       5.078   4.119  17.362  0.00  0.00    +0.000 HD
ENDBRANCH   1  21
TORSDOF 2
ENDMDL
MODEL 5
REMARK VINA RESULT:      -7.6      4.789      5.854
REMARK  Name = 
REMARK  4 active torsions:
REMARK  status: ('A' for Active; 'I' for Inactive)
REMARK    1  A    between atoms: C_1  and  C_2
REMARK    2  A    between atoms: N_4  and  C_5
REMARK    3  A    between atoms: C_7  and  C_8
REMARK    4  A    between atoms: C_20  and  C_21
REMARK                            x       y       z     vdW  Elec       q    Type
REMARK                         _______ _______ _______ _____ _____    ______ ____
ROOT
ATOM      1  C   UNL     1       4.403   4.619  17.571  0.00  0.00    +0.000 A 
ATOM      2  C   UNL     1       3.549   5.540  18.193  0.00  0.00    +0.000 A 
ATOM      3  C   UNL     1       3.455   6.873  17.776  0.00  0.00    +0.000 A 
ATOM      4  C   UNL     1       4.255   7.295  16.713  0.00  0.00    +0.000 A 
ATOM      5  C   UNL     1       5.141   6.406  16.102  0.00  0.00    +0.000 A 
ATOM      6  C   UNL     1       5.229   5.063  16.519  0.00  0.00    +0.000 A 
ATOM      7  C   UNL     1       6.197   4.163  15.799  0.00  0.00    +0.000 C 
ENDROOT
BRANCH   3   8
ATOM      8  C   UNL     1       2.545   7.805  18.434  0.00  0.00    +0.000 A 
ATOM      9  N   UNL     1       1.965   8.890  17.947  0.00  0.00    +0.000 NA
ATOM     10  C   UNL     1       1.227   9.365  19.000  0.00  0.00    +0.000 A 
ATOM     11  C   UNL     1       0.391  10.480  19.104  0.00  0.00    +0.000 A 
ATOM     12  C   UNL     1      -0.239  10.709  20.334  0.00  0.00    +0.000 A 
ATOM     13 CL   UNL     1      -1.285  12.069  20.495  0.00  0.00    +0.000 Cl
ATOM     14  C   UNL     1      -0.044   9.860  21.432  0.00  0.00    +0.000 A 
ATOM     15  C   UNL     1       0.791   8.738  21.341  0.00  0.00    +0.000 A 
ATOM     16  C   UNL     1       1.394   8.543  20.105  0.00  0.00    +0.000 A 
ATOM     17  O   UNL     1       2.240   7.539  19.747  0.00  0.00    +0.000 OA
ENDBRANCH   3   8
BRANCH   1  21
ATOM     18  C   UNL     1       3.700   1.036  18.557  0.00  0.00    +0.000 C 
ATOM     19  C   UNL     1       3.403   2.357  17.903  0.00  0.00    +0.000 C 
ATOM     20  O   UNL     1       2.331   2.523  17.325  0.00  0.00    +0.000 OA
ATOM     21  N   UNL     1       4.444   3.269  18.007  0.00  0.00    +0.000 N 
ATOM     22  H   UNL     1       5.337   2.914  18.322  0.00  0.00    +0.000 HD
ENDBRANCH   1  21
TORSDOF 2
ENDMDL
MODEL 6
REMARK VINA RESULT:      -7.6      5.048      6.243
REMARK  Name = 
REMARK  4 active torsions:
REMARK  status: ('A' for Active; 'I' for Inactive)
REMARK    1  A    between atoms: C_1  and  C_2
REMARK    2  A    between atoms: N_4  and  C_5
REMARK    3  A    between atoms: C_7  and  C_8
REMARK    4  A    between atoms: C_20  and  C_21
REMARK                            x       y       z     vdW  Elec       q    Type
REMARK                         _______ _______ _______ _____ _____    ______ ____
ROOT
ATOM      1  C   UNL     1       3.693   4.723  17.594  0.00  0.00    +0.000 A 
ATOM      2  C   UNL     1       2.905   5.644  18.299  0.00  0.00    +0.000 A 
ATOM      3  C   UNL     1       3.037   7.027  18.128  0.00  0.00    +0.000 A 
ATOM      4  C   UNL     1       4.000   7.497  17.234  0.00  0.00    +0.000 A 
ATOM      5  C   UNL     1       4.823   6.601  16.550  0.00  0.00    +0.000 A 
ATOM      6  C   UNL     1       4.683   5.209  16.718  0.00  0.00    +0.000 A 
ATOM      7  C   UNL     1       5.598   4.309  15.932  0.00  0.00    +0.000 C 
ENDROOT
BRANCH   3   8
ATOM      8  C   UNL     1       2.191   7.960  18.864  0.00  0.00    +0.000 A 
ATOM      9  N   UNL     1       1.575   9.048  18.432  0.00  0.00    +0.000 NA
ATOM     10  C   UNL     1       0.933   9.524  19.546  0.00  0.00    +0.000 A 
ATOM     11  C   UNL     1       0.113  10.642  19.725  0.00  0.00    +0.000 A 
ATOM     12  C   UNL     1      -0.406  10.870  21.005  0.00  0.00    +0.000 A 
ATOM     13 CL   UNL     1      -1.429  12.233  21.259  0.00  0.00    +0.000 Cl
ATOM     14  C   UNL     1      -0.119  10.018  22.080  0.00  0.00    +0.000 A 
ATOM     15  C   UNL     1       0.700   8.893  21.915  0.00  0.00    +0.000 A 
ATOM     16  C   UNL     1       1.192   8.699  20.631  0.00  0.00    +0.000 A 
ATOM     17  O   UNL     1       2.001   7.693  20.198  0.00  0.00    +0.000 OA
ENDBRANCH   3   8
BRANCH   1  21
ATOM     18  C   UNL     1       3.801   1.088  18.630  0.00  0.00    +0.000 C 
ATOM     19  C   UNL     1       4.102   2.555  18.760  0.00  0.00    +0.000 C 
ATOM     20  O   UNL     1       4.793   2.955  19.694  0.00  0.00    +0.000 OA
ATOM     21  N   UNL     1       3.503   3.329  17.776  0.00  0.00    +0.000 N 
ATOM     22  H   UNL     1       2.794   2.883  17.208  0.00  0.00    +0.000 HD
ENDBRANCH   1  21
TORSDOF 2
ENDMDL
MODEL 7
REMARK VINA RESULT:      -7.6      5.390      7.171
REMARK  Name = 
REMARK  4 active torsions:
REMARK  status: ('A' for Active; 'I' for Inactive)
REMARK    1  A    between atoms: C_1  and  C_2
REMARK    2  A    between atoms: N_4  and  C_5
REMARK    3  A    between atoms: C_7  and  C_8
REMARK    4  A    between atoms: C_20  and  C_21
REMARK                            x       y       z     vdW  Elec       q    Type
REMARK                         _______ _______ _______ _____ _____    ______ ____
ROOT
ATOM      1  C   UNL     1       4.092   4.764  19.138  0.00  0.00    +0.000 A 
ATOM      2  C   UNL     1       3.490   6.024  19.263  0.00  0.00    +0.000 A 
ATOM      3  C   UNL     1       2.360   6.238  20.061  0.00  0.00    +0.000 A 
ATOM      4  C   UNL     1       1.810   5.149  20.740  0.00  0.00    +0.000 A 
ATOM      5  C   UNL     1       2.369   3.877  20.601  0.00  0.00    +0.000 A 
ATOM      6  C   UNL     1       3.510   3.666  19.803  0.00  0.00    +0.000 A 
ATOM      7  C   UNL     1       4.061   2.268  19.716  0.00  0.00    +0.000 C 
ENDROOT
BRANCH   3   8
ATOM      8  C   UNL     1       1.766   7.565  20.184  0.00  0.00    +0.000 A 
ATOM      9  N   UNL     1       1.212   8.137  21.240  0.00  0.00    +0.000 NA
ATOM     10  C   UNL     1       0.828   9.370  20.779  0.00  0.00    +0.000 A 
ATOM     11  C   UNL     1       0.196  10.435  21.427  0.00  0.00    +0.000 A 
ATOM     12  C   UNL     1      -0.069  11.588  20.677  0.00  0.00    +0.000 A 
ATOM     13 CL   UNL     1      -0.839  12.924  21.447  0.00  0.00    +0.000 Cl
ATOM     14  C   UNL     1       0.277  11.683  19.323  0.00  0.00    +0.000 A 
ATOM     15  C   UNL     1       0.913  10.623  18.661  0.00  0.00    +0.000 A 
ATOM     16  C   UNL     1       1.163   9.500  19.439  0.00  0.00    +0.000 A 
ATOM     17  O   UNL     1       1.765   8.342  19.051  0.00  0.00    +0.000 OA
ENDBRANCH   3   8
BRANCH   1  21
ATOM     18  C   UNL     1       7.560   4.748  17.630  0.00  0.00    +0.000 C 
ATOM     19  C   UNL     1       6.548   4.926  18.727  0.00  0.00    +0.000 C 
ATOM     20  O   UNL     1       6.915   5.299  19.839  0.00  0.00    +0.000 OA
ATOM     21  N   UNL     1       5.255   4.600  18.342  0.00  0.00    +0.000 N 
ATOM     22  H   UNL     1       5.147   4.107  17.465  0.00  0.00    +0.000 HD
ENDBRANCH   1  21
TORSDOF 2
ENDMDL
MODEL 8
REMARK VINA RESULT:      -7.5      6.876      8.656
REMARK  Name = 
REMARK  4 active torsions:
REMARK  status: ('A' for Active; 'I' for Inactive)
REMARK    1  A    between atoms: C_1  and  C_2
REMARK    2  A    between atoms: N_4  and  C_5
REMARK    3  A    between atoms: C_7  and  C_8
REMARK    4  A    between atoms: C_20  and  C_21
REMARK                            x       y       z     vdW  Elec       q    Type
REMARK                         _______ _______ _______ _____ _____    ______ ____
ROOT
ATOM      1  C   UNL     1       2.542   6.315  19.827  0.00  0.00    +0.000 A 
ATOM      2  C   UNL     1       1.757   7.342  20.370  0.00  0.00    +0.000 A 
ATOM      3  C   UNL     1       1.493   8.529  19.676  0.00  0.00    +0.000 A 
ATOM      4  C   UNL     1       2.047   8.693  18.406  0.00  0.00    +0.000 A 
ATOM      5  C   UNL     1       2.864   7.702  17.859  0.00  0.00    +0.000 A 
ATOM      6  C   UNL     1       3.122   6.505  18.556  0.00  0.00    +0.000 A 
ATOM      7  C   UNL     1       3.999   5.478  17.892  0.00  0.00    +0.000 C 
ENDROOT
BRANCH   3   8
ATOM      8  C   UNL     1       0.659   9.573  20.262  0.00  0.00    +0.000 A 
ATOM      9  N   UNL     1       0.215  10.692  19.715  0.00  0.00    +0.000 NA
ATOM     10  C   UNL     1      -0.511  11.280  20.718  0.00  0.00    +0.000 A 
ATOM     11  C   UNL     1      -1.230  12.478  20.748  0.00  0.00    +0.000 A 
ATOM     12  C   UNL     1      -1.880  12.817  21.942  0.00  0.00    +0.000 A 
ATOM     13 CL   UNL     1      -2.785  14.282  22.011  0.00  0.00    +0.000 Cl
ATOM     14  C   UNL     1      -1.818  11.995  23.075  0.00  0.00    +0.000 A 
ATOM     15  C   UNL     1      -1.102  10.791  23.058  0.00  0.00    +0.000 A 
ATOM     16  C   UNL     1      -0.474  10.488  21.857  0.00  0.00    +0.000 A 
ATOM     17  O   UNL     1       0.277   9.390  21.569  0.00  0.00    +0.000 OA
ENDBRANCH   3   8
BRANCH   1  21
ATOM     18  C   UNL     1       2.303   3.011  21.651  0.00  0.00    +0.000 C 
ATOM     19  C   UNL     1       1.823   4.106  20.739  0.00  0.00    +0.000 C 
ATOM     20  O   UNL     1       0.710   4.027  20.225  0.00  0.00    +0.000 OA
ATOM     21  N   UNL     1       2.758   5.115  20.552  0.00  0.00    +0.000 N 
ATOM     22  H   UNL     1       3.701   4.933  20.869  0.00  0.00    +0.000 HD
ENDBRANCH   1  21
TORSDOF 2
ENDMDL
MODEL 9
REMARK VINA RESULT:      -7.5      5.717      7.076
REMARK  Name = 
REMARK  4 active torsions:
REMARK  status: ('A' for Active; 'I' for Inactive)
REMARK    1  A    between atoms: C_1  and  C_2
REMARK    2  A    between atoms: N_4  and  C_5
REMARK    3  A    between atoms: C_7  and  C_8
REMARK    4  A    between atoms: C_20  and  C_21
REMARK                            x       y       z     vdW  Elec       q    Type
REMARK                         _______ _______ _______ _____ _____    ______ ____
ROOT
ATOM      1  C   UNL     1       3.133   5.440  18.568  0.00  0.00    +0.000 A 
ATOM      2  C   UNL     1       2.354   6.324  19.325  0.00  0.00    +0.000 A 
ATOM      3  C   UNL     1       2.273   7.691  19.033  0.00  0.00    +0.000 A 
ATOM      4  C   UNL     1       3.012   8.184  17.957  0.00  0.00    +0.000 A 
ATOM      5  C   UNL     1       3.826   7.331  17.211  0.00  0.00    +0.000 A 
ATOM      6  C   UNL     1       3.899   5.955  17.502  0.00  0.00    +0.000 A 
ATOM      7  C   UNL     1       4.788   5.098  16.641  0.00  0.00    +0.000 C 
ENDROOT
BRANCH   3   8
ATOM      8  C   UNL     1       1.440   8.583  19.832  0.00  0.00    +0.000 A 
ATOM      9  N   UNL     1       0.866   9.723  19.485  0.00  0.00    +0.000 NA
ATOM     10  C   UNL     1       0.215  10.121  20.623  0.00  0.00    +0.000 A 
ATOM     11  C   UNL     1      -0.575  11.245  20.883  0.00  0.00    +0.000 A 
ATOM     12  C   UNL     1      -1.115  11.378  22.169  0.00  0.00    +0.000 A 
ATOM     13 CL   UNL     1      -2.102  12.746  22.521  0.00  0.00    +0.000 Cl
ATOM     14  C   UNL     1      -0.876  10.428  23.171  0.00  0.00    +0.000 A 
ATOM     15  C   UNL     1      -0.088   9.296  22.924  0.00  0.00    +0.000 A 
ATOM     16  C   UNL     1       0.426   9.197  21.637  0.00  0.00    +0.000 A 
ATOM     17  O   UNL     1       1.213   8.208  21.134  0.00  0.00    +0.000 OA
ENDBRANCH   3   8
BRANCH   1  21
ATOM     18  C   UNL     1       2.444   1.757  19.074  0.00  0.00    +0.000 C 
ATOM     19  C   UNL     1       2.208   3.124  18.496  0.00  0.00    +0.000 C 
ATOM     20  O   UNL     1       1.257   3.309  17.739  0.00  0.00    +0.000 OA
ATOM     21  N   UNL     1       3.161   4.057  18.880  0.00  0.00    +0.000 N 
ATOM     22  H   UNL     1       3.995   3.703  19.330  0.00  0.00    +0.000 HD
ENDBRANCH   1  21
TORSDOF 2
ENDMDL
