MODEL 1
REMARK VINA RESULT:      -8.5      0.000      0.000
REMARK  Name = 
REMARK  7 active torsions:
REMARK  status: ('A' for Active; 'I' for Inactive)
REMARK    1  A    between atoms: C_2  and  O_3
REMARK    2  A    between atoms: C_2  and  C_4
REMARK    3  A    between atoms: C_4  and  S_5
REMARK    4  A    between atoms: S_5  and  C_8
REMARK    5  A    between atoms: C_11  and  C_12
REMARK    6  A    between atoms: C_16  and  C_17
REMARK    7  A    between atoms: N_19  and  C_20
REMARK                            x       y       z     vdW  Elec       q    Type
REMARK                         _______ _______ _______ _____ _____    ______ ____
ROOT
ATOM      1  C   UNL     1       1.118   9.020  19.113  0.00  0.00    +0.000 A 
ATOM      2  C   UNL     1       0.426   9.520  17.988  0.00  0.00    +0.000 A 
ATOM      3  C   UNL     1      -0.492  10.566  18.089  0.00  0.00    +0.000 A 
ATOM      4  C   UNL     1      -0.760  11.124  19.331  0.00  0.00    +0.000 A 
ATOM      5  C   UNL     1      -0.111  10.642  20.474  0.00  0.00    +0.000 A 
ATOM      6  C   UNL     1       0.823   9.599  20.365  0.00  0.00    +0.000 A 
ENDROOT
BRANCH   1  10
ATOM      7  C   UNL     1       4.008   5.846  18.708  0.00  0.00    +0.000 A 
ATOM      8  C   UNL     1       3.175   5.896  19.822  0.00  0.00    +0.000 A 
ATOM      9  C   UNL     1       2.241   6.928  19.937  0.00  0.00    +0.000 A 
ATOM     10  C   UNL     1       2.125   7.939  18.962  0.00  0.00    +0.000 A 
ATOM     11  C   UNL     1       2.999   7.874  17.858  0.00  0.00    +0.000 A 
ATOM     12  C   UNL     1       3.933   6.836  17.727  0.00  0.00    +0.000 A 
BRANCH   7  13
ATOM     13  S   UNL     1       5.185   4.528  18.565  0.00  0.00    +0.000 S 
ATOM     14  O   UNL     1       4.484   3.270  18.780  0.00  0.00    +0.000 OA
ATOM     15  O   UNL     1       6.323   4.886  19.389  0.00  0.00    +0.000 OA
BRANCH  13  16
ATOM     16  C   UNL     1       5.708   4.490  16.897  0.00  0.00    +0.000 C 
BRANCH  16  18
ATOM     17  O   UNL     1       7.402   6.060  16.332  0.00  0.00    +0.000 OA
ATOM     18  C   UNL     1       7.114   4.959  16.782  0.00  0.00    +0.000 C 
BRANCH  18  19
ATOM     19  O   UNL     1       8.057   4.120  17.262  0.00  0.00    +0.000 OA
ATOM     20  H   UNL     1       8.830   4.539  17.710  0.00  0.00    +0.000 HD
ENDBRANCH  18  19
ENDBRANCH  16  18
ENDBRANCH  13  16
ENDBRANCH   7  13
ENDBRANCH   1  10
BRANCH   5  21
ATOM     21  C   UNL     1      -0.515  11.230  21.778  0.00  0.00    +0.000 C 
ATOM     22  O   UNL     1      -0.035  10.727  22.788  0.00  0.00    +0.000 OA
ATOM     23  N   UNL     1      -1.448  12.254  21.735  0.00  0.00    +0.000 N 
ATOM     24  H   UNL     1      -1.909  12.436  20.854  0.00  0.00    +0.000 HD
BRANCH  23  25
ATOM     25  C   UNL     1      -1.973  12.919  22.872  0.00  0.00    +0.000 A 
ATOM     26  C   UNL     1      -3.189  12.574  23.467  0.00  0.00    +0.000 A 
ATOM     27  C   UNL     1      -3.687  13.297  24.551  0.00  0.00    +0.000 A 
ATOM     28  C   UNL     1      -2.969  14.371  25.064  0.00  0.00    +0.000 A 
ATOM     29  C   UNL     1      -1.739  14.709  24.502  0.00  0.00    +0.000 A 
ATOM     30  C   UNL     1      -1.235  13.979  23.416  0.00  0.00    +0.000 A 
ENDBRANCH  23  25
ENDBRANCH   5  21
TORSDOF 7
ENDMDL
MODEL 2
REMARK VINA RESULT:      -8.4      1.626      2.530
REMARK  Name = 
REMARK  7 active torsions:
REMARK  status: ('A' for Active; 'I' for Inactive)
REMARK    1  A    between atoms: C_2  and  O_3
REMARK    2  A    between atoms: C_2  and  C_4
REMARK    3  A    between atoms: C_4  and  S_5
REMARK    4  A    between atoms: S_5  and  C_8
REMARK    5  A    between atoms: C_11  and  C_12
REMARK    6  A    between atoms: C_16  and  C_17
REMARK    7  A    between atoms: N_19  and  C_20
REMARK                            x       y       z     vdW  Elec       q    Type
REMARK                         _______ _______ _______ _____ _____    ______ ____
ROOT
ATOM      1  C   UNL     1       1.378   8.703  19.734  0.00  0.00    +0.000 A 
ATOM      2  C   UNL     1       1.267   9.491  18.568  0.00  0.00    +0.000 A 
ATOM      3  C   UNL     1       0.687  10.760  18.585  0.00  0.00    +0.000 A 
ATOM      4  C   UNL     1       0.179  11.265  19.774  0.00  0.00    +0.000 A 
ATOM      5  C   UNL     1       0.251  10.506  20.948  0.00  0.00    +0.000 A 
ATOM      6  C   UNL     1       0.849   9.236  20.929  0.00  0.00    +0.000 A 
ENDROOT
BRANCH   1  10
ATOM      7  C   UNL     1       3.357   4.876  19.578  0.00  0.00    +0.000 A 
ATOM      8  C   UNL     1       3.650   5.854  18.632  0.00  0.00    +0.000 A 
ATOM      9  C   UNL     1       3.004   7.090  18.699  0.00  0.00    +0.000 A 
ATOM     10  C   UNL     1       2.044   7.377  19.690  0.00  0.00    +0.000 A 
ATOM     11  C   UNL     1       1.752   6.357  20.617  0.00  0.00    +0.000 A 
ATOM     12  C   UNL     1       2.403   5.116  20.567  0.00  0.00    +0.000 A 
BRANCH   7  13
ATOM     13  S   UNL     1       4.188   3.312  19.492  0.00  0.00    +0.000 S 
ATOM     14  O   UNL     1       3.653   2.457  20.542  0.00  0.00    +0.000 OA
ATOM     15  O   UNL     1       5.609   3.591  19.424  0.00  0.00    +0.000 OA
BRANCH  13  16
ATOM     16  C   UNL     1       3.707   2.560  17.989  0.00  0.00    +0.000 C 
BRANCH  16  18
ATOM     17  O   UNL     1       1.619   3.327  17.148  0.00  0.00    +0.000 OA
ATOM     18  C   UNL     1       2.225   2.544  17.867  0.00  0.00    +0.000 C 
BRANCH  18  19
ATOM     19  O   UNL     1       1.587   1.571  18.553  0.00  0.00    +0.000 OA
ATOM     20  H   UNL     1       0.626   1.458  18.361  0.00  0.00    +0.000 HD
ENDBRANCH  18  19
ENDBRANCH  16  18
ENDBRANCH  13  16
ENDBRANCH   7  13
ENDBRANCH   1  10
BRANCH   5  21
ATOM     21  C   UNL     1      -0.391  11.077  22.161  0.00  0.00    +0.000 C 
ATOM     22  O   UNL     1      -0.182  10.503  23.224  0.00  0.00    +0.000 OA
ATOM     23  N   UNL     1      -1.220  12.171  21.968  0.00  0.00    +0.000 N 
ATOM     24  H   UNL     1      -1.462  12.419  21.018  0.00  0.00    +0.000 HD
BRANCH  23  25
ATOM     25  C   UNL     1      -1.938  12.834  22.996  0.00  0.00    +0.000 A 
ATOM     26  C   UNL     1      -3.179  12.397  23.466  0.00  0.00    +0.000 A 
ATOM     27  C   UNL     1      -3.869  13.117  24.441  0.00  0.00    +0.000 A 
ATOM     28  C   UNL     1      -3.323  14.281  24.968  0.00  0.00    +0.000 A 
ATOM     29  C   UNL     1      -2.072  14.714  24.532  0.00  0.00    +0.000 A 
ATOM     30  C   UNL     1      -1.375  13.987  23.556  0.00  0.00    +0.000 A 
ENDBRANCH  23  25
ENDBRANCH   5  21
TORSDOF 7
ENDMDL
MODEL 3
REMARK VINA RESULT:      -8.3      0.568      1.128
REMARK  Name = 
REMARK  7 active torsions:
REMARK  status: ('A' for Active; 'I' for Inactive)
REMARK    1  A    between atoms: C_2  and  O_3
REMARK    2  A    between atoms: C_2  and  C_4
REMARK    3  A    between atoms: C_4  and  S_5
REMARK    4  A    between atoms: S_5  and  C_8
REMARK    5  A    between atoms: C_11  and  C_12
REMARK    6  A    between atoms: C_16  and  C_17
REMARK    7  A    between atoms: N_19  and  C_20
REMARK                            x       y       z     vdW  Elec       q    Type
REMARK                         _______ _______ _______ _____ _____    ______ ____
ROOT
ATOM      1  C   UNL     1       1.131   9.022  19.149  0.00  0.00    +0.000 A 
ATOM      2  C   UNL     1       0.503   9.576  18.012  0.00  0.00    +0.000 A 
ATOM      3  C   UNL     1      -0.378  10.655  18.106  0.00  0.00    +0.000 A 
ATOM      4  C   UNL     1      -0.672  11.192  19.351  0.00  0.00    +0.000 A 
ATOM      5  C   UNL     1      -0.086  10.657  20.505  0.00  0.00    +0.000 A 
ATOM      6  C   UNL     1       0.811   9.581  20.404  0.00  0.00    +0.000 A 
ENDROOT
BRANCH   1  10
ATOM      7  C   UNL     1       3.978   5.815  18.706  0.00  0.00    +0.000 A 
ATOM      8  C   UNL     1       3.887   6.807  17.735  0.00  0.00    +0.000 A 
ATOM      9  C   UNL     1       2.963   7.842  17.895  0.00  0.00    +0.000 A 
ATOM     10  C   UNL     1       2.100   7.905  19.008  0.00  0.00    +0.000 A 
ATOM     11  C   UNL     1       2.200   6.872  19.960  0.00  0.00    +0.000 A 
ATOM     12  C   UNL     1       3.133   5.834  19.816  0.00  0.00    +0.000 A 
BRANCH   7  13
ATOM     13  S   UNL     1       5.160   4.509  18.501  0.00  0.00    +0.000 S 
ATOM     14  O   UNL     1       5.052   4.010  17.138  0.00  0.00    +0.000 OA
ATOM     15  O   UNL     1       4.999   3.611  19.628  0.00  0.00    +0.000 OA
BRANCH  13  16
ATOM     16  C   UNL     1       6.748   5.237  18.605  0.00  0.00    +0.000 C 
BRANCH  16  18
ATOM     17  O   UNL     1       7.445   6.289  16.590  0.00  0.00    +0.000 OA
ATOM     18  C   UNL     1       7.392   5.270  17.266  0.00  0.00    +0.000 C 
BRANCH  18  19
ATOM     19  O   UNL     1       7.973   4.120  16.861  0.00  0.00    +0.000 OA
ATOM     20  H   UNL     1       8.794   4.210  16.321  0.00  0.00    +0.000 HD
ENDBRANCH  18  19
ENDBRANCH  16  18
ENDBRANCH  13  16
ENDBRANCH   7  13
ENDBRANCH   1  10
BRANCH   5  21
ATOM     21  C   UNL     1      -0.516  11.229  21.807  0.00  0.00    +0.000 C 
ATOM     22  O   UNL     1      -0.041  10.726  22.820  0.00  0.00    +0.000 OA
ATOM     23  N   UNL     1      -1.466  12.237  21.760  0.00  0.00    +0.000 N 
ATOM     24  H   UNL     1      -1.919  12.418  20.874  0.00  0.00    +0.000 HD
BRANCH  23  25
ATOM     25  C   UNL     1      -2.016  12.885  22.895  0.00  0.00    +0.000 A 
ATOM     26  C   UNL     1      -3.230  12.510  23.476  0.00  0.00    +0.000 A 
ATOM     27  C   UNL     1      -3.754  13.216  24.559  0.00  0.00    +0.000 A 
ATOM     28  C   UNL     1      -3.067  14.304  25.083  0.00  0.00    +0.000 A 
ATOM     29  C   UNL     1      -1.839  14.672  24.534  0.00  0.00    +0.000 A 
ATOM     30  C   UNL     1      -1.309  13.959  23.450  0.00  0.00    +0.000 A 
ENDBRANCH  23  25
ENDBRANCH   5  21
TORSDOF 7
ENDMDL
MODEL 4
REMARK VINA RESULT:      -8.2      3.968     10.778
REMARK  Name = 
REMARK  7 active torsions:
REMARK  status: ('A' for Active; 'I' for Inactive)
REMARK    1  A    between atoms: C_2  and  O_3
REMARK    2  A    between atoms: C_2  and  C_4
REMARK    3  A    between atoms: C_4  and  S_5
REMARK    4  A    between atoms: S_5  and  C_8
REMARK    5  A    between atoms: C_11  and  C_12
REMARK    6  A    between atoms: C_16  and  C_17
REMARK    7  A    between atoms: N_19  and  C_20
REMARK                            x       y       z     vdW  Elec       q    Type
REMARK                         _______ _______ _______ _____ _____    ______ ____
ROOT
ATOM      1  C   UNL     1       2.863   6.341  18.904  0.00  0.00    +0.000 A 
ATOM      2  C   UNL     1       2.506   5.243  19.717  0.00  0.00    +0.000 A 
ATOM      3  C   UNL     1       3.131   4.000  19.598  0.00  0.00    +0.000 A 
ATOM      4  C   UNL     1       4.118   3.820  18.639  0.00  0.00    +0.000 A 
ATOM      5  C   UNL     1       4.485   4.878  17.799  0.00  0.00    +0.000 A 
ATOM      6  C   UNL     1       3.864   6.130  17.933  0.00  0.00    +0.000 A 
ENDROOT
BRANCH   1  10
ATOM      7  C   UNL     1       0.963  10.181  19.386  0.00  0.00    +0.000 A 
ATOM      8  C   UNL     1       1.578   9.852  18.182  0.00  0.00    +0.000 A 
ATOM      9  C   UNL     1       2.186   8.602  18.040  0.00  0.00    +0.000 A 
ATOM     10  C   UNL     1       2.211   7.662  19.090  0.00  0.00    +0.000 A 
ATOM     11  C   UNL     1       1.601   8.035  20.304  0.00  0.00    +0.000 A 
ATOM     12  C   UNL     1       0.977   9.283  20.455  0.00  0.00    +0.000 A 
BRANCH   7  13
ATOM     13  S   UNL     1       0.185  11.765  19.556  0.00  0.00    +0.000 S 
ATOM     14  O   UNL     1       0.611  12.601  18.443  0.00  0.00    +0.000 OA
ATOM     15  O   UNL     1       0.399  12.197  20.923  0.00  0.00    +0.000 OA
BRANCH  13  16
ATOM     16  C   UNL     1      -1.531  11.520  19.323  0.00  0.00    +0.000 C 
BRANCH  16  18
ATOM     17  O   UNL     1      -2.128  10.011  17.585  0.00  0.00    +0.000 OA
ATOM     18  C   UNL     1      -1.815  11.148  17.912  0.00  0.00    +0.000 C 
BRANCH  18  19
ATOM     19  O   UNL     1      -1.768  12.157  17.015  0.00  0.00    +0.000 OA
ATOM     20  H   UNL     1      -1.929  13.064  17.367  0.00  0.00    +0.000 HD
ENDBRANCH  18  19
ENDBRANCH  16  18
ENDBRANCH  13  16
ENDBRANCH   7  13
ENDBRANCH   1  10
BRANCH   5  21
ATOM     21  C   UNL     1       5.487   4.582  16.741  0.00  0.00    +0.000 C 
ATOM     22  O   UNL     1       6.623   4.307  17.112  0.00  0.00    +0.000 OA
ATOM     23  N   UNL     1       5.060   4.708  15.429  0.00  0.00    +0.000 N 
ATOM     24  H   UNL     1       4.157   5.134  15.265  0.00  0.00    +0.000 HD
BRANCH  23  25
ATOM     25  C   UNL     1       5.874   4.494  14.288  0.00  0.00    +0.000 A 
ATOM     26  C   UNL     1       7.071   5.180  14.063  0.00  0.00    +0.000 A 
ATOM     27  C   UNL     1       7.807   4.971  12.897  0.00  0.00    +0.000 A 
ATOM     28  C   UNL     1       7.362   4.066  11.941  0.00  0.00    +0.000 A 
ATOM     29  C   UNL     1       6.186   3.352  12.165  0.00  0.00    +0.000 A 
ATOM     30  C   UNL     1       5.449   3.556  13.340  0.00  0.00    +0.000 A 
ENDBRANCH  23  25
ENDBRANCH   5  21
TORSDOF 7
ENDMDL
MODEL 5
REMARK VINA RESULT:      -8.2      4.200     10.787
REMARK  Name = 
REMARK  7 active torsions:
REMARK  status: ('A' for Active; 'I' for Inactive)
REMARK    1  A    between atoms: C_2  and  O_3
REMARK    2  A    between atoms: C_2  and  C_4
REMARK    3  A    between atoms: C_4  and  S_5
REMARK    4  A    between atoms: S_5  and  C_8
REMARK    5  A    between atoms: C_11  and  C_12
REMARK    6  A    between atoms: C_16  and  C_17
REMARK    7  A    between atoms: N_19  and  C_20
REMARK                            x       y       z     vdW  Elec       q    Type
REMARK                         _______ _______ _______ _____ _____    ______ ____
ROOT
ATOM      1  C   UNL     1       2.988   6.039  19.169  0.00  0.00    +0.000 A 
ATOM      2  C   UNL     1       2.754   4.919  19.995  0.00  0.00    +0.000 A 
ATOM      3  C   UNL     1       3.430   3.712  19.814  0.00  0.00    +0.000 A 
ATOM      4  C   UNL     1       4.346   3.589  18.779  0.00  0.00    +0.000 A 
ATOM      5  C   UNL     1       4.591   4.670  17.924  0.00  0.00    +0.000 A 
ATOM      6  C   UNL     1       3.919   5.887  18.119  0.00  0.00    +0.000 A 
ENDROOT
BRANCH   1  10
ATOM      7  C   UNL     1       0.939   9.773  19.839  0.00  0.00    +0.000 A 
ATOM      8  C   UNL     1       1.509   9.501  18.599  0.00  0.00    +0.000 A 
ATOM      9  C   UNL     1       2.166   8.285  18.396  0.00  0.00    +0.000 A 
ATOM     10  C   UNL     1       2.286   7.324  19.419  0.00  0.00    +0.000 A 
ATOM     11  C   UNL     1       1.720   7.639  20.670  0.00  0.00    +0.000 A 
ATOM     12  C   UNL     1       1.048   8.852  20.883  0.00  0.00    +0.000 A 
BRANCH   7  13
ATOM     13  S   UNL     1       0.098  11.314  20.087  0.00  0.00    +0.000 S 
ATOM     14  O   UNL     1       0.481  11.834  21.392  0.00  0.00    +0.000 OA
ATOM     15  O   UNL     1      -1.297  11.092  19.764  0.00  0.00    +0.000 OA
BRANCH  13  16
ATOM     16  C   UNL     1       0.754  12.446  18.925  0.00  0.00    +0.000 C 
BRANCH  16  18
ATOM     17  O   UNL     1      -0.460  14.485  18.786  0.00  0.00    +0.000 OA
ATOM     18  C   UNL     1      -0.318  13.332  18.401  0.00  0.00    +0.000 C 
BRANCH  18  19
ATOM     19  O   UNL     1      -1.093  12.809  17.427  0.00  0.00    +0.000 OA
ATOM     20  H   UNL     1      -0.624  12.464  16.631  0.00  0.00    +0.000 HD
ENDBRANCH  18  19
ENDBRANCH  16  18
ENDBRANCH  13  16
ENDBRANCH   7  13
ENDBRANCH   1  10
BRANCH   5  21
ATOM     21  C   UNL     1       5.520   4.434  16.788  0.00  0.00    +0.000 C 
ATOM     22  O   UNL     1       6.695   4.216  17.065  0.00  0.00    +0.000 OA
ATOM     23  N   UNL     1       4.985   4.546  15.514  0.00  0.00    +0.000 N 
ATOM     24  H   UNL     1       4.052   4.926  15.426  0.00  0.00    +0.000 HD
BRANCH  23  25
ATOM     25  C   UNL     1       5.716   4.383  14.311  0.00  0.00    +0.000 A 
ATOM     26  C   UNL     1       5.316   3.526  13.282  0.00  0.00    +0.000 A 
ATOM     27  C   UNL     1       6.101   3.361  12.141  0.00  0.00    +0.000 A 
ATOM     28  C   UNL     1       7.296   4.059  12.008  0.00  0.00    +0.000 A 
ATOM     29  C   UNL     1       7.695   4.940  13.012  0.00  0.00    +0.000 A 
ATOM     30  C   UNL     1       6.902   5.112  14.155  0.00  0.00    +0.000 A 
ENDBRANCH  23  25
ENDBRANCH   5  21
TORSDOF 7
ENDMDL
MODEL 6
REMARK VINA RESULT:      -8.2      1.343      2.199
REMARK  Name = 
REMARK  7 active torsions:
REMARK  status: ('A' for Active; 'I' for Inactive)
REMARK    1  A    between atoms: C_2  and  O_3
REMARK    2  A    between atoms: C_2  and  C_4
REMARK    3  A    between atoms: C_4  and  S_5
REMARK    4  A    between atoms: S_5  and  C_8
REMARK    5  A    between atoms: C_11  and  C_12
REMARK    6  A    between atoms: C_16  and  C_17
REMARK    7  A    between atoms: N_19  and  C_20
REMARK                            x       y       z     vdW  Elec       q    Type
REMARK                         _______ _______ _______ _____ _____    ______ ____
ROOT
ATOM      1  C   UNL     1       1.241   8.975  19.185  0.00  0.00    +0.000 A 
ATOM      2  C   UNL     1       0.767   9.647  18.037  0.00  0.00    +0.000 A 
ATOM      3  C   UNL     1      -0.021  10.795  18.125  0.00  0.00    +0.000 A 
ATOM      4  C   UNL     1      -0.377  11.287  19.373  0.00  0.00    +0.000 A 
ATOM      5  C   UNL     1       0.055  10.637  20.535  0.00  0.00    +0.000 A 
ATOM      6  C   UNL     1       0.860   9.491  20.441  0.00  0.00    +0.000 A 
ENDROOT
BRANCH   1  10
ATOM      7  C   UNL     1       3.750   5.485  18.842  0.00  0.00    +0.000 A 
ATOM      8  C   UNL     1       2.923   5.646  19.950  0.00  0.00    +0.000 A 
ATOM      9  C   UNL     1       2.113   6.780  20.044  0.00  0.00    +0.000 A 
ATOM     10  C   UNL     1       2.118   7.783  19.055  0.00  0.00    +0.000 A 
ATOM     11  C   UNL     1       2.984   7.603  17.959  0.00  0.00    +0.000 A 
ATOM     12  C   UNL     1       3.794   6.463  17.847  0.00  0.00    +0.000 A 
BRANCH   7  13
ATOM     13  S   UNL     1       4.769   4.039  18.725  0.00  0.00    +0.000 S 
ATOM     14  O   UNL     1       6.041   4.327  19.373  0.00  0.00    +0.000 OA
ATOM     15  O   UNL     1       4.730   3.605  17.342  0.00  0.00    +0.000 OA
BRANCH  13  16
ATOM     16  C   UNL     1       4.016   2.803  19.707  0.00  0.00    +0.000 C 
BRANCH  16  18
ATOM     17  O   UNL     1       2.086   2.009  18.567  0.00  0.00    +0.000 OA
ATOM     18  C   UNL     1       3.265   1.846  18.852  0.00  0.00    +0.000 C 
BRANCH  18  19
ATOM     19  O   UNL     1       3.978   0.813  18.355  0.00  0.00    +0.000 OA
ATOM     20  H   UNL     1       4.520   0.302  19.002  0.00  0.00    +0.000 HD
ENDBRANCH  18  19
ENDBRANCH  16  18
ENDBRANCH  13  16
ENDBRANCH   7  13
ENDBRANCH   1  10
BRANCH   5  21
ATOM     21  C   UNL     1      -0.438  11.174  21.830  0.00  0.00    +0.000 C 
ATOM     22  O   UNL     1       0.018  10.669  22.851  0.00  0.00    +0.000 OA
ATOM     23  N   UNL     1      -1.417  12.152  21.766  0.00  0.00    +0.000 N 
ATOM     24  H   UNL     1      -1.845  12.333  20.867  0.00  0.00    +0.000 HD
BRANCH  23  25
ATOM     25  C   UNL     1      -2.027  12.763  22.890  0.00  0.00    +0.000 A 
ATOM     26  C   UNL     1      -3.222  12.309  23.454  0.00  0.00    +0.000 A 
ATOM     27  C   UNL     1      -3.809  12.979  24.527  0.00  0.00    +0.000 A 
ATOM     28  C   UNL     1      -3.203  14.111  25.060  0.00  0.00    +0.000 A 
ATOM     29  C   UNL     1      -1.994  14.560  24.528  0.00  0.00    +0.000 A 
ATOM     30  C   UNL     1      -1.401  13.882  23.454  0.00  0.00    +0.000 A 
ENDBRANCH  23  25
ENDBRANCH   5  21
TORSDOF 7
ENDMDL
MODEL 7
REMARK VINA RESULT:      -8.2      4.203     10.757
REMARK  Name = 
REMARK  7 active torsions:
REMARK  status: ('A' for Active; 'I' for Inactive)
REMARK    1  A    between atoms: C_2  and  O_3
REMARK    2  A    between atoms: C_2  and  C_4
REMARK    3  A    between atoms: C_4  and  S_5
REMARK    4  A    between atoms: S_5  and  C_8
REMARK    5  A    between atoms: C_11  and  C_12
REMARK    6  A    between atoms: C_16  and  C_17
REMARK    7  A    between atoms: N_19  and  C_20
REMARK                            x       y       z     vdW  Elec       q    Type
REMARK                         _______ _______ _______ _____ _____    ______ ____
ROOT
ATOM      1  C   UNL     1       2.714   6.213  19.027  0.00  0.00    +0.000 A 
ATOM      2  C   UNL     1       2.296   5.076  19.753  0.00  0.00    +0.000 A 
ATOM      3  C   UNL     1       2.881   3.822  19.566  0.00  0.00    +0.000 A 
ATOM      4  C   UNL     1       3.888   3.671  18.623  0.00  0.00    +0.000 A 
ATOM      5  C   UNL     1       4.316   4.769  17.868  0.00  0.00    +0.000 A 
ATOM      6  C   UNL     1       3.735   6.031  18.070  0.00  0.00    +0.000 A 
ENDROOT
BRANCH   1  10
ATOM      7  C   UNL     1       0.955  10.065  19.835  0.00  0.00    +0.000 A 
ATOM      8  C   UNL     1       1.024   9.104  20.839  0.00  0.00    +0.000 A 
ATOM      9  C   UNL     1       1.601   7.862  20.562  0.00  0.00    +0.000 A 
ATOM     10  C   UNL     1       2.104   7.542  19.286  0.00  0.00    +0.000 A 
ATOM     11  C   UNL     1       1.996   8.527  18.285  0.00  0.00    +0.000 A 
ATOM     12  C   UNL     1       1.429   9.782  18.553  0.00  0.00    +0.000 A 
BRANCH   7  13
ATOM     13  S   UNL     1       0.229  11.642  20.195  0.00  0.00    +0.000 S 
ATOM     14  O   UNL     1       0.755  12.102  21.472  0.00  0.00    +0.000 OA
ATOM     15  O   UNL     1      -1.200  11.506  19.994  0.00  0.00    +0.000 OA
BRANCH  13  16
ATOM     16  C   UNL     1       0.843  12.769  19.006  0.00  0.00    +0.000 C 
BRANCH  16  18
ATOM     17  O   UNL     1      -0.493  14.710  18.688  0.00  0.00    +0.000 OA
ATOM     18  C   UNL     1      -0.273  13.542  18.399  0.00  0.00    +0.000 C 
BRANCH  18  19
ATOM     19  O   UNL     1      -0.995  12.895  17.459  0.00  0.00    +0.000 OA
ATOM     20  H   UNL     1      -0.599  12.848  16.557  0.00  0.00    +0.000 HD
ENDBRANCH  18  19
ENDBRANCH  16  18
ENDBRANCH  13  16
ENDBRANCH   7  13
ENDBRANCH   1  10
BRANCH   5  21
ATOM     21  C   UNL     1       5.337   4.509  16.819  0.00  0.00    +0.000 C 
ATOM     22  O   UNL     1       6.472   4.245  17.201  0.00  0.00    +0.000 OA
ATOM     23  N   UNL     1       4.926   4.653  15.503  0.00  0.00    +0.000 N 
ATOM     24  H   UNL     1       4.020   5.068  15.334  0.00  0.00    +0.000 HD
BRANCH  23  25
ATOM     25  C   UNL     1       5.760   4.474  14.371  0.00  0.00    +0.000 A 
ATOM     26  C   UNL     1       6.976   5.141  14.203  0.00  0.00    +0.000 A 
ATOM     27  C   UNL     1       7.733   4.970  13.043  0.00  0.00    +0.000 A 
ATOM     28  C   UNL     1       7.288   4.120  12.037  0.00  0.00    +0.000 A 
ATOM     29  C   UNL     1       6.092   3.424  12.203  0.00  0.00    +0.000 A 
ATOM     30  C   UNL     1       5.335   3.590  13.371  0.00  0.00    +0.000 A 
ENDBRANCH  23  25
ENDBRANCH   5  21
TORSDOF 7
ENDMDL
MODEL 8
REMARK VINA RESULT:      -8.2      3.689     11.016
REMARK  Name = 
REMARK  7 active torsions:
REMARK  status: ('A' for Active; 'I' for Inactive)
REMARK    1  A    between atoms: C_2  and  O_3
REMARK    2  A    between atoms: C_2  and  C_4
REMARK    3  A    between atoms: C_4  and  S_5
REMARK    4  A    between atoms: S_5  and  C_8
REMARK    5  A    between atoms: C_11  and  C_12
REMARK    6  A    between atoms: C_16  and  C_17
REMARK    7  A    between atoms: N_19  and  C_20
REMARK                            x       y       z     vdW  Elec       q    Type
REMARK                         _______ _______ _______ _____ _____    ______ ____
ROOT
ATOM      1  C   UNL     1       2.647   6.885  19.119  0.00  0.00    +0.000 A 
ATOM      2  C   UNL     1       2.665   5.662  19.823  0.00  0.00    +0.000 A 
ATOM      3  C   UNL     1       3.405   4.564  19.381  0.00  0.00    +0.000 A 
ATOM      4  C   UNL     1       4.130   4.659  18.201  0.00  0.00    +0.000 A 
ATOM      5  C   UNL     1       4.121   5.848  17.463  0.00  0.00    +0.000 A 
ATOM      6  C   UNL     1       3.386   6.954  17.920  0.00  0.00    +0.000 A 
ENDROOT
BRANCH   1  10
ATOM      7  C   UNL     1       0.459  10.249  20.696  0.00  0.00    +0.000 A 
ATOM      8  C   UNL     1       0.756   9.163  21.513  0.00  0.00    +0.000 A 
ATOM      9  C   UNL     1       1.469   8.083  20.989  0.00  0.00    +0.000 A 
ATOM     10  C   UNL     1       1.887   8.049  19.644  0.00  0.00    +0.000 A 
ATOM     11  C   UNL     1       1.549   9.153  18.836  0.00  0.00    +0.000 A 
ATOM     12  C   UNL     1       0.844  10.248  19.354  0.00  0.00    +0.000 A 
BRANCH   7  13
ATOM     13  S   UNL     1      -0.438  11.622  21.371  0.00  0.00    +0.000 S 
ATOM     14  O   UNL     1      -1.523  11.948  20.456  0.00  0.00    +0.000 OA
ATOM     15  O   UNL     1       0.539  12.627  21.740  0.00  0.00    +0.000 OA
BRANCH  13  16
ATOM     16  C   UNL     1      -1.216  11.054  22.831  0.00  0.00    +0.000 C 
BRANCH  16  18
ATOM     17  O   UNL     1      -3.309  11.686  23.766  0.00  0.00    +0.000 OA
ATOM     18  C   UNL     1      -2.236  12.034  23.291  0.00  0.00    +0.000 C 
BRANCH  18  19
ATOM     19  O   UNL     1      -1.883  13.335  23.209  0.00  0.00    +0.000 OA
ATOM     20  H   UNL     1      -1.325  13.685  23.943  0.00  0.00    +0.000 HD
ENDBRANCH  18  19
ENDBRANCH  16  18
ENDBRANCH  13  16
ENDBRANCH   7  13
ENDBRANCH   1  10
BRANCH   5  21
ATOM     21  C   UNL     1       4.851   5.843  16.168  0.00  0.00    +0.000 C 
ATOM     22  O   UNL     1       5.105   6.934  15.668  0.00  0.00    +0.000 OA
ATOM     23  N   UNL     1       5.122   4.603  15.612  0.00  0.00    +0.000 N 
ATOM     24  H   UNL     1       4.682   3.793  16.028  0.00  0.00    +0.000 HD
BRANCH  23  25
ATOM     25  C   UNL     1       5.783   4.397  14.374  0.00  0.00    +0.000 A 
ATOM     26  C   UNL     1       5.261   3.601  13.352  0.00  0.00    +0.000 A 
ATOM     27  C   UNL     1       5.978   3.387  12.174  0.00  0.00    +0.000 A 
ATOM     28  C   UNL     1       7.225   3.976  11.998  0.00  0.00    +0.000 A 
ATOM     29  C   UNL     1       7.745   4.798  12.996  0.00  0.00    +0.000 A 
ATOM     30  C   UNL     1       7.022   5.019  14.177  0.00  0.00    +0.000 A 
ENDBRANCH  23  25
ENDBRANCH   5  21
TORSDOF 7
ENDMDL
MODEL 9
REMARK VINA RESULT:      -8.0      4.065     10.683
REMARK  Name = 
REMARK  7 active torsions:
REMARK  status: ('A' for Active; 'I' for Inactive)
REMARK    1  A    between atoms: C_2  and  O_3
REMARK    2  A    between atoms: C_2  and  C_4
REMARK    3  A    between atoms: C_4  and  S_5
REMARK    4  A    between atoms: S_5  and  C_8
REMARK    5  A    between atoms: C_11  and  C_12
REMARK    6  A    between atoms: C_16  and  C_17
REMARK    7  A    between atoms: N_19  and  C_20
REMARK                            x       y       z     vdW  Elec       q    Type
REMARK                         _______ _______ _______ _____ _____    ______ ____
ROOT
ATOM      1  C   UNL     1       2.806   6.099  19.025  0.00  0.00    +0.000 A 
ATOM      2  C   UNL     1       2.651   5.151  20.060  0.00  0.00    +0.000 A 
ATOM      3  C   UNL     1       3.247   3.890  20.004  0.00  0.00    +0.000 A 
ATOM      4  C   UNL     1       3.997   3.536  18.891  0.00  0.00    +0.000 A 
ATOM      5  C   UNL     1       4.156   4.440  17.834  0.00  0.00    +0.000 A 
ATOM      6  C   UNL     1       3.567   5.713  17.901  0.00  0.00    +0.000 A 
ENDROOT
BRANCH   1  10
ATOM      7  C   UNL     1       1.049  10.017  19.413  0.00  0.00    +0.000 A 
ATOM      8  C   UNL     1       1.030   9.133  20.487  0.00  0.00    +0.000 A 
ATOM      9  C   UNL     1       1.607   7.868  20.347  0.00  0.00    +0.000 A 
ATOM     10  C   UNL     1       2.198   7.449  19.139  0.00  0.00    +0.000 A 
ATOM     11  C   UNL     1       2.179   8.358  18.062  0.00  0.00    +0.000 A 
ATOM     12  C   UNL     1       1.613   9.635  18.195  0.00  0.00    +0.000 A 
BRANCH   7  13
ATOM     13  S   UNL     1       0.323  11.624  19.601  0.00  0.00    +0.000 S 
ATOM     14  O   UNL     1       0.787  12.462  18.504  0.00  0.00    +0.000 OA
ATOM     15  O   UNL     1       0.538  12.027  20.976  0.00  0.00    +0.000 OA
BRANCH  13  16
ATOM     16  C   UNL     1      -1.398  11.439  19.349  0.00  0.00    +0.000 C 
BRANCH  16  18
ATOM     17  O   UNL     1      -1.990  10.087  17.484  0.00  0.00    +0.000 OA
ATOM     18  C   UNL     1      -1.689  11.193  17.911  0.00  0.00    +0.000 C 
BRANCH  18  19
ATOM     19  O   UNL     1      -1.660  12.280  17.110  0.00  0.00    +0.000 OA
ATOM     20  H   UNL     1      -1.821  13.150  17.545  0.00  0.00    +0.000 HD
ENDBRANCH  18  19
ENDBRANCH  16  18
ENDBRANCH  13  16
ENDBRANCH   7  13
ENDBRANCH   1  10
BRANCH   5  21
ATOM     21  C   UNL     1       4.899   3.957  16.641  0.00  0.00    +0.000 C 
ATOM     22  O   UNL     1       5.252   2.782  16.642  0.00  0.00    +0.000 OA
ATOM     23  N   UNL     1       5.182   4.897  15.662  0.00  0.00    +0.000 N 
ATOM     24  H   UNL     1       5.009   5.870  15.878  0.00  0.00    +0.000 HD
BRANCH  23  25
ATOM     25  C   UNL     1       5.901   4.633  14.469  0.00  0.00    +0.000 A 
ATOM     26  C   UNL     1       7.147   5.198  14.186  0.00  0.00    +0.000 A 
ATOM     27  C   UNL     1       7.788   4.948  12.973  0.00  0.00    +0.000 A 
ATOM     28  C   UNL     1       7.195   4.120  12.026  0.00  0.00    +0.000 A 
ATOM     29  C   UNL     1       5.966   3.524  12.306  0.00  0.00    +0.000 A 
ATOM     30  C   UNL     1       5.325   3.770  13.528  0.00  0.00    +0.000 A 
ENDBRANCH  23  25
ENDBRANCH   5  21
TORSDOF 7
ENDMDL
