MODEL 1
REMARK VINA RESULT:      -8.2      0.000      0.000
REMARK  Name = 
REMARK  5 active torsions:
REMARK  status: ('A' for Active; 'I' for Inactive)
REMARK    1  A    between atoms: C_6  and  O_7
REMARK    2  A    between atoms: C_6  and  C_8
REMARK    3  A    between atoms: C_8  and  N_9
REMARK    4  A    between atoms: C_12  and  C_13
REMARK    5  A    between atoms: C_33  and  C_34
REMARK                            x       y       z     vdW  Elec       q    Type
REMARK                         _______ _______ _______ _____ _____    ______ ____
ROOT
ATOM      1  O   UNL     1       0.740  16.574  21.679  0.00  0.00    +0.000 OA
ATOM      2  C   UNL     1       1.626  15.950  21.071  0.00  0.00    +0.000 C 
ATOM      3  N   UNL     1       1.496  14.572  20.913  0.00  0.00    +0.000 N 
ATOM      4  C   UNL     1       2.384  13.652  20.224  0.00  0.00    +0.000 C 
ATOM      5  C   UNL     1       1.759  12.421  19.594  0.00  0.00    +0.000 C 
ATOM      6  C   UNL     1       0.759  11.707  20.506  0.00  0.00    +0.000 C 
ATOM      7  C   UNL     1      -0.260  12.781  21.053  0.00  0.00    +0.000 C 
ATOM      8  C   UNL     1      -1.290  12.193  22.053  0.00  0.00    +0.000 C 
ATOM      9  C   UNL     1      -2.671  12.592  21.539  0.00  0.00    +0.000 C 
ATOM     10  C   UNL     1      -2.495  12.824  20.053  0.00  0.00    +0.000 C 
ATOM     11  C   UNL     1      -1.121  13.451  19.947  0.00  0.00    +0.000 C 
ATOM     12  C   UNL     1       0.535  13.897  21.789  0.00  0.00    +0.000 C 
ATOM     13  N   UNL     1       2.716  16.648  20.573  0.00  0.00    +0.000 N 
ATOM     14  C   UNL     1       2.730  18.120  20.761  0.00  0.00    +0.000 C 
ATOM     15  C   UNL     1       3.974  18.628  21.506  0.00  0.00    +0.000 C 
ATOM     16  O   UNL     1       5.185  18.123  20.931  0.00  0.00    +0.000 OA
ATOM     17  C   UNL     1       5.168  16.698  20.970  0.00  0.00    +0.000 C 
ATOM     18  C   UNL     1       4.013  16.114  20.130  0.00  0.00    +0.000 C 
ENDROOT
BRANCH  18  19
ATOM     19  C   UNL     1       4.271  16.204  18.633  0.00  0.00    +0.000 C 
ATOM     20  C   UNL     1       4.221  15.014  17.687  0.00  0.00    +0.000 C 
ATOM     21  C   UNL     1       3.233  16.124  17.531  0.00  0.00    +0.000 C 
ENDBRANCH  18  19
BRANCH   6  22
ATOM     22  O   UNL     1       1.475  11.176  21.640  0.00  0.00    +0.000 OA
ATOM     23  H   UNL     1       0.960  10.437  22.014  0.00  0.00    +0.000 HD
ENDBRANCH   6  22
BRANCH   6  24
ATOM     24  C   UNL     1       0.124  10.490  19.741  0.00  0.00    +0.000 C 
BRANCH  24  25
ATOM     25  N   UNL     1       1.115   9.445  19.384  0.00  0.00    +0.000 N 
ATOM     26  C   UNL     1       1.768   9.470  18.177  0.00  0.00    +0.000 A 
ATOM     27  N   UNL     1       2.475   8.501  17.689  0.00  0.00    +0.000 NA
ATOM     28  C   UNL     1       2.587   7.348  18.443  0.00  0.00    +0.000 A 
ATOM     29  C   UNL     1       2.156   7.294  19.713  0.00  0.00    +0.000 A 
ATOM     30  C   UNL     1       1.376   8.413  20.258  0.00  0.00    +0.000 A 
ATOM     31  O   UNL     1       0.954   8.352  21.410  0.00  0.00    +0.000 OA
BRANCH  28  32
ATOM     32  C   UNL     1       3.212   6.144  17.817  0.00  0.00    +0.000 A 
ATOM     33  C   UNL     1       4.403   6.230  17.072  0.00  0.00    +0.000 A 
ATOM     34  C   UNL     1       4.983   5.103  16.474  0.00  0.00    +0.000 A 
ATOM     35  C   UNL     1       4.394   3.854  16.629  0.00  0.00    +0.000 A 
ATOM     36  C   UNL     1       3.240   3.732  17.398  0.00  0.00    +0.000 A 
ATOM     37  C   UNL     1       2.659   4.864  17.993  0.00  0.00    +0.000 A 
ENDBRANCH  28  32
ENDBRANCH  24  25
ENDBRANCH   6  24
TORSDOF 5
ENDMDL
MODEL 2
REMARK VINA RESULT:      -7.9      0.730      1.099
REMARK  Name = 
REMARK  5 active torsions:
REMARK  status: ('A' for Active; 'I' for Inactive)
REMARK    1  A    between atoms: C_6  and  O_7
REMARK    2  A    between atoms: C_6  and  C_8
REMARK    3  A    between atoms: C_8  and  N_9
REMARK    4  A    between atoms: C_12  and  C_13
REMARK    5  A    between atoms: C_33  and  C_34
REMARK                            x       y       z     vdW  Elec       q    Type
REMARK                         _______ _______ _______ _____ _____    ______ ____
ROOT
ATOM      1  O   UNL     1      -0.069  16.613  20.800  0.00  0.00    +0.000 OA
ATOM      2  C   UNL     1       0.909  15.886  20.558  0.00  0.00    +0.000 C 
ATOM      3  N   UNL     1       0.770  14.505  20.680  0.00  0.00    +0.000 N 
ATOM      4  C   UNL     1       1.757  13.470  20.426  0.00  0.00    +0.000 C 
ATOM      5  C   UNL     1       1.246  12.121  19.955  0.00  0.00    +0.000 C 
ATOM      6  C   UNL     1       0.045  11.609  20.753  0.00  0.00    +0.000 C 
ATOM      7  C   UNL     1      -1.033  12.760  20.809  0.00  0.00    +0.000 C 
ATOM      8  C   UNL     1      -2.279  12.390  21.656  0.00  0.00    +0.000 C 
ATOM      9  C   UNL     1      -3.496  12.644  20.771  0.00  0.00    +0.000 C 
ATOM     10  C   UNL     1      -2.987  12.545  19.348  0.00  0.00    +0.000 C 
ATOM     11  C   UNL     1      -1.603  13.156  19.419  0.00  0.00    +0.000 C 
ATOM     12  C   UNL     1      -0.384  14.023  21.443  0.00  0.00    +0.000 C 
ATOM     13  N   UNL     1       2.106  16.474  20.177  0.00  0.00    +0.000 N 
ATOM     14  C   UNL     1       2.127  17.952  20.038  0.00  0.00    +0.000 C 
ATOM     15  C   UNL     1       3.191  18.631  20.914  0.00  0.00    +0.000 C 
ATOM     16  O   UNL     1       4.482  18.032  20.750  0.00  0.00    +0.000 OA
ATOM     17  C   UNL     1       4.408  16.650  21.094  0.00  0.00    +0.000 C 
ATOM     18  C   UNL     1       3.449  15.876  20.165  0.00  0.00    +0.000 C 
ENDROOT
BRANCH  18  19
ATOM     19  C   UNL     1       4.037  15.639  18.781  0.00  0.00    +0.000 C 
ATOM     20  C   UNL     1       4.372  14.264  18.222  0.00  0.00    +0.000 C 
ATOM     21  C   UNL     1       3.307  15.088  17.572  0.00  0.00    +0.000 C 
ENDBRANCH  18  19
BRANCH   6  22
ATOM     22  O   UNL     1       0.472  11.352  22.107  0.00  0.00    +0.000 OA
ATOM     23  H   UNL     1      -0.085  10.644  22.479  0.00  0.00    +0.000 HD
ENDBRANCH   6  22
BRANCH   6  24
ATOM     24  C   UNL     1      -0.445  10.243  20.149  0.00  0.00    +0.000 C 
BRANCH  24  25
ATOM     25  N   UNL     1       0.667   9.386  19.668  0.00  0.00    +0.000 N 
ATOM     26  C   UNL     1       1.066   9.412  18.355  0.00  0.00    +0.000 A 
ATOM     27  N   UNL     1       1.865   8.558  17.799  0.00  0.00    +0.000 NA
ATOM     28  C   UNL     1       2.362   7.539  18.590  0.00  0.00    +0.000 A 
ATOM     29  C   UNL     1       2.194   7.536  19.921  0.00  0.00    +0.000 A 
ATOM     30  C   UNL     1       1.303   8.528  20.538  0.00  0.00    +0.000 A 
ATOM     31  O   UNL     1       1.123   8.507  21.753  0.00  0.00    +0.000 OA
BRANCH  28  32
ATOM     32  C   UNL     1       3.109   6.425  17.931  0.00  0.00    +0.000 A 
ATOM     33  C   UNL     1       2.596   5.115  17.885  0.00  0.00    +0.000 A 
ATOM     34  C   UNL     1       3.300   4.066  17.278  0.00  0.00    +0.000 A 
ATOM     35  C   UNL     1       4.532   4.312  16.681  0.00  0.00    +0.000 A 
ATOM     36  C   UNL     1       5.043   5.606  16.672  0.00  0.00    +0.000 A 
ATOM     37  C   UNL     1       4.335   6.654  17.285  0.00  0.00    +0.000 A 
ENDBRANCH  28  32
ENDBRANCH  24  25
ENDBRANCH   6  24
TORSDOF 5
ENDMDL
MODEL 3
REMARK VINA RESULT:      -7.1      2.754      5.724
REMARK  Name = 
REMARK  5 active torsions:
REMARK  status: ('A' for Active; 'I' for Inactive)
REMARK    1  A    between atoms: C_6  and  O_7
REMARK    2  A    between atoms: C_6  and  C_8
REMARK    3  A    between atoms: C_8  and  N_9
REMARK    4  A    between atoms: C_12  and  C_13
REMARK    5  A    between atoms: C_33  and  C_34
REMARK                            x       y       z     vdW  Elec       q    Type
REMARK                         _______ _______ _______ _____ _____    ______ ____
ROOT
ATOM      1  O   UNL     1      -1.970  15.718  20.084  0.00  0.00    +0.000 OA
ATOM      2  C   UNL     1      -2.277  14.577  20.468  0.00  0.00    +0.000 C 
ATOM      3  N   UNL     1      -1.451  13.506  20.133  0.00  0.00    +0.000 N 
ATOM      4  C   UNL     1      -1.595  12.105  20.491  0.00  0.00    +0.000 C 
ATOM      5  C   UNL     1      -0.324  11.289  20.632  0.00  0.00    +0.000 C 
ATOM      6  C   UNL     1       0.675  11.509  19.494  0.00  0.00    +0.000 C 
ATOM      7  C   UNL     1       0.883  13.063  19.318  0.00  0.00    +0.000 C 
ATOM      8  C   UNL     1       1.826  13.423  18.139  0.00  0.00    +0.000 C 
ATOM      9  C   UNL     1       2.902  14.344  18.710  0.00  0.00    +0.000 C 
ATOM     10  C   UNL     1       2.959  14.026  20.190  0.00  0.00    +0.000 C 
ATOM     11  C   UNL     1       1.515  13.756  20.556  0.00  0.00    +0.000 C 
ATOM     12  C   UNL     1      -0.497  13.726  19.044  0.00  0.00    +0.000 C 
ATOM     13  N   UNL     1      -3.433  14.409  21.217  0.00  0.00    +0.000 N 
ATOM     14  C   UNL     1      -4.213  15.626  21.551  0.00  0.00    +0.000 C 
ATOM     15  C   UNL     1      -5.672  15.565  21.074  0.00  0.00    +0.000 C 
ATOM     16  O   UNL     1      -6.318  14.353  21.481  0.00  0.00    +0.000 OA
ATOM     17  C   UNL     1      -5.607  13.238  20.949  0.00  0.00    +0.000 C 
ATOM     18  C   UNL     1      -4.164  13.164  21.492  0.00  0.00    +0.000 C 
ENDROOT
BRANCH  18  19
ATOM     19  C   UNL     1      -4.104  12.685  22.936  0.00  0.00    +0.000 C 
ATOM     20  C   UNL     1      -2.881  12.038  23.568  0.00  0.00    +0.000 C 
ATOM     21  C   UNL     1      -3.368  13.356  24.079  0.00  0.00    +0.000 C 
ENDBRANCH  18  19
BRANCH   6  22
ATOM     22  O   UNL     1       0.090  11.011  18.272  0.00  0.00    +0.000 OA
ATOM     23  H   UNL     1       0.395  11.569  17.533  0.00  0.00    +0.000 HD
ENDBRANCH   6  22
BRANCH   6  24
ATOM     24  C   UNL     1       1.976  10.671  19.766  0.00  0.00    +0.000 C 
BRANCH  24  25
ATOM     25  N   UNL     1       1.767   9.208  19.628  0.00  0.00    +0.000 N 
ATOM     26  C   UNL     1       1.380   8.443  20.700  0.00  0.00    +0.000 A 
ATOM     27  N   UNL     1       1.384   7.149  20.735  0.00  0.00    +0.000 NA
ATOM     28  C   UNL     1       1.808   6.480  19.603  0.00  0.00    +0.000 A 
ATOM     29  C   UNL     1       2.018   7.122  18.444  0.00  0.00    +0.000 A 
ATOM     30  C   UNL     1       1.985   8.590  18.417  0.00  0.00    +0.000 A 
ATOM     31  O   UNL     1       2.208   9.181  17.363  0.00  0.00    +0.000 OA
BRANCH  28  32
ATOM     32  C   UNL     1       2.026   5.003  19.687  0.00  0.00    +0.000 A 
ATOM     33  C   UNL     1       1.140   4.162  20.386  0.00  0.00    +0.000 A 
ATOM     34  C   UNL     1       1.351   2.779  20.476  0.00  0.00    +0.000 A 
ATOM     35  C   UNL     1       2.446   2.202  19.844  0.00  0.00    +0.000 A 
ATOM     36  C   UNL     1       3.314   3.004  19.108  0.00  0.00    +0.000 A 
ATOM     37  C   UNL     1       3.102   4.389  19.024  0.00  0.00    +0.000 A 
ENDBRANCH  28  32
ENDBRANCH  24  25
ENDBRANCH   6  24
TORSDOF 5
ENDMDL
MODEL 4
REMARK VINA RESULT:      -7.1      2.809      5.808
REMARK  Name = 
REMARK  5 active torsions:
REMARK  status: ('A' for Active; 'I' for Inactive)
REMARK    1  A    between atoms: C_6  and  O_7
REMARK    2  A    between atoms: C_6  and  C_8
REMARK    3  A    between atoms: C_8  and  N_9
REMARK    4  A    between atoms: C_12  and  C_13
REMARK    5  A    between atoms: C_33  and  C_34
REMARK                            x       y       z     vdW  Elec       q    Type
REMARK                         _______ _______ _______ _____ _____    ______ ____
ROOT
ATOM      1  O   UNL     1      -2.215  15.294  20.298  0.00  0.00    +0.000 OA
ATOM      2  C   UNL     1      -2.429  14.180  20.803  0.00  0.00    +0.000 C 
ATOM      3  N   UNL     1      -1.586  13.118  20.481  0.00  0.00    +0.000 N 
ATOM      4  C   UNL     1      -1.627  11.749  20.966  0.00  0.00    +0.000 C 
ATOM      5  C   UNL     1      -0.311  11.001  21.051  0.00  0.00    +0.000 C 
ATOM      6  C   UNL     1       0.567  11.162  19.808  0.00  0.00    +0.000 C 
ATOM      7  C   UNL     1       0.682  12.701  19.484  0.00  0.00    +0.000 C 
ATOM      8  C   UNL     1       1.493  12.996  18.195  0.00  0.00    +0.000 C 
ATOM      9  C   UNL     1       2.570  14.006  18.581  0.00  0.00    +0.000 C 
ATOM     10  C   UNL     1       2.780  13.821  20.069  0.00  0.00    +0.000 C 
ATOM     11  C   UNL     1       1.390  13.526  20.594  0.00  0.00    +0.000 C 
ATOM     12  C   UNL     1      -0.748  13.281  19.290  0.00  0.00    +0.000 C 
ATOM     13  N   UNL     1      -3.501  14.031  21.671  0.00  0.00    +0.000 N 
ATOM     14  C   UNL     1      -4.306  15.239  21.977  0.00  0.00    +0.000 C 
ATOM     15  C   UNL     1      -5.797  15.077  21.649  0.00  0.00    +0.000 C 
ATOM     16  O   UNL     1      -6.343  13.880  22.215  0.00  0.00    +0.000 OA
ATOM     17  C   UNL     1      -5.631  12.752  21.712  0.00  0.00    +0.000 C 
ATOM     18  C   UNL     1      -4.142  12.785  22.118  0.00  0.00    +0.000 C 
ENDROOT
BRANCH  18  19
ATOM     19  C   UNL     1      -3.925  12.437  23.584  0.00  0.00    +0.000 C 
ATOM     20  C   UNL     1      -3.838  13.467  24.700  0.00  0.00    +0.000 C 
ATOM     21  C   UNL     1      -4.965  12.485  24.687  0.00  0.00    +0.000 C 
ENDBRANCH  18  19
BRANCH   6  22
ATOM     22  O   UNL     1      -0.103  10.536  18.693  0.00  0.00    +0.000 OA
ATOM     23  H   UNL     1      -0.791  11.143  18.364  0.00  0.00    +0.000 HD
ENDBRANCH   6  22
BRANCH   6  24
ATOM     24  C   UNL     1       1.927  10.404  20.022  0.00  0.00    +0.000 C 
BRANCH  24  25
ATOM     25  N   UNL     1       1.883   8.989  19.579  0.00  0.00    +0.000 N 
ATOM     26  C   UNL     1       1.635   7.975  20.470  0.00  0.00    +0.000 A 
ATOM     27  N   UNL     1       1.789   6.712  20.228  0.00  0.00    +0.000 NA
ATOM     28  C   UNL     1       2.238   6.352  18.971  0.00  0.00    +0.000 A 
ATOM     29  C   UNL     1       2.321   7.244  17.972  0.00  0.00    +0.000 A 
ATOM     30  C   UNL     1       2.117   8.671  18.260  0.00  0.00    +0.000 A 
ATOM     31  O   UNL     1       2.224   9.492  17.353  0.00  0.00    +0.000 OA
BRANCH  28  32
ATOM     32  C   UNL     1       2.629   4.930  18.733  0.00  0.00    +0.000 A 
ATOM     33  C   UNL     1       3.596   4.284  19.528  0.00  0.00    +0.000 A 
ATOM     34  C   UNL     1       3.973   2.955  19.298  0.00  0.00    +0.000 A 
ATOM     35  C   UNL     1       3.369   2.229  18.276  0.00  0.00    +0.000 A 
ATOM     36  C   UNL     1       2.378   2.827  17.504  0.00  0.00    +0.000 A 
ATOM     37  C   UNL     1       2.006   4.162  17.735  0.00  0.00    +0.000 A 
ENDBRANCH  28  32
ENDBRANCH  24  25
ENDBRANCH   6  24
TORSDOF 5
ENDMDL
MODEL 5
REMARK VINA RESULT:      -6.9      1.327      1.817
REMARK  Name = 
REMARK  5 active torsions:
REMARK  status: ('A' for Active; 'I' for Inactive)
REMARK    1  A    between atoms: C_6  and  O_7
REMARK    2  A    between atoms: C_6  and  C_8
REMARK    3  A    between atoms: C_8  and  N_9
REMARK    4  A    between atoms: C_12  and  C_13
REMARK    5  A    between atoms: C_33  and  C_34
REMARK                            x       y       z     vdW  Elec       q    Type
REMARK                         _______ _______ _______ _____ _____    ______ ____
ROOT
ATOM      1  O   UNL     1      -0.245  16.062  19.076  0.00  0.00    +0.000 OA
ATOM      2  C   UNL     1       0.711  15.382  19.485  0.00  0.00    +0.000 C 
ATOM      3  N   UNL     1       0.481  14.073  19.902  0.00  0.00    +0.000 N 
ATOM      4  C   UNL     1       1.439  13.095  20.387  0.00  0.00    +0.000 C 
ATOM      5  C   UNL     1       1.135  11.632  20.126  0.00  0.00    +0.000 C 
ATOM      6  C   UNL     1      -0.313  11.244  20.432  0.00  0.00    +0.000 C 
ATOM      7  C   UNL     1      -1.262  12.274  19.706  0.00  0.00    +0.000 C 
ATOM      8  C   UNL     1      -2.766  12.031  19.997  0.00  0.00    +0.000 C 
ATOM      9  C   UNL     1      -3.462  11.943  18.642  0.00  0.00    +0.000 C 
ATOM     10  C   UNL     1      -2.385  11.524  17.663  0.00  0.00    +0.000 C 
ATOM     11  C   UNL     1      -1.150  12.247  18.157  0.00  0.00    +0.000 C 
ATOM     12  C   UNL     1      -0.908  13.709  20.191  0.00  0.00    +0.000 C 
ATOM     13  N   UNL     1       1.976  15.952  19.515  0.00  0.00    +0.000 N 
ATOM     14  C   UNL     1       2.112  17.340  19.006  0.00  0.00    +0.000 C 
ATOM     15  C   UNL     1       2.710  18.310  20.036  0.00  0.00    +0.000 C 
ATOM     16  O   UNL     1       3.918  17.801  20.613  0.00  0.00    +0.000 OA
ATOM     17  C   UNL     1       3.648  16.554  21.250  0.00  0.00    +0.000 C 
ATOM     18  C   UNL     1       3.165  15.488  20.244  0.00  0.00    +0.000 C 
ENDROOT
BRANCH  18  19
ATOM     19  C   UNL     1       4.290  14.951  19.370  0.00  0.00    +0.000 C 
ATOM     20  C   UNL     1       5.056  15.790  18.358  0.00  0.00    +0.000 C 
ATOM     21  C   UNL     1       5.772  15.221  19.540  0.00  0.00    +0.000 C 
ENDBRANCH  18  19
BRANCH   6  22
ATOM     22  O   UNL     1      -0.532  11.383  21.851  0.00  0.00    +0.000 OA
ATOM     23  H   UNL     1       0.228  11.857  22.237  0.00  0.00    +0.000 HD
ENDBRANCH   6  22
BRANCH   6  24
ATOM     24  C   UNL     1      -0.540   9.732  20.069  0.00  0.00    +0.000 C 
BRANCH  24  25
ATOM     25  N   UNL     1       0.684   9.063  19.564  0.00  0.00    +0.000 N 
ATOM     26  C   UNL     1       1.114   9.251  18.274  0.00  0.00    +0.000 A 
ATOM     27  N   UNL     1       2.031   8.554  17.683  0.00  0.00    +0.000 NA
ATOM     28  C   UNL     1       2.629   7.539  18.405  0.00  0.00    +0.000 A 
ATOM     29  C   UNL     1       2.424   7.400  19.724  0.00  0.00    +0.000 A 
ATOM     30  C   UNL     1       1.397   8.217  20.385  0.00  0.00    +0.000 A 
ATOM     31  O   UNL     1       1.186   8.069  21.586  0.00  0.00    +0.000 OA
BRANCH  28  32
ATOM     32  C   UNL     1       3.529   6.586  17.687  0.00  0.00    +0.000 A 
ATOM     33  C   UNL     1       3.339   5.193  17.755  0.00  0.00    +0.000 A 
ATOM     34  C   UNL     1       4.189   4.298  17.092  0.00  0.00    +0.000 A 
ATOM     35  C   UNL     1       5.242   4.782  16.323  0.00  0.00    +0.000 A 
ATOM     36  C   UNL     1       5.427   6.156  16.202  0.00  0.00    +0.000 A 
ATOM     37  C   UNL     1       4.574   7.049  16.871  0.00  0.00    +0.000 A 
ENDBRANCH  28  32
ENDBRANCH  24  25
ENDBRANCH   6  24
TORSDOF 5
ENDMDL
MODEL 6
REMARK VINA RESULT:      -6.7      0.932      1.052
REMARK  Name = 
REMARK  5 active torsions:
REMARK  status: ('A' for Active; 'I' for Inactive)
REMARK    1  A    between atoms: C_6  and  O_7
REMARK    2  A    between atoms: C_6  and  C_8
REMARK    3  A    between atoms: C_8  and  N_9
REMARK    4  A    between atoms: C_12  and  C_13
REMARK    5  A    between atoms: C_33  and  C_34
REMARK                            x       y       z     vdW  Elec       q    Type
REMARK                         _______ _______ _______ _____ _____    ______ ____
ROOT
ATOM      1  O   UNL     1      -0.504  16.419  20.707  0.00  0.00    +0.000 OA
ATOM      2  C   UNL     1       0.501  15.750  20.415  0.00  0.00    +0.000 C 
ATOM      3  N   UNL     1       0.454  14.363  20.551  0.00  0.00    +0.000 N 
ATOM      4  C   UNL     1       1.486  13.388  20.248  0.00  0.00    +0.000 C 
ATOM      5  C   UNL     1       1.034  12.006  19.814  0.00  0.00    +0.000 C 
ATOM      6  C   UNL     1      -0.089  11.430  20.680  0.00  0.00    +0.000 C 
ATOM      7  C   UNL     1      -1.229  12.514  20.789  0.00  0.00    +0.000 C 
ATOM      8  C   UNL     1      -2.403  12.076  21.706  0.00  0.00    +0.000 C 
ATOM      9  C   UNL     1      -3.680  12.248  20.889  0.00  0.00    +0.000 C 
ATOM     10  C   UNL     1      -3.244  12.169  19.440  0.00  0.00    +0.000 C 
ATOM     11  C   UNL     1      -1.898  12.863  19.431  0.00  0.00    +0.000 C 
ATOM     12  C   UNL     1      -0.625  13.820  21.380  0.00  0.00    +0.000 C 
ATOM     13  N   UNL     1       1.637  16.406  19.964  0.00  0.00    +0.000 N 
ATOM     14  C   UNL     1       1.561  17.881  19.817  0.00  0.00    +0.000 C 
ATOM     15  C   UNL     1       2.627  18.630  20.629  0.00  0.00    +0.000 C 
ATOM     16  O   UNL     1       3.942  18.109  20.397  0.00  0.00    +0.000 OA
ATOM     17  C   UNL     1       3.971  16.729  20.752  0.00  0.00    +0.000 C 
ATOM     18  C   UNL     1       3.012  15.891  19.881  0.00  0.00    +0.000 C 
ENDROOT
BRANCH  18  19
ATOM     19  C   UNL     1       3.536  15.677  18.468  0.00  0.00    +0.000 C 
ATOM     20  C   UNL     1       3.381  16.686  17.340  0.00  0.00    +0.000 C 
ATOM     21  C   UNL     1       4.746  16.343  17.843  0.00  0.00    +0.000 C 
ENDBRANCH  18  19
BRANCH   6  22
ATOM     22  O   UNL     1       0.428  11.211  22.009  0.00  0.00    +0.000 OA
ATOM     23  H   UNL     1       0.446  12.066  22.479  0.00  0.00    +0.000 HD
ENDBRANCH   6  22
BRANCH   6  24
ATOM     24  C   UNL     1      -0.526  10.032  20.111  0.00  0.00    +0.000 C 
BRANCH  24  25
ATOM     25  N   UNL     1       0.619   9.194  19.677  0.00  0.00    +0.000 N 
ATOM     26  C   UNL     1       1.010   9.155  18.362  0.00  0.00    +0.000 A 
ATOM     27  N   UNL     1       1.843   8.303  17.854  0.00  0.00    +0.000 NA
ATOM     28  C   UNL     1       2.386   7.357  18.703  0.00  0.00    +0.000 A 
ATOM     29  C   UNL     1       2.225   7.430  20.033  0.00  0.00    +0.000 A 
ATOM     30  C   UNL     1       1.295   8.420  20.593  0.00  0.00    +0.000 A 
ATOM     31  O   UNL     1       1.122   8.468  21.809  0.00  0.00    +0.000 OA
BRANCH  28  32
ATOM     32  C   UNL     1       3.177   6.236  18.109  0.00  0.00    +0.000 A 
ATOM     33  C   UNL     1       4.548   6.369  17.820  0.00  0.00    +0.000 A 
ATOM     34  C   UNL     1       5.288   5.323  17.252  0.00  0.00    +0.000 A 
ATOM     35  C   UNL     1       4.673   4.106  16.980  0.00  0.00    +0.000 A 
ATOM     36  C   UNL     1       3.329   3.931  17.298  0.00  0.00    +0.000 A 
ATOM     37  C   UNL     1       2.590   4.984  17.864  0.00  0.00    +0.000 A 
ENDBRANCH  28  32
ENDBRANCH  24  25
ENDBRANCH   6  24
TORSDOF 5
ENDMDL
MODEL 7
REMARK VINA RESULT:      -6.7      3.572      5.018
REMARK  Name = 
REMARK  5 active torsions:
REMARK  status: ('A' for Active; 'I' for Inactive)
REMARK    1  A    between atoms: C_6  and  O_7
REMARK    2  A    between atoms: C_6  and  C_8
REMARK    3  A    between atoms: C_8  and  N_9
REMARK    4  A    between atoms: C_12  and  C_13
REMARK    5  A    between atoms: C_33  and  C_34
REMARK                            x       y       z     vdW  Elec       q    Type
REMARK                         _______ _______ _______ _____ _____    ______ ____
ROOT
ATOM      1  O   UNL     1      -4.458  13.911  20.861  0.00  0.00    +0.000 OA
ATOM      2  C   UNL     1      -3.459  14.095  21.576  0.00  0.00    +0.000 C 
ATOM      3  N   UNL     1      -2.358  13.252  21.431  0.00  0.00    +0.000 N 
ATOM      4  C   UNL     1      -1.086  13.295  22.131  0.00  0.00    +0.000 C 
ATOM      5  C   UNL     1       0.136  12.792  21.387  0.00  0.00    +0.000 C 
ATOM      6  C   UNL     1      -0.094  11.466  20.658  0.00  0.00    +0.000 C 
ATOM      7  C   UNL     1      -1.406  11.603  19.793  0.00  0.00    +0.000 C 
ATOM      8  C   UNL     1      -1.792  10.293  19.055  0.00  0.00    +0.000 C 
ATOM      9  C   UNL     1      -1.968  10.660  17.584  0.00  0.00    +0.000 C 
ATOM     10  C   UNL     1      -1.136  11.909  17.378  0.00  0.00    +0.000 C 
ATOM     11  C   UNL     1      -1.312  12.675  18.673  0.00  0.00    +0.000 C 
ATOM     12  C   UNL     1      -2.587  11.987  20.731  0.00  0.00    +0.000 C 
ATOM     13  N   UNL     1      -3.474  15.134  22.496  0.00  0.00    +0.000 N 
ATOM     14  C   UNL     1      -4.681  15.995  22.535  0.00  0.00    +0.000 C 
ATOM     15  C   UNL     1      -5.347  16.049  23.918  0.00  0.00    +0.000 C 
ATOM     16  O   UNL     1      -4.406  16.354  24.954  0.00  0.00    +0.000 OA
ATOM     17  C   UNL     1      -3.383  15.361  24.968  0.00  0.00    +0.000 C 
ATOM     18  C   UNL     1      -2.583  15.340  23.649  0.00  0.00    +0.000 C 
ENDROOT
BRANCH  18  19
ATOM     19  C   UNL     1      -1.627  16.518  23.522  0.00  0.00    +0.000 C 
ATOM     20  C   UNL     1      -0.111  16.388  23.529  0.00  0.00    +0.000 C 
ATOM     21  C   UNL     1      -0.805  16.886  22.302  0.00  0.00    +0.000 C 
ENDBRANCH  18  19
BRANCH   6  22
ATOM     22  O   UNL     1      -0.333  10.440  21.643  0.00  0.00    +0.000 OA
ATOM     23  H   UNL     1       0.216  10.628  22.427  0.00  0.00    +0.000 HD
ENDBRANCH   6  22
BRANCH   6  24
ATOM     24  C   UNL     1       1.205  11.067  19.870  0.00  0.00    +0.000 C 
BRANCH  24  25
ATOM     25  N   UNL     1       1.376   9.599  19.732  0.00  0.00    +0.000 N 
ATOM     26  C   UNL     1       1.178   8.759  20.799  0.00  0.00    +0.000 A 
ATOM     27  N   UNL     1       1.508   7.508  20.836  0.00  0.00    +0.000 NA
ATOM     28  C   UNL     1       2.106   6.970  19.712  0.00  0.00    +0.000 A 
ATOM     29  C   UNL     1       2.165   7.647  18.555  0.00  0.00    +0.000 A 
ATOM     30  C   UNL     1       1.762   9.060  18.525  0.00  0.00    +0.000 A 
ATOM     31  O   UNL     1       1.845   9.690  17.474  0.00  0.00    +0.000 OA
BRANCH  28  32
ATOM     32  C   UNL     1       2.690   5.597  19.802  0.00  0.00    +0.000 A 
ATOM     33  C   UNL     1       2.069   4.575  20.545  0.00  0.00    +0.000 A 
ATOM     34  C   UNL     1       2.622   3.291  20.641  0.00  0.00    +0.000 A 
ATOM     35  C   UNL     1       3.803   2.992  19.970  0.00  0.00    +0.000 A 
ATOM     36  C   UNL     1       4.414   3.970  19.191  0.00  0.00    +0.000 A 
ATOM     37  C   UNL     1       3.859   5.257  19.102  0.00  0.00    +0.000 A 
ENDBRANCH  28  32
ENDBRANCH  24  25
ENDBRANCH   6  24
TORSDOF 5
ENDMDL
MODEL 8
REMARK VINA RESULT:      -6.6      3.820      7.562
REMARK  Name = 
REMARK  5 active torsions:
REMARK  status: ('A' for Active; 'I' for Inactive)
REMARK    1  A    between atoms: C_6  and  O_7
REMARK    2  A    between atoms: C_6  and  C_8
REMARK    3  A    between atoms: C_8  and  N_9
REMARK    4  A    between atoms: C_12  and  C_13
REMARK    5  A    between atoms: C_33  and  C_34
REMARK                            x       y       z     vdW  Elec       q    Type
REMARK                         _______ _______ _______ _____ _____    ______ ____
ROOT
ATOM      1  O   UNL     1      -1.115  14.648  19.290  0.00  0.00    +0.000 OA
ATOM      2  C   UNL     1      -0.364  13.700  19.573  0.00  0.00    +0.000 C 
ATOM      3  N   UNL     1       0.968  13.964  19.886  0.00  0.00    +0.000 N 
ATOM      4  C   UNL     1       2.011  13.028  20.270  0.00  0.00    +0.000 C 
ATOM      5  C   UNL     1       3.102  13.539  21.190  0.00  0.00    +0.000 C 
ATOM      6  C   UNL     1       3.656  14.906  20.783  0.00  0.00    +0.000 C 
ATOM      7  C   UNL     1       2.437  15.884  20.567  0.00  0.00    +0.000 C 
ATOM      8  C   UNL     1       2.863  17.294  20.079  0.00  0.00    +0.000 C 
ATOM      9  C   UNL     1       2.223  18.297  21.035  0.00  0.00    +0.000 C 
ATOM     10  C   UNL     1       1.991  17.533  22.322  0.00  0.00    +0.000 C 
ATOM     11  C   UNL     1       1.605  16.146  21.853  0.00  0.00    +0.000 C 
ATOM     12  C   UNL     1       1.489  15.275  19.494  0.00  0.00    +0.000 C 
ATOM     13  N   UNL     1      -0.877  12.411  19.567  0.00  0.00    +0.000 N 
ATOM     14  C   UNL     1      -2.320  12.252  19.261  0.00  0.00    +0.000 C 
ATOM     15  C   UNL     1      -2.592  11.327  18.065  0.00  0.00    +0.000 C 
ATOM     16  O   UNL     1      -1.901  10.078  18.186  0.00  0.00    +0.000 OA
ATOM     17  C   UNL     1      -0.499  10.321  18.279  0.00  0.00    +0.000 C 
ATOM     18  C   UNL     1      -0.139  11.139  19.537  0.00  0.00    +0.000 C 
ENDROOT
BRANCH  18  19
ATOM     19  C   UNL     1      -0.218  10.317  20.815  0.00  0.00    +0.000 C 
ATOM     20  C   UNL     1       0.973  10.026  21.715  0.00  0.00    +0.000 C 
ATOM     21  C   UNL     1      -0.163  10.848  22.235  0.00  0.00    +0.000 C 
ENDBRANCH  18  19
BRANCH   6  22
ATOM     22  O   UNL     1       4.327  14.767  19.514  0.00  0.00    +0.000 OA
ATOM     23  H   UNL     1       4.320  15.631  19.062  0.00  0.00    +0.000 HD
ENDBRANCH   6  22
BRANCH   6  24
ATOM     24  C   UNL     1       4.729  15.373  21.832  0.00  0.00    +0.000 C 
BRANCH  24  25
ATOM     25  N   UNL     1       6.096  14.884  21.525  0.00  0.00    +0.000 N 
ATOM     26  C   UNL     1       6.847  15.456  20.529  0.00  0.00    +0.000 A 
ATOM     27  N   UNL     1       7.945  14.969  20.046  0.00  0.00    +0.000 NA
ATOM     28  C   UNL     1       8.403  13.778  20.576  0.00  0.00    +0.000 A 
ATOM     29  C   UNL     1       7.856  13.242  21.677  0.00  0.00    +0.000 A 
ATOM     30  C   UNL     1       6.624  13.823  22.227  0.00  0.00    +0.000 A 
ATOM     31  O   UNL     1       6.104  13.315  23.217  0.00  0.00    +0.000 OA
BRANCH  28  32
ATOM     32  C   UNL     1       9.541  13.086  19.897  0.00  0.00    +0.000 A 
ATOM     33  C   UNL     1      10.558  12.442  20.628  0.00  0.00    +0.000 A 
ATOM     34  C   UNL     1      11.632  11.804  19.993  0.00  0.00    +0.000 A 
ATOM     35  C   UNL     1      11.701  11.776  18.605  0.00  0.00    +0.000 A 
ATOM     36  C   UNL     1      10.686  12.366  17.857  0.00  0.00    +0.000 A 
ATOM     37  C   UNL     1       9.613  13.008  18.496  0.00  0.00    +0.000 A 
ENDBRANCH  28  32
ENDBRANCH  24  25
ENDBRANCH   6  24
TORSDOF 5
ENDMDL
MODEL 9
REMARK VINA RESULT:      -6.5      1.187      1.627
REMARK  Name = 
REMARK  5 active torsions:
REMARK  status: ('A' for Active; 'I' for Inactive)
REMARK    1  A    between atoms: C_6  and  O_7
REMARK    2  A    between atoms: C_6  and  C_8
REMARK    3  A    between atoms: C_8  and  N_9
REMARK    4  A    between atoms: C_12  and  C_13
REMARK    5  A    between atoms: C_33  and  C_34
REMARK                            x       y       z     vdW  Elec       q    Type
REMARK                         _______ _______ _______ _____ _____    ______ ____
ROOT
ATOM      1  O   UNL     1       0.744  16.678  22.261  0.00  0.00    +0.000 OA
ATOM      2  C   UNL     1       1.502  16.017  21.532  0.00  0.00    +0.000 C 
ATOM      3  N   UNL     1       1.226  14.668  21.316  0.00  0.00    +0.000 N 
ATOM      4  C   UNL     1       1.948  13.716  20.490  0.00  0.00    +0.000 C 
ATOM      5  C   UNL     1       1.149  12.588  19.866  0.00  0.00    +0.000 C 
ATOM      6  C   UNL     1       0.182  11.911  20.840  0.00  0.00    +0.000 C 
ATOM      7  C   UNL     1      -0.669  13.035  21.546  0.00  0.00    +0.000 C 
ATOM      8  C   UNL     1      -1.646  12.481  22.617  0.00  0.00    +0.000 C 
ATOM      9  C   UNL     1      -3.026  13.032  22.274  0.00  0.00    +0.000 C 
ATOM     10  C   UNL     1      -2.979  13.339  20.791  0.00  0.00    +0.000 C 
ATOM     11  C   UNL     1      -1.569  13.847  20.574  0.00  0.00    +0.000 C 
ATOM     12  C   UNL     1       0.298  14.028  22.252  0.00  0.00    +0.000 C 
ATOM     13  N   UNL     1       2.598  16.644  20.958  0.00  0.00    +0.000 N 
ATOM     14  C   UNL     1       2.771  18.094  21.221  0.00  0.00    +0.000 C 
ATOM     15  C   UNL     1       4.125  18.442  21.856  0.00  0.00    +0.000 C 
ATOM     16  O   UNL     1       5.219  17.868  21.131  0.00  0.00    +0.000 OA
ATOM     17  C   UNL     1       5.071  16.450  21.097  0.00  0.00    +0.000 C 
ATOM     18  C   UNL     1       3.787  16.024  20.354  0.00  0.00    +0.000 C 
ENDROOT
BRANCH  18  19
ATOM     19  C   UNL     1       3.902  16.183  18.844  0.00  0.00    +0.000 C 
ATOM     20  C   UNL     1       3.893  15.022  17.862  0.00  0.00    +0.000 C 
ATOM     21  C   UNL     1       2.784  16.023  17.832  0.00  0.00    +0.000 C 
ENDBRANCH  18  19
BRANCH   6  22
ATOM     22  O   UNL     1       0.955  11.249  21.863  0.00  0.00    +0.000 OA
ATOM     23  H   UNL     1       0.882  10.285  21.731  0.00  0.00    +0.000 HD
ENDBRANCH   6  22
BRANCH   6  24
ATOM     24  C   UNL     1      -0.638  10.805  20.083  0.00  0.00    +0.000 C 
BRANCH  24  25
ATOM     25  N   UNL     1       0.199   9.671  19.621  0.00  0.00    +0.000 N 
ATOM     26  C   UNL     1       0.799   8.822  20.517  0.00  0.00    +0.000 A 
ATOM     27  N   UNL     1       1.710   7.949  20.226  0.00  0.00    +0.000 NA
ATOM     28  C   UNL     1       2.111   7.860  18.907  0.00  0.00    +0.000 A 
ATOM     29  C   UNL     1       1.454   8.499  17.927  0.00  0.00    +0.000 A 
ATOM     30  C   UNL     1       0.405   9.468  18.275  0.00  0.00    +0.000 A 
ATOM     31  O   UNL     1      -0.176  10.077  17.381  0.00  0.00    +0.000 OA
BRANCH  28  32
ATOM     32  C   UNL     1       3.303   7.020  18.579  0.00  0.00    +0.000 A 
ATOM     33  C   UNL     1       3.682   5.926  19.380  0.00  0.00    +0.000 A 
ATOM     34  C   UNL     1       4.807   5.147  19.081  0.00  0.00    +0.000 A 
ATOM     35  C   UNL     1       5.569   5.431  17.953  0.00  0.00    +0.000 A 
ATOM     36  C   UNL     1       5.192   6.479  17.118  0.00  0.00    +0.000 A 
ATOM     37  C   UNL     1       4.066   7.261  17.424  0.00  0.00    +0.000 A 
ENDBRANCH  28  32
ENDBRANCH  24  25
ENDBRANCH   6  24
TORSDOF 5
ENDMDL
