MODEL 1
REMARK VINA RESULT:      -9.2      0.000      0.000
REMARK  Name = 
REMARK  4 active torsions:
REMARK  status: ('A' for Active; 'I' for Inactive)
REMARK    1  A    between atoms: N_2  and  C_4
REMARK    2  A    between atoms: C_7  and  C_8
REMARK    3  A    between atoms: C_11  and  C_12
REMARK    4  A    between atoms: C_13  and  C_14
REMARK                            x       y       z     vdW  Elec       q    Type
REMARK                         _______ _______ _______ _____ _____    ______ ____
ROOT
ATOM      1  C   UNL     1       5.798   5.660  17.492  0.00  0.00    +0.000 A 
ATOM      2  N   UNL     1       6.667   5.293  16.578  0.00  0.00    +0.000 NA
ATOM      3  N   UNL     1       7.579   6.317  16.472  0.00  0.00    +0.000 NA
ATOM      4  C   UNL     1       7.225   7.264  17.332  0.00  0.00    +0.000 A 
ATOM      5  O   UNL     1       6.080   6.885  18.023  0.00  0.00    +0.000 OA
ENDROOT
BRANCH   1   9
ATOM      6  C   UNL     1       2.381   3.645  19.061  0.00  0.00    +0.000 A 
ATOM      7  C   UNL     1       3.011   4.650  19.802  0.00  0.00    +0.000 A 
ATOM      8  C   UNL     1       4.133   5.290  19.267  0.00  0.00    +0.000 A 
ATOM      9  C   UNL     1       4.635   4.945  17.999  0.00  0.00    +0.000 A 
ATOM     10  C   UNL     1       3.993   3.928  17.274  0.00  0.00    +0.000 A 
ATOM     11  C   UNL     1       2.869   3.276  17.802  0.00  0.00    +0.000 A 
BRANCH   6  13
ATOM     12  O   UNL     1       0.380   2.495  18.818  0.00  0.00    +0.000 OA
ATOM     13  N   UNL     1       1.200   2.977  19.615  0.00  0.00    +0.000 N 
ATOM     14  O   UNL     1       1.093   2.927  20.847  0.00  0.00    +0.000 OA
ENDBRANCH   6  13
ENDBRANCH   1   9
BRANCH   4  15
ATOM     15  C   UNL     1       7.871   8.520  17.476  0.00  0.00    +0.000 C 
ATOM     16  C   UNL     1       8.580   8.804  18.579  0.00  0.00    +0.000 C 
BRANCH  16  17
ATOM     17  C   UNL     1       9.069  10.144  18.932  0.00  0.00    +0.000 A 
ATOM     18  C   UNL     1       9.341  10.497  20.277  0.00  0.00    +0.000 A 
ATOM     19  C   UNL     1      10.113  11.620  20.589  0.00  0.00    +0.000 A 
ATOM     20  C   UNL     1      10.632  12.333  19.534  0.00  0.00    +0.000 A 
ATOM     21  C   UNL     1      10.319  12.033  18.227  0.00  0.00    +0.000 A 
ATOM     22  C   UNL     1       9.511  10.972  17.892  0.00  0.00    +0.000 A 
ATOM     23  O   UNL     1      11.012  12.808  17.345  0.00  0.00    +0.000 OA
ATOM     24  C   UNL     1      12.010  13.337  18.242  0.00  0.00    +0.000 C 
ATOM     25  O   UNL     1      11.575  13.312  19.618  0.00  0.00    +0.000 OA
ENDBRANCH  16  17
ENDBRANCH   4  15
TORSDOF 4
ENDMDL
MODEL 2
REMARK VINA RESULT:      -9.0      0.344      1.021
REMARK  Name = 
REMARK  4 active torsions:
REMARK  status: ('A' for Active; 'I' for Inactive)
REMARK    1  A    between atoms: N_2  and  C_4
REMARK    2  A    between atoms: C_7  and  C_8
REMARK    3  A    between atoms: C_11  and  C_12
REMARK    4  A    between atoms: C_13  and  C_14
REMARK                            x       y       z     vdW  Elec       q    Type
REMARK                         _______ _______ _______ _____ _____    ______ ____
ROOT
ATOM      1  C   UNL     1       5.941   5.838  17.563  0.00  0.00    +0.000 A 
ATOM      2  N   UNL     1       6.834   5.462  16.677  0.00  0.00    +0.000 NA
ATOM      3  N   UNL     1       7.744   6.490  16.577  0.00  0.00    +0.000 NA
ATOM      4  C   UNL     1       7.363   7.448  17.413  0.00  0.00    +0.000 A 
ATOM      5  O   UNL     1       6.203   7.072  18.082  0.00  0.00    +0.000 OA
ENDROOT
BRANCH   1   9
ATOM      6  C   UNL     1       2.533   3.663  18.926  0.00  0.00    +0.000 A 
ATOM      7  C   UNL     1       3.217   3.258  17.774  0.00  0.00    +0.000 A 
ATOM      8  C   UNL     1       4.327   3.993  17.346  0.00  0.00    +0.000 A 
ATOM      9  C   UNL     1       4.769   5.125  18.053  0.00  0.00    +0.000 A 
ATOM     10  C   UNL     1       4.065   5.520  19.202  0.00  0.00    +0.000 A 
ATOM     11  C   UNL     1       2.949   4.795  19.639  0.00  0.00    +0.000 A 
BRANCH   6  13
ATOM     12  O   UNL     1       0.986   1.954  18.670  0.00  0.00    +0.000 OA
ATOM     13  N   UNL     1       1.374   2.892  19.383  0.00  0.00    +0.000 N 
ATOM     14  O   UNL     1       0.853   3.218  20.457  0.00  0.00    +0.000 OA
ENDBRANCH   6  13
ENDBRANCH   1   9
BRANCH   4  15
ATOM     15  C   UNL     1       7.999   8.709  17.554  0.00  0.00    +0.000 C 
ATOM     16  C   UNL     1       8.741   8.986  18.637  0.00  0.00    +0.000 C 
BRANCH  16  17
ATOM     17  C   UNL     1       9.226  10.327  18.993  0.00  0.00    +0.000 A 
ATOM     18  C   UNL     1       9.342  10.732  20.346  0.00  0.00    +0.000 A 
ATOM     19  C   UNL     1      10.106  11.847  20.704  0.00  0.00    +0.000 A 
ATOM     20  C   UNL     1      10.772  12.498  19.694  0.00  0.00    +0.000 A 
ATOM     21  C   UNL     1      10.612  12.149  18.371  0.00  0.00    +0.000 A 
ATOM     22  C   UNL     1       9.817  11.096  17.983  0.00  0.00    +0.000 A 
ATOM     23  O   UNL     1      11.432  12.865  17.551  0.00  0.00    +0.000 OA
ATOM     24  C   UNL     1      12.330  13.406  18.542  0.00  0.00    +0.000 C 
ATOM     25  O   UNL     1      11.729  13.454  19.854  0.00  0.00    +0.000 OA
ENDBRANCH  16  17
ENDBRANCH   4  15
TORSDOF 4
ENDMDL
MODEL 3
REMARK VINA RESULT:      -8.8      1.178      1.751
REMARK  Name = 
REMARK  4 active torsions:
REMARK  status: ('A' for Active; 'I' for Inactive)
REMARK    1  A    between atoms: N_2  and  C_4
REMARK    2  A    between atoms: C_7  and  C_8
REMARK    3  A    between atoms: C_11  and  C_12
REMARK    4  A    between atoms: C_13  and  C_14
REMARK                            x       y       z     vdW  Elec       q    Type
REMARK                         _______ _______ _______ _____ _____    ______ ____
ROOT
ATOM      1  C   UNL     1       5.761   5.568  17.541  0.00  0.00    +0.000 A 
ATOM      2  N   UNL     1       6.672   5.166  16.685  0.00  0.00    +0.000 NA
ATOM      3  N   UNL     1       7.569   6.202  16.553  0.00  0.00    +0.000 NA
ATOM      4  C   UNL     1       7.163   7.190  17.340  0.00  0.00    +0.000 A 
ATOM      5  O   UNL     1       5.999   6.828  18.008  0.00  0.00    +0.000 OA
ENDROOT
BRANCH   1   9
ATOM      6  C   UNL     1       2.325   3.576  19.098  0.00  0.00    +0.000 A 
ATOM      7  C   UNL     1       2.939   4.601  19.826  0.00  0.00    +0.000 A 
ATOM      8  C   UNL     1       4.068   5.232  19.295  0.00  0.00    +0.000 A 
ATOM      9  C   UNL     1       4.592   4.861  18.045  0.00  0.00    +0.000 A 
ATOM     10  C   UNL     1       3.967   3.825  17.333  0.00  0.00    +0.000 A 
ATOM     11  C   UNL     1       2.837   3.180  17.856  0.00  0.00    +0.000 A 
BRANCH   6  13
ATOM     12  O   UNL     1       0.314   2.447  18.846  0.00  0.00    +0.000 OA
ATOM     13  N   UNL     1       1.138   2.915  19.647  0.00  0.00    +0.000 N 
ATOM     14  O   UNL     1       1.029   2.858  20.878  0.00  0.00    +0.000 OA
ENDBRANCH   6  13
ENDBRANCH   1   9
BRANCH   4  15
ATOM     15  C   UNL     1       7.780   8.466  17.435  0.00  0.00    +0.000 C 
ATOM     16  C   UNL     1       8.555   8.777  18.484  0.00  0.00    +0.000 C 
BRANCH  16  17
ATOM     17  C   UNL     1       9.027  10.133  18.797  0.00  0.00    +0.000 A 
ATOM     18  C   UNL     1       8.882  11.195  17.871  0.00  0.00    +0.000 A 
ATOM     19  C   UNL     1       9.007  12.528  18.272  0.00  0.00    +0.000 A 
ATOM     20  C   UNL     1       9.229  12.759  19.609  0.00  0.00    +0.000 A 
ATOM     21  C   UNL     1       9.435  11.731  20.502  0.00  0.00    +0.000 A 
ATOM     22  C   UNL     1       9.380  10.410  20.124  0.00  0.00    +0.000 A 
ATOM     23  O   UNL     1       9.546  12.183  21.784  0.00  0.00    +0.000 OA
ATOM     24  C   UNL     1       9.035  13.519  21.599  0.00  0.00    +0.000 C 
ATOM     25  O   UNL     1       9.161  13.968  20.233  0.00  0.00    +0.000 OA
ENDBRANCH  16  17
ENDBRANCH   4  15
TORSDOF 4
ENDMDL
MODEL 4
REMARK VINA RESULT:      -8.7      1.114      1.736
REMARK  Name = 
REMARK  4 active torsions:
REMARK  status: ('A' for Active; 'I' for Inactive)
REMARK    1  A    between atoms: N_2  and  C_4
REMARK    2  A    between atoms: C_7  and  C_8
REMARK    3  A    between atoms: C_11  and  C_12
REMARK    4  A    between atoms: C_13  and  C_14
REMARK                            x       y       z     vdW  Elec       q    Type
REMARK                         _______ _______ _______ _____ _____    ______ ____
ROOT
ATOM      1  C   UNL     1       6.061   5.929  17.548  0.00  0.00    +0.000 A 
ATOM      2  N   UNL     1       6.644   6.138  16.389  0.00  0.00    +0.000 NA
ATOM      3  N   UNL     1       7.673   7.022  16.622  0.00  0.00    +0.000 NA
ATOM      4  C   UNL     1       7.671   7.311  17.918  0.00  0.00    +0.000 A 
ATOM      5  O   UNL     1       6.650   6.623  18.564  0.00  0.00    +0.000 OA
ENDROOT
BRANCH   1   9
ATOM      6  C   UNL     1       2.802   3.379  18.578  0.00  0.00    +0.000 A 
ATOM      7  C   UNL     1       4.063   3.182  19.152  0.00  0.00    +0.000 A 
ATOM      8  C   UNL     1       5.115   4.029  18.791  0.00  0.00    +0.000 A 
ATOM      9  C   UNL     1       4.929   5.073  17.869  0.00  0.00    +0.000 A 
ATOM     10  C   UNL     1       3.658   5.250  17.298  0.00  0.00    +0.000 A 
ATOM     11  C   UNL     1       2.595   4.405  17.648  0.00  0.00    +0.000 A 
BRANCH   6  13
ATOM     12  O   UNL     1       0.671   2.519  18.256  0.00  0.00    +0.000 OA
ATOM     13  N   UNL     1       1.694   2.498  18.958  0.00  0.00    +0.000 N 
ATOM     14  O   UNL     1       1.845   1.781  19.955  0.00  0.00    +0.000 OA
ENDBRANCH   6  13
ENDBRANCH   1   9
BRANCH   4  15
ATOM     15  C   UNL     1       8.535   8.245  18.548  0.00  0.00    +0.000 C 
ATOM     16  C   UNL     1       8.448   9.555  18.270  0.00  0.00    +0.000 C 
BRANCH  16  17
ATOM     17  C   UNL     1       9.444  10.558  18.670  0.00  0.00    +0.000 A 
ATOM     18  C   UNL     1      10.147  11.323  17.706  0.00  0.00    +0.000 A 
ATOM     19  C   UNL     1      10.827  12.490  18.064  0.00  0.00    +0.000 A 
ATOM     20  C   UNL     1      10.743  12.884  19.378  0.00  0.00    +0.000 A 
ATOM     21  C   UNL     1      10.117  12.112  20.332  0.00  0.00    +0.000 A 
ATOM     22  C   UNL     1       9.493  10.927  20.021  0.00  0.00    +0.000 A 
ATOM     23  O   UNL     1      10.073  12.734  21.544  0.00  0.00    +0.000 OA
ATOM     24  C   UNL     1      10.413  14.072  21.126  0.00  0.00    +0.000 C 
ATOM     25  O   UNL     1      11.140  14.087  19.879  0.00  0.00    +0.000 OA
ENDBRANCH  16  17
ENDBRANCH   4  15
TORSDOF 4
ENDMDL
MODEL 5
REMARK VINA RESULT:      -8.7      1.212      2.077
REMARK  Name = 
REMARK  4 active torsions:
REMARK  status: ('A' for Active; 'I' for Inactive)
REMARK    1  A    between atoms: N_2  and  C_4
REMARK    2  A    between atoms: C_7  and  C_8
REMARK    3  A    between atoms: C_11  and  C_12
REMARK    4  A    between atoms: C_13  and  C_14
REMARK                            x       y       z     vdW  Elec       q    Type
REMARK                         _______ _______ _______ _____ _____    ______ ____
ROOT
ATOM      1  C   UNL     1       5.761   5.616  17.591  0.00  0.00    +0.000 A 
ATOM      2  N   UNL     1       6.668   5.212  16.731  0.00  0.00    +0.000 NA
ATOM      3  N   UNL     1       7.568   6.245  16.598  0.00  0.00    +0.000 NA
ATOM      4  C   UNL     1       7.169   7.233  17.388  0.00  0.00    +0.000 A 
ATOM      5  O   UNL     1       6.005   6.874  18.059  0.00  0.00    +0.000 OA
ENDROOT
BRANCH   1   9
ATOM      6  C   UNL     1       2.303   3.534  18.969  0.00  0.00    +0.000 A 
ATOM      7  C   UNL     1       2.409   3.918  17.628  0.00  0.00    +0.000 A 
ATOM      8  C   UNL     1       3.551   4.605  17.204  0.00  0.00    +0.000 A 
ATOM      9  C   UNL     1       4.592   4.912  18.098  0.00  0.00    +0.000 A 
ATOM     10  C   UNL     1       4.463   4.526  19.442  0.00  0.00    +0.000 A 
ATOM     11  C   UNL     1       3.321   3.839  19.880  0.00  0.00    +0.000 A 
BRANCH   6  13
ATOM     12  O   UNL     1       0.898   2.741  20.636  0.00  0.00    +0.000 OA
ATOM     13  N   UNL     1       1.111   2.808  19.416  0.00  0.00    +0.000 N 
ATOM     14  O   UNL     1       0.383   2.307  18.549  0.00  0.00    +0.000 OA
ENDBRANCH   6  13
ENDBRANCH   1   9
BRANCH   4  15
ATOM     15  C   UNL     1       7.790   8.507  17.481  0.00  0.00    +0.000 C 
ATOM     16  C   UNL     1       8.577   8.811  18.524  0.00  0.00    +0.000 C 
BRANCH  16  17
ATOM     17  C   UNL     1       9.056  10.164  18.839  0.00  0.00    +0.000 A 
ATOM     18  C   UNL     1       8.968  11.214  17.892  0.00  0.00    +0.000 A 
ATOM     19  C   UNL     1       9.097  12.551  18.280  0.00  0.00    +0.000 A 
ATOM     20  C   UNL     1       9.264  12.798  19.621  0.00  0.00    +0.000 A 
ATOM     21  C   UNL     1       9.414  11.781  20.537  0.00  0.00    +0.000 A 
ATOM     22  C   UNL     1       9.356  10.455  20.176  0.00  0.00    +0.000 A 
ATOM     23  O   UNL     1       9.476  12.250  21.816  0.00  0.00    +0.000 OA
ATOM     24  C   UNL     1       8.995  13.591  21.590  0.00  0.00    +0.000 C 
ATOM     25  O   UNL     1       9.188  14.017  20.225  0.00  0.00    +0.000 OA
ENDBRANCH  16  17
ENDBRANCH   4  15
TORSDOF 4
ENDMDL
MODEL 6
REMARK VINA RESULT:      -8.6      1.130      1.606
REMARK  Name = 
REMARK  4 active torsions:
REMARK  status: ('A' for Active; 'I' for Inactive)
REMARK    1  A    between atoms: N_2  and  C_4
REMARK    2  A    between atoms: C_7  and  C_8
REMARK    3  A    between atoms: C_11  and  C_12
REMARK    4  A    between atoms: C_13  and  C_14
REMARK                            x       y       z     vdW  Elec       q    Type
REMARK                         _______ _______ _______ _____ _____    ______ ____
ROOT
ATOM      1  C   UNL     1       5.727   5.539  17.492  0.00  0.00    +0.000 A 
ATOM      2  N   UNL     1       6.372   5.433  16.352  0.00  0.00    +0.000 NA
ATOM      3  N   UNL     1       7.411   6.334  16.405  0.00  0.00    +0.000 NA
ATOM      4  C   UNL     1       7.353   6.948  17.580  0.00  0.00    +0.000 A 
ATOM      5  O   UNL     1       6.284   6.465  18.325  0.00  0.00    +0.000 OA
ENDROOT
BRANCH   1   9
ATOM      6  C   UNL     1       2.235   3.474  18.807  0.00  0.00    +0.000 A 
ATOM      7  C   UNL     1       2.124   4.711  18.162  0.00  0.00    +0.000 A 
ATOM      8  C   UNL     1       3.286   5.369  17.747  0.00  0.00    +0.000 A 
ATOM      9  C   UNL     1       4.558   4.810  17.961  0.00  0.00    +0.000 A 
ATOM     10  C   UNL     1       4.648   3.572  18.618  0.00  0.00    +0.000 A 
ATOM     11  C   UNL     1       3.491   2.903  19.042  0.00  0.00    +0.000 A 
BRANCH   6  13
ATOM     12  O   UNL     1       0.347   2.196  18.371  0.00  0.00    +0.000 OA
ATOM     13  N   UNL     1       1.019   2.777  19.238  0.00  0.00    +0.000 N 
ATOM     14  O   UNL     1       0.737   2.803  20.443  0.00  0.00    +0.000 OA
ENDBRANCH   6  13
ENDBRANCH   1   9
BRANCH   4  15
ATOM     15  C   UNL     1       8.209   8.003  17.993  0.00  0.00    +0.000 C 
ATOM     16  C   UNL     1       7.784   9.276  17.980  0.00  0.00    +0.000 C 
BRANCH  16  17
ATOM     17  C   UNL     1       8.657  10.446  18.145  0.00  0.00    +0.000 A 
ATOM     18  C   UNL     1       8.410  11.653  17.446  0.00  0.00    +0.000 A 
ATOM     19  C   UNL     1       9.009  12.854  17.840  0.00  0.00    +0.000 A 
ATOM     20  C   UNL     1       9.806  12.815  18.959  0.00  0.00    +0.000 A 
ATOM     21  C   UNL     1      10.102  11.635  19.604  0.00  0.00    +0.000 A 
ATOM     22  C   UNL     1       9.578  10.429  19.201  0.00  0.00    +0.000 A 
ATOM     23  O   UNL     1      10.833  11.840  20.736  0.00  0.00    +0.000 OA
ATOM     24  C   UNL     1      10.634  13.262  20.880  0.00  0.00    +0.000 C 
ATOM     25  O   UNL     1      10.296  13.896  19.628  0.00  0.00    +0.000 OA
ENDBRANCH  16  17
ENDBRANCH   4  15
TORSDOF 4
ENDMDL
MODEL 7
REMARK VINA RESULT:      -8.4      1.277      1.588
REMARK  Name = 
REMARK  4 active torsions:
REMARK  status: ('A' for Active; 'I' for Inactive)
REMARK    1  A    between atoms: N_2  and  C_4
REMARK    2  A    between atoms: C_7  and  C_8
REMARK    3  A    between atoms: C_11  and  C_12
REMARK    4  A    between atoms: C_13  and  C_14
REMARK                            x       y       z     vdW  Elec       q    Type
REMARK                         _______ _______ _______ _____ _____    ______ ____
ROOT
ATOM      1  C   UNL     1       6.138   6.114  17.390  0.00  0.00    +0.000 A 
ATOM      2  N   UNL     1       6.861   6.189  16.296  0.00  0.00    +0.000 NA
ATOM      3  N   UNL     1       7.837   7.129  16.536  0.00  0.00    +0.000 NA
ATOM      4  C   UNL     1       7.666   7.583  17.771  0.00  0.00    +0.000 A 
ATOM      5  O   UNL     1       6.582   6.953  18.371  0.00  0.00    +0.000 OA
ENDROOT
BRANCH   1   9
ATOM      6  C   UNL     1       2.835   3.569  18.290  0.00  0.00    +0.000 A 
ATOM      7  C   UNL     1       4.147   3.109  18.450  0.00  0.00    +0.000 A 
ATOM      8  C   UNL     1       5.211   3.962  18.141  0.00  0.00    +0.000 A 
ATOM      9  C   UNL     1       4.987   5.271  17.680  0.00  0.00    +0.000 A 
ATOM     10  C   UNL     1       3.664   5.712  17.518  0.00  0.00    +0.000 A 
ATOM     11  C   UNL     1       2.588   4.865  17.820  0.00  0.00    +0.000 A 
BRANCH   6  13
ATOM     12  O   UNL     1       1.953   1.692  19.330  0.00  0.00    +0.000 OA
ATOM     13  N   UNL     1       1.717   2.682  18.619  0.00  0.00    +0.000 N 
ATOM     14  O   UNL     1       0.600   2.974  18.173  0.00  0.00    +0.000 OA
ENDBRANCH   6  13
ENDBRANCH   1   9
BRANCH   4  15
ATOM     15  C   UNL     1       8.427   8.620  18.374  0.00  0.00    +0.000 C 
ATOM     16  C   UNL     1       8.319   9.887  17.947  0.00  0.00    +0.000 C 
BRANCH  16  17
ATOM     17  C   UNL     1       9.232  10.973  18.327  0.00  0.00    +0.000 A 
ATOM     18  C   UNL     1      10.570  10.710  18.712  0.00  0.00    +0.000 A 
ATOM     19  C   UNL     1      11.528  11.727  18.743  0.00  0.00    +0.000 A 
ATOM     20  C   UNL     1      11.125  12.977  18.339  0.00  0.00    +0.000 A 
ATOM     21  C   UNL     1       9.813  13.254  18.026  0.00  0.00    +0.000 A 
ATOM     22  C   UNL     1       8.835  12.288  18.047  0.00  0.00    +0.000 A 
ATOM     23  O   UNL     1       9.655  14.528  17.567  0.00  0.00    +0.000 OA
ATOM     24  C   UNL     1      11.037  14.850  17.308  0.00  0.00    +0.000 C 
ATOM     25  O   UNL     1      11.941  14.038  18.087  0.00  0.00    +0.000 OA
ENDBRANCH  16  17
ENDBRANCH   4  15
TORSDOF 4
ENDMDL
MODEL 8
REMARK VINA RESULT:      -8.4      1.301      2.013
REMARK  Name = 
REMARK  4 active torsions:
REMARK  status: ('A' for Active; 'I' for Inactive)
REMARK    1  A    between atoms: N_2  and  C_4
REMARK    2  A    between atoms: C_7  and  C_8
REMARK    3  A    between atoms: C_11  and  C_12
REMARK    4  A    between atoms: C_13  and  C_14
REMARK                            x       y       z     vdW  Elec       q    Type
REMARK                         _______ _______ _______ _____ _____    ______ ____
ROOT
ATOM      1  C   UNL     1       5.817   5.702  17.780  0.00  0.00    +0.000 A 
ATOM      2  N   UNL     1       6.246   5.438  16.567  0.00  0.00    +0.000 NA
ATOM      3  N   UNL     1       7.213   6.374  16.280  0.00  0.00    +0.000 NA
ATOM      4  C   UNL     1       7.332   7.167  17.338  0.00  0.00    +0.000 A 
ATOM      5  O   UNL     1       6.454   6.771  18.340  0.00  0.00    +0.000 OA
ENDROOT
BRANCH   1   9
ATOM      6  C   UNL     1       2.930   3.606  20.117  0.00  0.00    +0.000 A 
ATOM      7  C   UNL     1       4.100   2.964  19.696  0.00  0.00    +0.000 A 
ATOM      8  C   UNL     1       5.026   3.673  18.925  0.00  0.00    +0.000 A 
ATOM      9  C   UNL     1       4.807   5.016  18.571  0.00  0.00    +0.000 A 
ATOM     10  C   UNL     1       3.623   5.640  18.997  0.00  0.00    +0.000 A 
ATOM     11  C   UNL     1       2.684   4.939  19.767  0.00  0.00    +0.000 A 
BRANCH   6  13
ATOM     12  O   UNL     1       2.320   2.486  22.056  0.00  0.00    +0.000 OA
ATOM     13  N   UNL     1       1.960   2.869  20.932  0.00  0.00    +0.000 N 
ATOM     14  O   UNL     1       0.835   2.677  20.452  0.00  0.00    +0.000 OA
ENDBRANCH   6  13
ENDBRANCH   1   9
BRANCH   4  15
ATOM     15  C   UNL     1       8.177   8.307  17.414  0.00  0.00    +0.000 C 
ATOM     16  C   UNL     1       8.386   8.928  18.584  0.00  0.00    +0.000 C 
BRANCH  16  17
ATOM     17  C   UNL     1       9.029  10.242  18.725  0.00  0.00    +0.000 A 
ATOM     18  C   UNL     1       8.847  11.258  17.755  0.00  0.00    +0.000 A 
ATOM     19  C   UNL     1       9.160  12.591  18.035  0.00  0.00    +0.000 A 
ATOM     20  C   UNL     1       9.605  12.874  19.305  0.00  0.00    +0.000 A 
ATOM     21  C   UNL     1       9.846  11.883  20.231  0.00  0.00    +0.000 A 
ATOM     22  C   UNL     1       9.607  10.556  19.962  0.00  0.00    +0.000 A 
ATOM     23  O   UNL     1      10.195  12.393  21.446  0.00  0.00    +0.000 OA
ATOM     24  C   UNL     1       9.794  13.764  21.241  0.00  0.00    +0.000 C 
ATOM     25  O   UNL     1       9.751  14.117  19.842  0.00  0.00    +0.000 OA
ENDBRANCH  16  17
ENDBRANCH   4  15
TORSDOF 4
ENDMDL
MODEL 9
REMARK VINA RESULT:      -8.3      3.611      4.526
REMARK  Name = 
REMARK  4 active torsions:
REMARK  status: ('A' for Active; 'I' for Inactive)
REMARK    1  A    between atoms: N_2  and  C_4
REMARK    2  A    between atoms: C_7  and  C_8
REMARK    3  A    between atoms: C_11  and  C_12
REMARK    4  A    between atoms: C_13  and  C_14
REMARK                            x       y       z     vdW  Elec       q    Type
REMARK                         _______ _______ _______ _____ _____    ______ ____
ROOT
ATOM      1  C   UNL     1       7.286   5.409  16.794  0.00  0.00    +0.000 A 
ATOM      2  N   UNL     1       7.518   4.830  17.949  0.00  0.00    +0.000 NA
ATOM      3  N   UNL     1       7.923   5.823  18.811  0.00  0.00    +0.000 NA
ATOM      4  C   UNL     1       7.918   6.968  18.139  0.00  0.00    +0.000 A 
ATOM      5  O   UNL     1       7.506   6.755  16.828  0.00  0.00    +0.000 OA
ENDROOT
BRANCH   1   9
ATOM      6  C   UNL     1       5.840   3.665  13.180  0.00  0.00    +0.000 A 
ATOM      7  C   UNL     1       5.154   3.469  14.384  0.00  0.00    +0.000 A 
ATOM      8  C   UNL     1       5.654   4.047  15.555  0.00  0.00    +0.000 A 
ATOM      9  C   UNL     1       6.826   4.823  15.543  0.00  0.00    +0.000 A 
ATOM     10  C   UNL     1       7.505   5.001  14.327  0.00  0.00    +0.000 A 
ATOM     11  C   UNL     1       7.016   4.424  13.146  0.00  0.00    +0.000 A 
BRANCH   6  13
ATOM     12  O   UNL     1       5.925   2.098  11.471  0.00  0.00    +0.000 OA
ATOM     13  N   UNL     1       5.315   3.068  11.949  0.00  0.00    +0.000 N 
ATOM     14  O   UNL     1       4.291   3.562  11.460  0.00  0.00    +0.000 OA
ENDBRANCH   6  13
ENDBRANCH   1   9
BRANCH   4  15
ATOM     15  C   UNL     1       8.345   8.220  18.654  0.00  0.00    +0.000 C 
ATOM     16  C   UNL     1       8.252   9.334  17.913  0.00  0.00    +0.000 C 
BRANCH  16  17
ATOM     17  C   UNL     1       8.886  10.615  18.252  0.00  0.00    +0.000 A 
ATOM     18  C   UNL     1       8.531  11.813  17.585  0.00  0.00    +0.000 A 
ATOM     19  C   UNL     1       8.863  13.063  18.114  0.00  0.00    +0.000 A 
ATOM     20  C   UNL     1       9.506  13.076  19.329  0.00  0.00    +0.000 A 
ATOM     21  C   UNL     1       9.911  11.916  19.951  0.00  0.00    +0.000 A 
ATOM     22  C   UNL     1       9.654  10.673  19.423  0.00  0.00    +0.000 A 
ATOM     23  O   UNL     1      10.446  12.156  21.182  0.00  0.00    +0.000 OA
ATOM     24  C   UNL     1       9.993  13.514  21.365  0.00  0.00    +0.000 C 
ATOM     25  O   UNL     1       9.717  14.171  20.110  0.00  0.00    +0.000 OA
ENDBRANCH  16  17
ENDBRANCH   4  15
TORSDOF 4
ENDMDL
