MODEL 1
REMARK VINA RESULT:      -6.9      0.000      0.000
REMARK  Name = 
REMARK  10 active torsions:
REMARK  status: ('A' for Active; 'I' for Inactive)
REMARK    1  A    between atoms: C_1  and  C_2
REMARK    2  A    between atoms: C_5  and  C_6
REMARK    3  A    between atoms: C_6  and  N_7
REMARK    4  A    between atoms: N_12  and  C_13
REMARK    5  A    between atoms: C_13  and  C_15
REMARK    6  A    between atoms: C_15  and  O_16
REMARK    7  A    between atoms: O_16  and  C_17
REMARK    8  A    between atoms: C_17  and  C_19
REMARK    9  A    between atoms: C_19  and  C_20
REMARK   10  A    between atoms: C_19  and  C_21
REMARK                            x       y       z     vdW  Elec       q    Type
REMARK                         _______ _______ _______ _____ _____    ______ ____
ROOT
ATOM      1  N   UNL     1       3.642   4.993  17.255  0.00  0.00    +0.000 N 
ATOM      2  C   UNL     1       3.095   6.160  17.771  0.00  0.00    +0.000 A 
ATOM      3  C   UNL     1       3.850   7.257  17.641  0.00  0.00    +0.000 A 
ATOM      4  S   UNL     1       5.337   6.895  16.813  0.00  0.00    +0.000 S 
ATOM      5  C   UNL     1       4.923   5.148  16.714  0.00  0.00    +0.000 A 
ATOM      6  N   UNL     1       5.667   4.207  16.225  0.00  0.00    +0.000 NA
ENDROOT
BRANCH   6   7
ATOM      7  C   UNL     1       6.923   4.489  15.736  0.00  0.00    +0.000 C 
ATOM      8  O   UNL     1       7.974   4.393  16.366  0.00  0.00    +0.000 OA
BRANCH   7   9
ATOM      9  C   UNL     1       6.947   4.794  14.232  0.00  0.00    +0.000 C 
BRANCH   9  10
ATOM     10  O   UNL     1       6.256   3.816  13.451  0.00  0.00    +0.000 OA
BRANCH  10  11
ATOM     11  C   UNL     1       6.612   3.809  12.135  0.00  0.00    +0.000 C 
ATOM     12  O   UNL     1       7.599   4.381  11.689  0.00  0.00    +0.000 OA
BRANCH  11  13
ATOM     13  C   UNL     1       5.652   2.956  11.318  0.00  0.00    +0.000 C 
ATOM     14  C   UNL     1       5.961   1.468  11.460  0.00  0.00    +0.000 C 
ATOM     15  C   UNL     1       4.205   3.231  11.733  0.00  0.00    +0.000 C 
ENDBRANCH  11  13
ENDBRANCH  10  11
ENDBRANCH   9  10
ENDBRANCH   7   9
ENDBRANCH   6   7
BRANCH   1  16
ATOM     16  C   UNL     1       2.926   3.723  17.234  0.00  0.00    +0.000 C 
BRANCH  16  21
ATOM     17  C   UNL     1       1.042   2.336  22.591  0.00  0.00    +0.000 C 
ATOM     18  C   UNL     1       1.522   2.660  21.206  0.00  0.00    +0.000 A 
ATOM     19  C   UNL     1       2.885   2.653  20.909  0.00  0.00    +0.000 A 
ATOM     20  C   UNL     1       3.332   2.981  19.626  0.00  0.00    +0.000 A 
ATOM     21  C   UNL     1       2.427   3.315  18.608  0.00  0.00    +0.000 A 
ATOM     22  C   UNL     1       1.056   3.312  18.911  0.00  0.00    +0.000 A 
ATOM     23  C   UNL     1       0.610   2.990  20.199  0.00  0.00    +0.000 A 
ENDBRANCH  16  21
ENDBRANCH   1  16
TORSDOF 7
ENDMDL
MODEL 2
REMARK VINA RESULT:      -6.9      0.094      1.008
REMARK  Name = 
REMARK  10 active torsions:
REMARK  status: ('A' for Active; 'I' for Inactive)
REMARK    1  A    between atoms: C_1  and  C_2
REMARK    2  A    between atoms: C_5  and  C_6
REMARK    3  A    between atoms: C_6  and  N_7
REMARK    4  A    between atoms: N_12  and  C_13
REMARK    5  A    between atoms: C_13  and  C_15
REMARK    6  A    between atoms: C_15  and  O_16
REMARK    7  A    between atoms: O_16  and  C_17
REMARK    8  A    between atoms: C_17  and  C_19
REMARK    9  A    between atoms: C_19  and  C_20
REMARK   10  A    between atoms: C_19  and  C_21
REMARK                            x       y       z     vdW  Elec       q    Type
REMARK                         _______ _______ _______ _____ _____    ______ ____
ROOT
ATOM      1  N   UNL     1       3.648   5.041  17.312  0.00  0.00    +0.000 N 
ATOM      2  C   UNL     1       3.094   6.222  17.787  0.00  0.00    +0.000 A 
ATOM      3  C   UNL     1       3.838   7.320  17.612  0.00  0.00    +0.000 A 
ATOM      4  S   UNL     1       5.323   6.940  16.788  0.00  0.00    +0.000 S 
ATOM      5  C   UNL     1       4.924   5.187  16.758  0.00  0.00    +0.000 A 
ATOM      6  N   UNL     1       5.673   4.234  16.299  0.00  0.00    +0.000 NA
ENDROOT
BRANCH   6   7
ATOM      7  C   UNL     1       6.923   4.508  15.793  0.00  0.00    +0.000 C 
ATOM      8  O   UNL     1       7.982   4.418  16.411  0.00  0.00    +0.000 OA
BRANCH   7   9
ATOM      9  C   UNL     1       6.929   4.795  14.284  0.00  0.00    +0.000 C 
BRANCH   9  10
ATOM     10  O   UNL     1       6.362   3.736  13.510  0.00  0.00    +0.000 OA
BRANCH  10  11
ATOM     11  C   UNL     1       6.633   3.821  12.177  0.00  0.00    +0.000 C 
ATOM     12  O   UNL     1       7.568   4.457  11.707  0.00  0.00    +0.000 OA
BRANCH  11  13
ATOM     13  C   UNL     1       5.654   2.979  11.370  0.00  0.00    +0.000 C 
ATOM     14  C   UNL     1       5.953   1.488  11.501  0.00  0.00    +0.000 C 
ATOM     15  C   UNL     1       4.216   3.264  11.807  0.00  0.00    +0.000 C 
ENDBRANCH  11  13
ENDBRANCH  10  11
ENDBRANCH   9  10
ENDBRANCH   7   9
ENDBRANCH   6   7
BRANCH   1  16
ATOM     16  C   UNL     1       2.942   3.765  17.344  0.00  0.00    +0.000 C 
BRANCH  16  21
ATOM     17  C   UNL     1       1.003   2.212  22.635  0.00  0.00    +0.000 C 
ATOM     18  C   UNL     1       1.504   2.643  21.288  0.00  0.00    +0.000 A 
ATOM     19  C   UNL     1       0.609   3.014  20.284  0.00  0.00    +0.000 A 
ATOM     20  C   UNL     1       1.076   3.389  19.021  0.00  0.00    +0.000 A 
ATOM     21  C   UNL     1       2.449   3.410  18.734  0.00  0.00    +0.000 A 
ATOM     22  C   UNL     1       3.345   3.043  19.750  0.00  0.00    +0.000 A 
ATOM     23  C   UNL     1       2.875   2.661  21.014  0.00  0.00    +0.000 A 
ENDBRANCH  16  21
ENDBRANCH   1  16
TORSDOF 7
ENDMDL
MODEL 3
REMARK VINA RESULT:      -6.8      2.882      4.409
REMARK  Name = 
REMARK  10 active torsions:
REMARK  status: ('A' for Active; 'I' for Inactive)
REMARK    1  A    between atoms: C_1  and  C_2
REMARK    2  A    between atoms: C_5  and  C_6
REMARK    3  A    between atoms: C_6  and  N_7
REMARK    4  A    between atoms: N_12  and  C_13
REMARK    5  A    between atoms: C_13  and  C_15
REMARK    6  A    between atoms: C_15  and  O_16
REMARK    7  A    between atoms: O_16  and  C_17
REMARK    8  A    between atoms: C_17  and  C_19
REMARK    9  A    between atoms: C_19  and  C_20
REMARK   10  A    between atoms: C_19  and  C_21
REMARK                            x       y       z     vdW  Elec       q    Type
REMARK                         _______ _______ _______ _____ _____    ______ ____
ROOT
ATOM      1  N   UNL     1       3.236   6.030  17.994  0.00  0.00    +0.000 N 
ATOM      2  C   UNL     1       2.138   5.182  18.051  0.00  0.00    +0.000 A 
ATOM      3  C   UNL     1       2.408   3.907  18.350  0.00  0.00    +0.000 A 
ATOM      4  S   UNL     1       4.113   3.677  18.614  0.00  0.00    +0.000 S 
ATOM      5  C   UNL     1       4.463   5.397  18.221  0.00  0.00    +0.000 A 
ATOM      6  N   UNL     1       5.633   5.952  18.167  0.00  0.00    +0.000 NA
ENDROOT
BRANCH   6   7
ATOM      7  C   UNL     1       6.771   5.211  18.395  0.00  0.00    +0.000 C 
ATOM      8  O   UNL     1       7.299   5.028  19.490  0.00  0.00    +0.000 OA
BRANCH   7   9
ATOM      9  C   UNL     1       7.276   4.456  17.157  0.00  0.00    +0.000 C 
BRANCH   9  10
ATOM     10  O   UNL     1       7.634   5.325  16.080  0.00  0.00    +0.000 OA
BRANCH  10  11
ATOM     11  C   UNL     1       6.716   5.363  15.073  0.00  0.00    +0.000 C 
ATOM     12  O   UNL     1       5.696   6.040  15.100  0.00  0.00    +0.000 OA
BRANCH  11  13
ATOM     13  C   UNL     1       7.160   4.497  13.902  0.00  0.00    +0.000 C 
ATOM     14  C   UNL     1       6.003   3.678  13.336  0.00  0.00    +0.000 C 
ATOM     15  C   UNL     1       7.776   5.361  12.800  0.00  0.00    +0.000 C 
ENDBRANCH  11  13
ENDBRANCH  10  11
ENDBRANCH   9  10
ENDBRANCH   7   9
ENDBRANCH   6   7
BRANCH   1  16
ATOM     16  C   UNL     1       3.120   7.465  17.765  0.00  0.00    +0.000 C 
BRANCH  16  21
ATOM     17  C   UNL     1      -0.441  10.003  21.644  0.00  0.00    +0.000 C 
ATOM     18  C   UNL     1       0.499   9.369  20.660  0.00  0.00    +0.000 A 
ATOM     19  C   UNL     1       0.662   9.912  19.385  0.00  0.00    +0.000 A 
ATOM     20  C   UNL     1       1.518   9.305  18.462  0.00  0.00    +0.000 A 
ATOM     21  C   UNL     1       2.237   8.147  18.792  0.00  0.00    +0.000 A 
ATOM     22  C   UNL     1       2.074   7.610  20.080  0.00  0.00    +0.000 A 
ATOM     23  C   UNL     1       1.211   8.215  21.002  0.00  0.00    +0.000 A 
ENDBRANCH  16  21
ENDBRANCH   1  16
TORSDOF 7
ENDMDL
MODEL 4
REMARK VINA RESULT:      -6.7      2.570      4.328
REMARK  Name = 
REMARK  10 active torsions:
REMARK  status: ('A' for Active; 'I' for Inactive)
REMARK    1  A    between atoms: C_1  and  C_2
REMARK    2  A    between atoms: C_5  and  C_6
REMARK    3  A    between atoms: C_6  and  N_7
REMARK    4  A    between atoms: N_12  and  C_13
REMARK    5  A    between atoms: C_13  and  C_15
REMARK    6  A    between atoms: C_15  and  O_16
REMARK    7  A    between atoms: O_16  and  C_17
REMARK    8  A    between atoms: C_17  and  C_19
REMARK    9  A    between atoms: C_19  and  C_20
REMARK   10  A    between atoms: C_19  and  C_21
REMARK                            x       y       z     vdW  Elec       q    Type
REMARK                         _______ _______ _______ _____ _____    ______ ____
ROOT
ATOM      1  N   UNL     1       2.644   4.663  19.389  0.00  0.00    +0.000 N 
ATOM      2  C   UNL     1       1.584   3.860  18.991  0.00  0.00    +0.000 A 
ATOM      3  C   UNL     1       1.860   2.975  18.027  0.00  0.00    +0.000 A 
ATOM      4  S   UNL     1       3.532   3.073  17.553  0.00  0.00    +0.000 S 
ATOM      5  C   UNL     1       3.830   4.440  18.682  0.00  0.00    +0.000 A 
ATOM      6  N   UNL     1       4.940   5.095  18.823  0.00  0.00    +0.000 NA
ENDROOT
BRANCH   6   7
ATOM      7  C   UNL     1       6.037   4.788  18.050  0.00  0.00    +0.000 C 
ATOM      8  O   UNL     1       7.021   4.152  18.423  0.00  0.00    +0.000 OA
BRANCH   7   9
ATOM      9  C   UNL     1       5.877   5.169  16.571  0.00  0.00    +0.000 C 
BRANCH   9  10
ATOM     10  O   UNL     1       6.350   4.159  15.677  0.00  0.00    +0.000 OA
BRANCH  10  11
ATOM     11  C   UNL     1       6.930   4.651  14.546  0.00  0.00    +0.000 C 
ATOM     12  O   UNL     1       7.695   5.607  14.529  0.00  0.00    +0.000 OA
BRANCH  11  13
ATOM     13  C   UNL     1       6.542   3.819  13.332  0.00  0.00    +0.000 C 
ATOM     14  C   UNL     1       5.030   3.801  13.122  0.00  0.00    +0.000 C 
ATOM     15  C   UNL     1       7.237   4.346  12.076  0.00  0.00    +0.000 C 
ENDBRANCH  11  13
ENDBRANCH  10  11
ENDBRANCH   9  10
ENDBRANCH   7   9
ENDBRANCH   6   7
BRANCH   1  16
ATOM     16  C   UNL     1       2.546   5.623  20.482  0.00  0.00    +0.000 C 
BRANCH  16  21
ATOM     17  C   UNL     1       0.668  10.822  18.581  0.00  0.00    +0.000 C 
ATOM     18  C   UNL     1       1.178   9.502  19.081  0.00  0.00    +0.000 A 
ATOM     19  C   UNL     1       1.913   8.662  18.243  0.00  0.00    +0.000 A 
ATOM     20  C   UNL     1       2.364   7.422  18.702  0.00  0.00    +0.000 A 
ATOM     21  C   UNL     1       2.099   6.994  20.011  0.00  0.00    +0.000 A 
ATOM     22  C   UNL     1       1.366   7.847  20.852  0.00  0.00    +0.000 A 
ATOM     23  C   UNL     1       0.908   9.087  20.388  0.00  0.00    +0.000 A 
ENDBRANCH  16  21
ENDBRANCH   1  16
TORSDOF 7
ENDMDL
MODEL 5
REMARK VINA RESULT:      -6.7      2.493      4.186
REMARK  Name = 
REMARK  10 active torsions:
REMARK  status: ('A' for Active; 'I' for Inactive)
REMARK    1  A    between atoms: C_1  and  C_2
REMARK    2  A    between atoms: C_5  and  C_6
REMARK    3  A    between atoms: C_6  and  N_7
REMARK    4  A    between atoms: N_12  and  C_13
REMARK    5  A    between atoms: C_13  and  C_15
REMARK    6  A    between atoms: C_15  and  O_16
REMARK    7  A    between atoms: O_16  and  C_17
REMARK    8  A    between atoms: C_17  and  C_19
REMARK    9  A    between atoms: C_19  and  C_20
REMARK   10  A    between atoms: C_19  and  C_21
REMARK                            x       y       z     vdW  Elec       q    Type
REMARK                         _______ _______ _______ _____ _____    ______ ____
ROOT
ATOM      1  N   UNL     1       2.972   5.155  18.879  0.00  0.00    +0.000 N 
ATOM      2  C   UNL     1       1.822   4.379  18.829  0.00  0.00    +0.000 A 
ATOM      3  C   UNL     1       1.831   3.391  17.927  0.00  0.00    +0.000 A 
ATOM      4  S   UNL     1       3.344   3.348  17.067  0.00  0.00    +0.000 S 
ATOM      5  C   UNL     1       3.947   4.799  17.941  0.00  0.00    +0.000 A 
ATOM      6  N   UNL     1       5.080   5.399  17.747  0.00  0.00    +0.000 NA
ENDROOT
BRANCH   6   7
ATOM      7  C   UNL     1       5.949   4.957  16.775  0.00  0.00    +0.000 C 
ATOM      8  O   UNL     1       6.859   4.147  16.943  0.00  0.00    +0.000 OA
BRANCH   7   9
ATOM      9  C   UNL     1       5.593   5.439  15.362  0.00  0.00    +0.000 C 
BRANCH   9  10
ATOM     10  O   UNL     1       5.342   4.367  14.451  0.00  0.00    +0.000 OA
BRANCH  10  11
ATOM     11  C   UNL     1       6.291   4.233  13.481  0.00  0.00    +0.000 C 
ATOM     12  O   UNL     1       7.327   4.885  13.442  0.00  0.00    +0.000 OA
BRANCH  11  13
ATOM     13  C   UNL     1       5.911   3.134  12.499  0.00  0.00    +0.000 C 
ATOM     14  C   UNL     1       4.617   3.463  11.760  0.00  0.00    +0.000 C 
ATOM     15  C   UNL     1       7.041   2.898  11.495  0.00  0.00    +0.000 C 
ENDBRANCH  11  13
ENDBRANCH  10  11
ENDBRANCH   9  10
ENDBRANCH   7   9
ENDBRANCH   6   7
BRANCH   1  16
ATOM     16  C   UNL     1       3.170   6.220  19.855  0.00  0.00    +0.000 C 
BRANCH  16  21
ATOM     17  C   UNL     1      -0.138  10.865  18.569  0.00  0.00    +0.000 C 
ATOM     18  C   UNL     1       0.737   9.694  18.907  0.00  0.00    +0.000 A 
ATOM     19  C   UNL     1       1.507   9.075  17.922  0.00  0.00    +0.000 A 
ATOM     20  C   UNL     1       2.300   7.967  18.234  0.00  0.00    +0.000 A 
ATOM     21  C   UNL     1       2.349   7.457  19.539  0.00  0.00    +0.000 A 
ATOM     22  C   UNL     1       1.578   8.088  20.528  0.00  0.00    +0.000 A 
ATOM     23  C   UNL     1       0.778   9.194  20.213  0.00  0.00    +0.000 A 
ENDBRANCH  16  21
ENDBRANCH   1  16
TORSDOF 7
ENDMDL
MODEL 6
REMARK VINA RESULT:      -6.6      2.855      7.264
REMARK  Name = 
REMARK  10 active torsions:
REMARK  status: ('A' for Active; 'I' for Inactive)
REMARK    1  A    between atoms: C_1  and  C_2
REMARK    2  A    between atoms: C_5  and  C_6
REMARK    3  A    between atoms: C_6  and  N_7
REMARK    4  A    between atoms: N_12  and  C_13
REMARK    5  A    between atoms: C_13  and  C_15
REMARK    6  A    between atoms: C_15  and  O_16
REMARK    7  A    between atoms: O_16  and  C_17
REMARK    8  A    between atoms: C_17  and  C_19
REMARK    9  A    between atoms: C_19  and  C_20
REMARK   10  A    between atoms: C_19  and  C_21
REMARK                            x       y       z     vdW  Elec       q    Type
REMARK                         _______ _______ _______ _____ _____    ______ ____
ROOT
ATOM      1  N   UNL     1       5.551   5.945  16.769  0.00  0.00    +0.000 N 
ATOM      2  C   UNL     1       4.941   7.185  16.645  0.00  0.00    +0.000 A 
ATOM      3  C   UNL     1       3.885   7.391  17.440  0.00  0.00    +0.000 A 
ATOM      4  S   UNL     1       3.588   6.006  18.451  0.00  0.00    +0.000 S 
ATOM      5  C   UNL     1       4.932   5.088  17.685  0.00  0.00    +0.000 A 
ATOM      6  N   UNL     1       5.271   3.864  17.940  0.00  0.00    +0.000 NA
ENDROOT
BRANCH   6   7
ATOM      7  C   UNL     1       4.565   3.117  18.857  0.00  0.00    +0.000 C 
ATOM      8  O   UNL     1       4.806   3.047  20.060  0.00  0.00    +0.000 OA
BRANCH   7   9
ATOM      9  C   UNL     1       3.296   2.472  18.282  0.00  0.00    +0.000 C 
BRANCH   9  10
ATOM     10  O   UNL     1       2.465   1.881  19.284  0.00  0.00    +0.000 OA
BRANCH  10  11
ATOM     11  C   UNL     1       1.202   2.393  19.324  0.00  0.00    +0.000 C 
ATOM     12  O   UNL     1       0.382   2.266  18.423  0.00  0.00    +0.000 OA
BRANCH  11  13
ATOM     13  C   UNL     1       0.940   3.086  20.654  0.00  0.00    +0.000 C 
ATOM     14  C   UNL     1       1.825   2.525  21.765  0.00  0.00    +0.000 C 
ATOM     15  C   UNL     1       1.158   4.594  20.524  0.00  0.00    +0.000 C 
ENDBRANCH  11  13
ENDBRANCH  10  11
ENDBRANCH   9  10
ENDBRANCH   7   9
ENDBRANCH   6   7
BRANCH   1  16
ATOM     16  C   UNL     1       6.762   5.580  16.043  0.00  0.00    +0.000 C 
BRANCH  16  21
ATOM     17  C   UNL     1       5.715   2.645  11.097  0.00  0.00    +0.000 C 
ATOM     18  C   UNL     1       5.969   3.426  12.354  0.00  0.00    +0.000 A 
ATOM     19  C   UNL     1       7.168   4.118  12.529  0.00  0.00    +0.000 A 
ATOM     20  C   UNL     1       7.413   4.822  13.711  0.00  0.00    +0.000 A 
ATOM     21  C   UNL     1       6.464   4.858  14.742  0.00  0.00    +0.000 A 
ATOM     22  C   UNL     1       5.256   4.167  14.557  0.00  0.00    +0.000 A 
ATOM     23  C   UNL     1       5.014   3.455  13.375  0.00  0.00    +0.000 A 
ENDBRANCH  16  21
ENDBRANCH   1  16
TORSDOF 7
ENDMDL
MODEL 7
REMARK VINA RESULT:      -6.6      2.995      5.401
REMARK  Name = 
REMARK  10 active torsions:
REMARK  status: ('A' for Active; 'I' for Inactive)
REMARK    1  A    between atoms: C_1  and  C_2
REMARK    2  A    between atoms: C_5  and  C_6
REMARK    3  A    between atoms: C_6  and  N_7
REMARK    4  A    between atoms: N_12  and  C_13
REMARK    5  A    between atoms: C_13  and  C_15
REMARK    6  A    between atoms: C_15  and  O_16
REMARK    7  A    between atoms: O_16  and  C_17
REMARK    8  A    between atoms: C_17  and  C_19
REMARK    9  A    between atoms: C_19  and  C_20
REMARK   10  A    between atoms: C_19  and  C_21
REMARK                            x       y       z     vdW  Elec       q    Type
REMARK                         _______ _______ _______ _____ _____    ______ ____
ROOT
ATOM      1  N   UNL     1       2.134   4.695  19.924  0.00  0.00    +0.000 N 
ATOM      2  C   UNL     1       0.919   4.168  20.339  0.00  0.00    +0.000 A 
ATOM      3  C   UNL     1       0.548   3.031  19.739  0.00  0.00    +0.000 A 
ATOM      4  S   UNL     1       1.750   2.513  18.592  0.00  0.00    +0.000 S 
ATOM      5  C   UNL     1       2.760   3.966  18.907  0.00  0.00    +0.000 A 
ATOM      6  N   UNL     1       3.868   4.278  18.311  0.00  0.00    +0.000 NA
ENDROOT
BRANCH   6   7
ATOM      7  C   UNL     1       4.373   3.481  17.309  0.00  0.00    +0.000 C 
ATOM      8  O   UNL     1       4.262   2.258  17.242  0.00  0.00    +0.000 OA
BRANCH   7   9
ATOM      9  C   UNL     1       4.974   4.268  16.136  0.00  0.00    +0.000 C 
BRANCH   9  10
ATOM     10  O   UNL     1       6.386   4.091  16.008  0.00  0.00    +0.000 OA
BRANCH  10  11
ATOM     11  C   UNL     1       7.092   5.257  16.031  0.00  0.00    +0.000 C 
ATOM     12  O   UNL     1       7.704   5.708  15.071  0.00  0.00    +0.000 OA
BRANCH  11  13
ATOM     13  C   UNL     1       6.968   5.939  17.387  0.00  0.00    +0.000 C 
ATOM     14  C   UNL     1       7.692   5.156  18.479  0.00  0.00    +0.000 C 
ATOM     15  C   UNL     1       7.510   7.367  17.321  0.00  0.00    +0.000 C 
ENDBRANCH  11  13
ENDBRANCH  10  11
ENDBRANCH   9  10
ENDBRANCH   7   9
ENDBRANCH   6   7
BRANCH   1  16
ATOM     16  C   UNL     1       2.733   5.881  20.527  0.00  0.00    +0.000 C 
BRANCH  16  21
ATOM     17  C   UNL     1       0.483  10.939  18.649  0.00  0.00    +0.000 C 
ATOM     18  C   UNL     1       1.033   9.624  19.120  0.00  0.00    +0.000 A 
ATOM     19  C   UNL     1       0.809   9.188  20.426  0.00  0.00    +0.000 A 
ATOM     20  C   UNL     1       1.344   7.976  20.871  0.00  0.00    +0.000 A 
ATOM     21  C   UNL     1       2.110   7.167  20.019  0.00  0.00    +0.000 A 
ATOM     22  C   UNL     1       2.326   7.607  18.703  0.00  0.00    +0.000 A 
ATOM     23  C   UNL     1       1.794   8.825  18.261  0.00  0.00    +0.000 A 
ENDBRANCH  16  21
ENDBRANCH   1  16
TORSDOF 7
ENDMDL
MODEL 8
REMARK VINA RESULT:      -6.5      3.091      4.496
REMARK  Name = 
REMARK  10 active torsions:
REMARK  status: ('A' for Active; 'I' for Inactive)
REMARK    1  A    between atoms: C_1  and  C_2
REMARK    2  A    between atoms: C_5  and  C_6
REMARK    3  A    between atoms: C_6  and  N_7
REMARK    4  A    between atoms: N_12  and  C_13
REMARK    5  A    between atoms: C_13  and  C_15
REMARK    6  A    between atoms: C_15  and  O_16
REMARK    7  A    between atoms: O_16  and  C_17
REMARK    8  A    between atoms: C_17  and  C_19
REMARK    9  A    between atoms: C_19  and  C_20
REMARK   10  A    between atoms: C_19  and  C_21
REMARK                            x       y       z     vdW  Elec       q    Type
REMARK                         _______ _______ _______ _____ _____    ______ ____
ROOT
ATOM      1  N   UNL     1       2.756   6.299  18.054  0.00  0.00    +0.000 N 
ATOM      2  C   UNL     1       1.717   5.381  18.110  0.00  0.00    +0.000 A 
ATOM      3  C   UNL     1       2.074   4.120  18.381  0.00  0.00    +0.000 A 
ATOM      4  S   UNL     1       3.794   4.000  18.619  0.00  0.00    +0.000 S 
ATOM      5  C   UNL     1       4.024   5.745  18.254  0.00  0.00    +0.000 A 
ATOM      6  N   UNL     1       5.155   6.377  18.195  0.00  0.00    +0.000 NA
ENDROOT
BRANCH   6   7
ATOM      7  C   UNL     1       6.342   5.709  18.395  0.00  0.00    +0.000 C 
ATOM      8  O   UNL     1       6.575   4.921  19.310  0.00  0.00    +0.000 OA
BRANCH   7   9
ATOM      9  C   UNL     1       7.355   5.894  17.256  0.00  0.00    +0.000 C 
BRANCH   9  10
ATOM     10  O   UNL     1       7.460   4.748  16.408  0.00  0.00    +0.000 OA
BRANCH  10  11
ATOM     11  C   UNL     1       7.220   5.012  15.092  0.00  0.00    +0.000 C 
ATOM     12  O   UNL     1       7.986   5.635  14.368  0.00  0.00    +0.000 OA
BRANCH  11  13
ATOM     13  C   UNL     1       5.909   4.382  14.644  0.00  0.00    +0.000 C 
ATOM     14  C   UNL     1       6.033   3.747  13.262  0.00  0.00    +0.000 C 
ATOM     15  C   UNL     1       5.442   3.337  15.658  0.00  0.00    +0.000 C 
ENDBRANCH  11  13
ENDBRANCH  10  11
ENDBRANCH   9  10
ENDBRANCH   7   9
ENDBRANCH   6   7
BRANCH   1  16
ATOM     16  C   UNL     1       2.542   7.728  17.853  0.00  0.00    +0.000 C 
BRANCH  16  21
ATOM     17  C   UNL     1      -0.397  10.140  22.293  0.00  0.00    +0.000 C 
ATOM     18  C   UNL     1       0.385   9.538  21.162  0.00  0.00    +0.000 A 
ATOM     19  C   UNL     1       0.350  10.113  19.891  0.00  0.00    +0.000 A 
ATOM     20  C   UNL     1       1.057   9.537  18.833  0.00  0.00    +0.000 A 
ATOM     21  C   UNL     1       1.823   8.377  19.021  0.00  0.00    +0.000 A 
ATOM     22  C   UNL     1       1.861   7.807  20.303  0.00  0.00    +0.000 A 
ATOM     23  C   UNL     1       1.146   8.382  21.362  0.00  0.00    +0.000 A 
ENDBRANCH  16  21
ENDBRANCH   1  16
TORSDOF 7
ENDMDL
MODEL 9
REMARK VINA RESULT:      -6.4      3.924      5.980
REMARK  Name = 
REMARK  10 active torsions:
REMARK  status: ('A' for Active; 'I' for Inactive)
REMARK    1  A    between atoms: C_1  and  C_2
REMARK    2  A    between atoms: C_5  and  C_6
REMARK    3  A    between atoms: C_6  and  N_7
REMARK    4  A    between atoms: N_12  and  C_13
REMARK    5  A    between atoms: C_13  and  C_15
REMARK    6  A    between atoms: C_15  and  O_16
REMARK    7  A    between atoms: O_16  and  C_17
REMARK    8  A    between atoms: C_17  and  C_19
REMARK    9  A    between atoms: C_19  and  C_20
REMARK   10  A    between atoms: C_19  and  C_21
REMARK                            x       y       z     vdW  Elec       q    Type
REMARK                         _______ _______ _______ _____ _____    ______ ____
ROOT
ATOM      1  N   UNL     1       4.786   5.281  16.853  0.00  0.00    +0.000 N 
ATOM      2  C   UNL     1       4.800   4.253  15.921  0.00  0.00    +0.000 A 
ATOM      3  C   UNL     1       6.012   3.827  15.548  0.00  0.00    +0.000 A 
ATOM      4  S   UNL     1       7.262   4.700  16.387  0.00  0.00    +0.000 S 
ATOM      5  C   UNL     1       6.055   5.737  17.224  0.00  0.00    +0.000 A 
ATOM      6  N   UNL     1       6.311   6.720  18.030  0.00  0.00    +0.000 NA
ENDROOT
BRANCH   6   7
ATOM      7  C   UNL     1       7.611   7.082  18.302  0.00  0.00    +0.000 C 
ATOM      8  O   UNL     1       8.379   6.485  19.054  0.00  0.00    +0.000 OA
BRANCH   7   9
ATOM      9  C   UNL     1       8.121   8.246  17.441  0.00  0.00    +0.000 C 
BRANCH   9  10
ATOM     10  O   UNL     1       7.831   9.528  18.003  0.00  0.00    +0.000 OA
BRANCH  10  11
ATOM     11  C   UNL     1       8.894  10.109  18.629  0.00  0.00    +0.000 C 
ATOM     12  O   UNL     1       9.317   9.763  19.725  0.00  0.00    +0.000 OA
BRANCH  11  13
ATOM     13  C   UNL     1       9.507  11.196  17.758  0.00  0.00    +0.000 C 
ATOM     14  C   UNL     1       8.607  12.426  17.676  0.00  0.00    +0.000 C 
ATOM     15  C   UNL     1      10.887  11.592  18.286  0.00  0.00    +0.000 C 
ENDBRANCH  11  13
ENDBRANCH  10  11
ENDBRANCH   9  10
ENDBRANCH   7   9
ENDBRANCH   6   7
BRANCH   1  16
ATOM     16  C   UNL     1       3.557   5.811  17.433  0.00  0.00    +0.000 C 
BRANCH  16  21
ATOM     17  C   UNL     1       1.463   2.580  21.832  0.00  0.00    +0.000 C 
ATOM     18  C   UNL     1       2.029   3.414  20.720  0.00  0.00    +0.000 A 
ATOM     19  C   UNL     1       1.779   4.786  20.664  0.00  0.00    +0.000 A 
ATOM     20  C   UNL     1       2.285   5.556  19.613  0.00  0.00    +0.000 A 
ATOM     21  C   UNL     1       3.059   4.976  18.598  0.00  0.00    +0.000 A 
ATOM     22  C   UNL     1       3.315   3.597  18.664  0.00  0.00    +0.000 A 
ATOM     23  C   UNL     1       2.801   2.825  19.714  0.00  0.00    +0.000 A 
ENDBRANCH  16  21
ENDBRANCH   1  16
TORSDOF 7
ENDMDL
