MODEL 1
REMARK VINA RESULT:      -8.8      0.000      0.000
REMARK  Name = 
REMARK  8 active torsions:
REMARK  status: ('A' for Active; 'I' for Inactive)
REMARK    1  A    between atoms: C_1  and  C_2
REMARK    2  A    between atoms: C_2  and  O_3
REMARK    3  A    between atoms: O_3  and  C_4
REMARK    4  A    between atoms: C_7  and  C_8
REMARK    5  A    between atoms: C_12  and  N_13
REMARK    6  A    between atoms: C_14  and  C_16
REMARK    7  A    between atoms: C_16  and  O_17
REMARK    8  A    between atoms: O_17  and  C_18
REMARK                            x       y       z     vdW  Elec       q    Type
REMARK                         _______ _______ _______ _____ _____    ______ ____
ROOT
ATOM      1  C   UNL     1       2.834   5.765  18.328  0.00  0.00    +0.000 A 
ATOM      2  C   UNL     1       2.007   4.732  17.845  0.00  0.00    +0.000 A 
ATOM      3  C   UNL     1       2.536   3.503  17.437  0.00  0.00    +0.000 A 
ATOM      4  C   UNL     1       3.905   3.279  17.510  0.00  0.00    +0.000 A 
ATOM      5  C   UNL     1       4.739   4.279  18.004  0.00  0.00    +0.000 A 
ATOM      6  C   UNL     1       4.219   5.513  18.394  0.00  0.00    +0.000 A 
ENDROOT
BRANCH   1  10
ATOM      7  C   UNL     1       1.343   9.448  19.675  0.00  0.00    +0.000 A 
ATOM      8  C   UNL     1       1.666   9.364  18.337  0.00  0.00    +0.000 A 
ATOM      9  C   UNL     1       2.133   8.147  17.848  0.00  0.00    +0.000 A 
ATOM     10  C   UNL     1       2.287   7.074  18.722  0.00  0.00    +0.000 A 
ATOM     11  N   UNL     1       1.955   7.207  20.028  0.00  0.00    +0.000 NA
ATOM     12  N   UNL     1       1.481   8.400  20.508  0.00  0.00    +0.000 NA
BRANCH   7  13
ATOM     13  O   UNL     1       0.916  10.669  20.153  0.00  0.00    +0.000 OA
BRANCH  13  15
ATOM     14  C   UNL     1      -1.317  11.258  19.538  0.00  0.00    +0.000 C 
ATOM     15  C   UNL     1      -0.441  10.624  20.602  0.00  0.00    +0.000 C 
ENDBRANCH  13  15
ENDBRANCH   7  13
ENDBRANCH   1  10
BRANCH   5  16
ATOM     16  N   UNL     1       6.104   4.024  18.122  0.00  0.00    +0.000 N 
ATOM     17  C   UNL     1       7.094   4.654  17.402  0.00  0.00    +0.000 C 
ATOM     18  O   UNL     1       8.274   4.367  17.614  0.00  0.00    +0.000 OA
ATOM     19  H   UNL     1       6.413   3.283  18.738  0.00  0.00    +0.000 HD
BRANCH  17  20
ATOM     20  C   UNL     1       6.685   5.682  16.349  0.00  0.00    +0.000 C 
BRANCH  20  21
ATOM     21  O   UNL     1       7.573   5.507  15.249  0.00  0.00    +0.000 OA
BRANCH  21  22
ATOM     22  C   UNL     1       7.087   4.831  14.169  0.00  0.00    +0.000 A 
ATOM     23  C   UNL     1       5.836   4.241  14.361  0.00  0.00    +0.000 A 
ATOM     24  C   UNL     1       5.206   3.558  13.319  0.00  0.00    +0.000 A 
ATOM     25  C   UNL     1       5.821   3.477  12.073  0.00  0.00    +0.000 A 
ATOM     26  C   UNL     1       7.064   4.076  11.872  0.00  0.00    +0.000 A 
ATOM     27  C   UNL     1       7.700   4.753  12.918  0.00  0.00    +0.000 A 
ENDBRANCH  21  22
ENDBRANCH  20  21
ENDBRANCH  17  20
ENDBRANCH   5  16
TORSDOF 7
ENDMDL
MODEL 2
REMARK VINA RESULT:      -8.7      0.872      1.031
REMARK  Name = 
REMARK  8 active torsions:
REMARK  status: ('A' for Active; 'I' for Inactive)
REMARK    1  A    between atoms: C_1  and  C_2
REMARK    2  A    between atoms: C_2  and  O_3
REMARK    3  A    between atoms: O_3  and  C_4
REMARK    4  A    between atoms: C_7  and  C_8
REMARK    5  A    between atoms: C_12  and  N_13
REMARK    6  A    between atoms: C_14  and  C_16
REMARK    7  A    between atoms: C_16  and  O_17
REMARK    8  A    between atoms: O_17  and  C_18
REMARK                            x       y       z     vdW  Elec       q    Type
REMARK                         _______ _______ _______ _____ _____    ______ ____
ROOT
ATOM      1  C   UNL     1       2.876   5.733  18.459  0.00  0.00    +0.000 A 
ATOM      2  C   UNL     1       2.025   4.720  17.974  0.00  0.00    +0.000 A 
ATOM      3  C   UNL     1       2.529   3.500  17.512  0.00  0.00    +0.000 A 
ATOM      4  C   UNL     1       3.899   3.266  17.529  0.00  0.00    +0.000 A 
ATOM      5  C   UNL     1       4.757   4.245  18.022  0.00  0.00    +0.000 A 
ATOM      6  C   UNL     1       4.261   5.469  18.468  0.00  0.00    +0.000 A 
ENDROOT
BRANCH   1  10
ATOM      7  C   UNL     1       1.340   9.490  19.517  0.00  0.00    +0.000 A 
ATOM      8  C   UNL     1       1.338   8.524  20.500  0.00  0.00    +0.000 A 
ATOM      9  C   UNL     1       1.871   7.274  20.194  0.00  0.00    +0.000 A 
ATOM     10  C   UNL     1       2.354   7.033  18.911  0.00  0.00    +0.000 A 
ATOM     11  N   UNL     1       2.334   8.017  17.980  0.00  0.00    +0.000 NA
ATOM     12  N   UNL     1       1.825   9.252  18.283  0.00  0.00    +0.000 NA
BRANCH   7  13
ATOM     13  O   UNL     1       0.778  10.712  19.823  0.00  0.00    +0.000 OA
BRANCH  13  15
ATOM     14  C   UNL     1      -1.426  10.564  18.910  0.00  0.00    +0.000 C 
ATOM     15  C   UNL     1      -0.055  11.198  18.767  0.00  0.00    +0.000 C 
ENDBRANCH  13  15
ENDBRANCH   7  13
ENDBRANCH   1  10
BRANCH   5  16
ATOM     16  N   UNL     1       6.124   3.977  18.084  0.00  0.00    +0.000 N 
ATOM     17  C   UNL     1       7.090   4.606  17.332  0.00  0.00    +0.000 C 
ATOM     18  O   UNL     1       8.275   4.307  17.494  0.00  0.00    +0.000 OA
ATOM     19  H   UNL     1       6.450   3.227  18.681  0.00  0.00    +0.000 HD
BRANCH  17  20
ATOM     20  C   UNL     1       6.649   5.647  16.305  0.00  0.00    +0.000 C 
BRANCH  20  21
ATOM     21  O   UNL     1       7.530   5.516  15.194  0.00  0.00    +0.000 OA
BRANCH  21  22
ATOM     22  C   UNL     1       7.060   4.825  14.116  0.00  0.00    +0.000 A 
ATOM     23  C   UNL     1       5.816   4.220  14.304  0.00  0.00    +0.000 A 
ATOM     24  C   UNL     1       5.202   3.521  13.264  0.00  0.00    +0.000 A 
ATOM     25  C   UNL     1       5.827   3.439  12.023  0.00  0.00    +0.000 A 
ATOM     26  C   UNL     1       7.063   4.052  11.825  0.00  0.00    +0.000 A 
ATOM     27  C   UNL     1       7.683   4.746  12.870  0.00  0.00    +0.000 A 
ENDBRANCH  21  22
ENDBRANCH  20  21
ENDBRANCH  17  20
ENDBRANCH   5  16
TORSDOF 7
ENDMDL
MODEL 3
REMARK VINA RESULT:      -8.7      0.910      1.229
REMARK  Name = 
REMARK  8 active torsions:
REMARK  status: ('A' for Active; 'I' for Inactive)
REMARK    1  A    between atoms: C_1  and  C_2
REMARK    2  A    between atoms: C_2  and  O_3
REMARK    3  A    between atoms: O_3  and  C_4
REMARK    4  A    between atoms: C_7  and  C_8
REMARK    5  A    between atoms: C_12  and  N_13
REMARK    6  A    between atoms: C_14  and  C_16
REMARK    7  A    between atoms: C_16  and  O_17
REMARK    8  A    between atoms: O_17  and  C_18
REMARK                            x       y       z     vdW  Elec       q    Type
REMARK                         _______ _______ _______ _____ _____    ______ ____
ROOT
ATOM      1  C   UNL     1       2.832   5.561  18.652  0.00  0.00    +0.000 A 
ATOM      2  C   UNL     1       2.007   4.633  17.986  0.00  0.00    +0.000 A 
ATOM      3  C   UNL     1       2.538   3.503  17.356  0.00  0.00    +0.000 A 
ATOM      4  C   UNL     1       3.908   3.274  17.384  0.00  0.00    +0.000 A 
ATOM      5  C   UNL     1       4.740   4.167  18.054  0.00  0.00    +0.000 A 
ATOM      6  C   UNL     1       4.218   5.305  18.668  0.00  0.00    +0.000 A 
ENDROOT
BRANCH   1  10
ATOM      7  C   UNL     1       1.223   9.100  20.229  0.00  0.00    +0.000 A 
ATOM      8  C   UNL     1       1.216   7.996  21.056  0.00  0.00    +0.000 A 
ATOM      9  C   UNL     1       1.772   6.813  20.577  0.00  0.00    +0.000 A 
ATOM     10  C   UNL     1       2.283   6.773  19.282  0.00  0.00    +0.000 A 
ATOM     11  N   UNL     1       2.268   7.885  18.510  0.00  0.00    +0.000 NA
ATOM     12  N   UNL     1       1.735   9.056  18.984  0.00  0.00    +0.000 NA
BRANCH   7  13
ATOM     13  O   UNL     1       0.638  10.256  20.703  0.00  0.00    +0.000 OA
BRANCH  13  15
ATOM     14  C   UNL     1      -0.510  10.393  22.794  0.00  0.00    +0.000 C 
ATOM     15  C   UNL     1      -0.620  10.000  21.332  0.00  0.00    +0.000 C 
ENDBRANCH  13  15
ENDBRANCH   7  13
ENDBRANCH   1  10
BRANCH   5  16
ATOM     16  N   UNL     1       6.106   3.899  18.120  0.00  0.00    +0.000 N 
ATOM     17  C   UNL     1       7.079   4.546  17.392  0.00  0.00    +0.000 C 
ATOM     18  O   UNL     1       8.263   4.243  17.557  0.00  0.00    +0.000 OA
ATOM     19  H   UNL     1       6.428   3.134  18.701  0.00  0.00    +0.000 HD
BRANCH  17  20
ATOM     20  C   UNL     1       6.646   5.612  16.388  0.00  0.00    +0.000 C 
BRANCH  20  21
ATOM     21  O   UNL     1       7.535   5.507  15.281  0.00  0.00    +0.000 OA
BRANCH  21  22
ATOM     22  C   UNL     1       7.073   4.842  14.183  0.00  0.00    +0.000 A 
ATOM     23  C   UNL     1       5.824   4.239  14.345  0.00  0.00    +0.000 A 
ATOM     24  C   UNL     1       5.218   3.566  13.284  0.00  0.00    +0.000 A 
ATOM     25  C   UNL     1       5.855   3.507  12.048  0.00  0.00    +0.000 A 
ATOM     26  C   UNL     1       7.096   4.119  11.876  0.00  0.00    +0.000 A 
ATOM     27  C   UNL     1       7.708   4.787  12.942  0.00  0.00    +0.000 A 
ENDBRANCH  21  22
ENDBRANCH  20  21
ENDBRANCH  17  20
ENDBRANCH   5  16
TORSDOF 7
ENDMDL
MODEL 4
REMARK VINA RESULT:      -8.6      3.314      6.806
REMARK  Name = 
REMARK  8 active torsions:
REMARK  status: ('A' for Active; 'I' for Inactive)
REMARK    1  A    between atoms: C_1  and  C_2
REMARK    2  A    between atoms: C_2  and  O_3
REMARK    3  A    between atoms: O_3  and  C_4
REMARK    4  A    between atoms: C_7  and  C_8
REMARK    5  A    between atoms: C_12  and  N_13
REMARK    6  A    between atoms: C_14  and  C_16
REMARK    7  A    between atoms: C_16  and  O_17
REMARK    8  A    between atoms: O_17  and  C_18
REMARK                            x       y       z     vdW  Elec       q    Type
REMARK                         _______ _______ _______ _____ _____    ______ ____
ROOT
ATOM      1  C   UNL     1       5.183   4.551  18.065  0.00  0.00    +0.000 A 
ATOM      2  C   UNL     1       4.736   3.856  16.923  0.00  0.00    +0.000 A 
ATOM      3  C   UNL     1       3.855   2.775  17.024  0.00  0.00    +0.000 A 
ATOM      4  C   UNL     1       3.396   2.368  18.271  0.00  0.00    +0.000 A 
ATOM      5  C   UNL     1       3.808   3.053  19.411  0.00  0.00    +0.000 A 
ATOM      6  C   UNL     1       4.701   4.121  19.318  0.00  0.00    +0.000 A 
ENDROOT
BRANCH   1  10
ATOM      7  C   UNL     1       7.735   7.861  17.705  0.00  0.00    +0.000 A 
ATOM      8  C   UNL     1       8.107   6.890  18.610  0.00  0.00    +0.000 A 
ATOM      9  C   UNL     1       7.300   5.761  18.732  0.00  0.00    +0.000 A 
ATOM     10  C   UNL     1       6.141   5.665  17.968  0.00  0.00    +0.000 A 
ATOM     11  N   UNL     1       5.819   6.646  17.092  0.00  0.00    +0.000 NA
ATOM     12  N   UNL     1       6.619   7.751  16.959  0.00  0.00    +0.000 NA
BRANCH   7  13
ATOM     13  O   UNL     1       8.523   8.989  17.620  0.00  0.00    +0.000 OA
BRANCH  13  15
ATOM     14  C   UNL     1       9.474  10.885  18.722  0.00  0.00    +0.000 C 
ATOM     15  C   UNL     1       8.846   9.516  18.909  0.00  0.00    +0.000 C 
ENDBRANCH  13  15
ENDBRANCH   7  13
ENDBRANCH   1  10
BRANCH   5  16
ATOM     16  N   UNL     1       3.300   2.670  20.651  0.00  0.00    +0.000 N 
ATOM     17  C   UNL     1       2.164   3.184  21.236  0.00  0.00    +0.000 C 
ATOM     18  O   UNL     1       1.792   2.745  22.326  0.00  0.00    +0.000 OA
ATOM     19  H   UNL     1       3.819   2.004  21.209  0.00  0.00    +0.000 HD
BRANCH  17  20
ATOM     20  C   UNL     1       1.414   4.299  20.511  0.00  0.00    +0.000 C 
BRANCH  20  21
ATOM     21  O   UNL     1       1.955   5.526  20.990  0.00  0.00    +0.000 OA
BRANCH  21  22
ATOM     22  C   UNL     1       1.902   6.594  20.143  0.00  0.00    +0.000 A 
ATOM     23  C   UNL     1       1.387   7.763  20.706  0.00  0.00    +0.000 A 
ATOM     24  C   UNL     1       1.320   8.940  19.959  0.00  0.00    +0.000 A 
ATOM     25  C   UNL     1       1.787   8.955  18.648  0.00  0.00    +0.000 A 
ATOM     26  C   UNL     1       2.315   7.794  18.086  0.00  0.00    +0.000 A 
ATOM     27  C   UNL     1       2.374   6.611  18.831  0.00  0.00    +0.000 A 
ENDBRANCH  21  22
ENDBRANCH  20  21
ENDBRANCH  17  20
ENDBRANCH   5  16
TORSDOF 7
ENDMDL
MODEL 5
REMARK VINA RESULT:      -8.3      1.117      1.171
REMARK  Name = 
REMARK  8 active torsions:
REMARK  status: ('A' for Active; 'I' for Inactive)
REMARK    1  A    between atoms: C_1  and  C_2
REMARK    2  A    between atoms: C_2  and  O_3
REMARK    3  A    between atoms: O_3  and  C_4
REMARK    4  A    between atoms: C_7  and  C_8
REMARK    5  A    between atoms: C_12  and  N_13
REMARK    6  A    between atoms: C_14  and  C_16
REMARK    7  A    between atoms: C_16  and  O_17
REMARK    8  A    between atoms: O_17  and  C_18
REMARK                            x       y       z     vdW  Elec       q    Type
REMARK                         _______ _______ _______ _____ _____    ______ ____
ROOT
ATOM      1  C   UNL     1       3.092   5.794  19.255  0.00  0.00    +0.000 A 
ATOM      2  C   UNL     1       2.347   4.674  19.673  0.00  0.00    +0.000 A 
ATOM      3  C   UNL     1       2.925   3.404  19.764  0.00  0.00    +0.000 A 
ATOM      4  C   UNL     1       4.266   3.229  19.443  0.00  0.00    +0.000 A 
ATOM      5  C   UNL     1       5.026   4.326  19.047  0.00  0.00    +0.000 A 
ATOM      6  C   UNL     1       4.450   5.591  18.937  0.00  0.00    +0.000 A 
ENDROOT
BRANCH   1  10
ATOM      7  C   UNL     1       1.353   9.609  19.107  0.00  0.00    +0.000 A 
ATOM      8  C   UNL     1       1.992   9.177  17.964  0.00  0.00    +0.000 A 
ATOM      9  C   UNL     1       2.552   7.902  17.966  0.00  0.00    +0.000 A 
ATOM     10  C   UNL     1       2.478   7.126  19.119  0.00  0.00    +0.000 A 
ATOM     11  N   UNL     1       1.839   7.596  20.216  0.00  0.00    +0.000 NA
ATOM     12  N   UNL     1       1.274   8.844  20.212  0.00  0.00    +0.000 NA
BRANCH   7  13
ATOM     13  O   UNL     1       0.834  10.887  19.103  0.00  0.00    +0.000 OA
BRANCH  13  15
ATOM     14  C   UNL     1       1.733  12.802  20.215  0.00  0.00    +0.000 C 
ATOM     15  C   UNL     1       0.947  11.515  20.383  0.00  0.00    +0.000 C 
ENDBRANCH  13  15
ENDBRANCH   7  13
ENDBRANCH   1  10
BRANCH   5  16
ATOM     16  N   UNL     1       6.383   4.147  18.780  0.00  0.00    +0.000 N 
ATOM     17  C   UNL     1       7.017   4.517  17.615  0.00  0.00    +0.000 C 
ATOM     18  O   UNL     1       8.232   4.336  17.502  0.00  0.00    +0.000 OA
ATOM     19  H   UNL     1       6.956   3.659  19.457  0.00  0.00    +0.000 HD
BRANCH  17  20
ATOM     20  C   UNL     1       6.179   5.127  16.494  0.00  0.00    +0.000 C 
BRANCH  20  21
ATOM     21  O   UNL     1       7.093   5.500  15.467  0.00  0.00    +0.000 OA
BRANCH  21  22
ATOM     22  C   UNL     1       6.944   4.884  14.258  0.00  0.00    +0.000 A 
ATOM     23  C   UNL     1       5.836   4.040  14.164  0.00  0.00    +0.000 A 
ATOM     24  C   UNL     1       5.543   3.385  12.967  0.00  0.00    +0.000 A 
ATOM     25  C   UNL     1       6.352   3.586  11.852  0.00  0.00    +0.000 A 
ATOM     26  C   UNL     1       7.452   4.439  11.937  0.00  0.00    +0.000 A 
ATOM     27  C   UNL     1       7.751   5.089  13.139  0.00  0.00    +0.000 A 
ENDBRANCH  21  22
ENDBRANCH  20  21
ENDBRANCH  17  20
ENDBRANCH   5  16
TORSDOF 7
ENDMDL
MODEL 6
REMARK VINA RESULT:      -8.3      0.869      1.282
REMARK  Name = 
REMARK  8 active torsions:
REMARK  status: ('A' for Active; 'I' for Inactive)
REMARK    1  A    between atoms: C_1  and  C_2
REMARK    2  A    between atoms: C_2  and  O_3
REMARK    3  A    between atoms: O_3  and  C_4
REMARK    4  A    between atoms: C_7  and  C_8
REMARK    5  A    between atoms: C_12  and  N_13
REMARK    6  A    between atoms: C_14  and  C_16
REMARK    7  A    between atoms: C_16  and  O_17
REMARK    8  A    between atoms: O_17  and  C_18
REMARK                            x       y       z     vdW  Elec       q    Type
REMARK                         _______ _______ _______ _____ _____    ______ ____
ROOT
ATOM      1  C   UNL     1       2.791   5.745  18.990  0.00  0.00    +0.000 A 
ATOM      2  C   UNL     1       1.975   4.602  18.875  0.00  0.00    +0.000 A 
ATOM      3  C   UNL     1       2.521   3.329  18.688  0.00  0.00    +0.000 A 
ATOM      4  C   UNL     1       3.900   3.170  18.618  0.00  0.00    +0.000 A 
ATOM      5  C   UNL     1       4.727   4.282  18.749  0.00  0.00    +0.000 A 
ATOM      6  C   UNL     1       4.187   5.557  18.917  0.00  0.00    +0.000 A 
ENDROOT
BRANCH   1  10
ATOM      7  C   UNL     1       1.211   9.570  19.672  0.00  0.00    +0.000 A 
ATOM      8  C   UNL     1       1.650   9.303  18.393  0.00  0.00    +0.000 A 
ATOM      9  C   UNL     1       2.150   8.032  18.122  0.00  0.00    +0.000 A 
ATOM     10  C   UNL     1       2.220   7.093  19.147  0.00  0.00    +0.000 A 
ATOM     11  N   UNL     1       1.775   7.404  20.387  0.00  0.00    +0.000 NA
ATOM     12  N   UNL     1       1.268   8.649  20.653  0.00  0.00    +0.000 NA
BRANCH   7  13
ATOM     13  O   UNL     1       0.750  10.843  19.936  0.00  0.00    +0.000 OA
BRANCH  13  15
ATOM     14  C   UNL     1       0.733  12.853  18.642  0.00  0.00    +0.000 C 
ATOM     15  C   UNL     1       0.167  11.452  18.781  0.00  0.00    +0.000 C 
ENDBRANCH  13  15
ENDBRANCH   7  13
ENDBRANCH   1  10
BRANCH   5  16
ATOM     16  N   UNL     1       6.109   4.103  18.730  0.00  0.00    +0.000 N 
ATOM     17  C   UNL     1       6.963   4.618  17.781  0.00  0.00    +0.000 C 
ATOM     18  O   UNL     1       8.175   4.419  17.883  0.00  0.00    +0.000 OA
ATOM     19  H   UNL     1       6.536   3.506  19.427  0.00  0.00    +0.000 HD
BRANCH  17  20
ATOM     20  C   UNL     1       6.366   5.408  16.618  0.00  0.00    +0.000 C 
BRANCH  20  21
ATOM     21  O   UNL     1       7.356   5.430  15.596  0.00  0.00    +0.000 OA
BRANCH  21  22
ATOM     22  C   UNL     1       7.017   4.869  14.399  0.00  0.00    +0.000 A 
ATOM     23  C   UNL     1       7.798   5.279  13.317  0.00  0.00    +0.000 A 
ATOM     24  C   UNL     1       7.584   4.746  12.045  0.00  0.00    +0.000 A 
ATOM     25  C   UNL     1       6.595   3.785  11.855  0.00  0.00    +0.000 A 
ATOM     26  C   UNL     1       5.822   3.362  12.935  0.00  0.00    +0.000 A 
ATOM     27  C   UNL     1       6.030   3.902  14.209  0.00  0.00    +0.000 A 
ENDBRANCH  21  22
ENDBRANCH  20  21
ENDBRANCH  17  20
ENDBRANCH   5  16
TORSDOF 7
ENDMDL
MODEL 7
REMARK VINA RESULT:      -8.3      0.953      1.472
REMARK  Name = 
REMARK  8 active torsions:
REMARK  status: ('A' for Active; 'I' for Inactive)
REMARK    1  A    between atoms: C_1  and  C_2
REMARK    2  A    between atoms: C_2  and  O_3
REMARK    3  A    between atoms: O_3  and  C_4
REMARK    4  A    between atoms: C_7  and  C_8
REMARK    5  A    between atoms: C_12  and  N_13
REMARK    6  A    between atoms: C_14  and  C_16
REMARK    7  A    between atoms: C_16  and  O_17
REMARK    8  A    between atoms: O_17  and  C_18
REMARK                            x       y       z     vdW  Elec       q    Type
REMARK                         _______ _______ _______ _____ _____    ______ ____
ROOT
ATOM      1  C   UNL     1       2.747   5.615  18.624  0.00  0.00    +0.000 A 
ATOM      2  C   UNL     1       1.900   4.594  18.151  0.00  0.00    +0.000 A 
ATOM      3  C   UNL     1       2.412   3.408  17.617  0.00  0.00    +0.000 A 
ATOM      4  C   UNL     1       3.787   3.215  17.549  0.00  0.00    +0.000 A 
ATOM      5  C   UNL     1       4.643   4.203  18.030  0.00  0.00    +0.000 A 
ATOM      6  C   UNL     1       4.137   5.395  18.547  0.00  0.00    +0.000 A 
ENDROOT
BRANCH   1  10
ATOM      7  C   UNL     1       1.155   9.280  19.904  0.00  0.00    +0.000 A 
ATOM      8  C   UNL     1       1.287   8.296  20.861  0.00  0.00    +0.000 A 
ATOM      9  C   UNL     1       1.843   7.078  20.479  0.00  0.00    +0.000 A 
ATOM     10  C   UNL     1       2.213   6.882  19.151  0.00  0.00    +0.000 A 
ATOM     11  N   UNL     1       2.064   7.881  18.249  0.00  0.00    +0.000 NA
ATOM     12  N   UNL     1       1.532   9.086  18.625  0.00  0.00    +0.000 NA
BRANCH   7  13
ATOM     13  O   UNL     1       0.572  10.469  20.288  0.00  0.00    +0.000 OA
BRANCH  13  15
ATOM     14  C   UNL     1      -0.509  11.763  21.981  0.00  0.00    +0.000 C 
ATOM     15  C   UNL     1      -0.013  10.384  21.589  0.00  0.00    +0.000 C 
ENDBRANCH  13  15
ENDBRANCH   7  13
ENDBRANCH   1  10
BRANCH   5  16
ATOM     16  N   UNL     1       6.018   3.976  18.006  0.00  0.00    +0.000 N 
ATOM     17  C   UNL     1       6.928   4.694  17.262  0.00  0.00    +0.000 C 
ATOM     18  O   UNL     1       8.127   4.422  17.344  0.00  0.00    +0.000 OA
ATOM     19  H   UNL     1       6.395   3.193  18.525  0.00  0.00    +0.000 HD
BRANCH  17  20
ATOM     20  C   UNL     1       6.406   5.797  16.344  0.00  0.00    +0.000 C 
BRANCH  20  21
ATOM     21  O   UNL     1       7.190   5.736  15.156  0.00  0.00    +0.000 OA
BRANCH  21  22
ATOM     22  C   UNL     1       6.722   4.942  14.151  0.00  0.00    +0.000 A 
ATOM     23  C   UNL     1       7.623   4.724  13.108  0.00  0.00    +0.000 A 
ATOM     24  C   UNL     1       7.285   3.893  12.039  0.00  0.00    +0.000 A 
ATOM     25  C   UNL     1       6.045   3.261  12.020  0.00  0.00    +0.000 A 
ATOM     26  C   UNL     1       5.146   3.463  13.066  0.00  0.00    +0.000 A 
ATOM     27  C   UNL     1       5.481   4.303  14.133  0.00  0.00    +0.000 A 
ENDBRANCH  21  22
ENDBRANCH  20  21
ENDBRANCH  17  20
ENDBRANCH   5  16
TORSDOF 7
ENDMDL
MODEL 8
REMARK VINA RESULT:      -8.1      1.064      1.521
REMARK  Name = 
REMARK  8 active torsions:
REMARK  status: ('A' for Active; 'I' for Inactive)
REMARK    1  A    between atoms: C_1  and  C_2
REMARK    2  A    between atoms: C_2  and  O_3
REMARK    3  A    between atoms: O_3  and  C_4
REMARK    4  A    between atoms: C_7  and  C_8
REMARK    5  A    between atoms: C_12  and  N_13
REMARK    6  A    between atoms: C_14  and  C_16
REMARK    7  A    between atoms: C_16  and  O_17
REMARK    8  A    between atoms: O_17  and  C_18
REMARK                            x       y       z     vdW  Elec       q    Type
REMARK                         _______ _______ _______ _____ _____    ______ ____
ROOT
ATOM      1  C   UNL     1       2.879   5.668  19.011  0.00  0.00    +0.000 A 
ATOM      2  C   UNL     1       2.046   4.544  18.849  0.00  0.00    +0.000 A 
ATOM      3  C   UNL     1       2.574   3.273  18.599  0.00  0.00    +0.000 A 
ATOM      4  C   UNL     1       3.950   3.099  18.510  0.00  0.00    +0.000 A 
ATOM      5  C   UNL     1       4.793   4.193  18.687  0.00  0.00    +0.000 A 
ATOM      6  C   UNL     1       4.272   5.465  18.919  0.00  0.00    +0.000 A 
ENDROOT
BRANCH   1  10
ATOM      7  C   UNL     1       1.271   9.521  19.416  0.00  0.00    +0.000 A 
ATOM      8  C   UNL     1       1.230   8.715  20.534  0.00  0.00    +0.000 A 
ATOM      9  C   UNL     1       1.785   7.440  20.445  0.00  0.00    +0.000 A 
ATOM     10  C   UNL     1       2.328   7.015  19.236  0.00  0.00    +0.000 A 
ATOM     11  N   UNL     1       2.345   7.846  18.168  0.00  0.00    +0.000 NA
ATOM     12  N   UNL     1       1.814   9.106  18.256  0.00  0.00    +0.000 NA
BRANCH   7  13
ATOM     13  O   UNL     1       0.687  10.768  19.507  0.00  0.00    +0.000 OA
BRANCH  13  15
ATOM     14  C   UNL     1      -1.399  10.486  18.377  0.00  0.00    +0.000 C 
ATOM     15  C   UNL     1      -0.724  10.684  19.721  0.00  0.00    +0.000 C 
ENDBRANCH  13  15
ENDBRANCH   7  13
ENDBRANCH   1  10
BRANCH   5  16
ATOM     16  N   UNL     1       6.172   3.996  18.648  0.00  0.00    +0.000 N 
ATOM     17  C   UNL     1       7.013   4.464  17.664  0.00  0.00    +0.000 C 
ATOM     18  O   UNL     1       8.225   4.254  17.751  0.00  0.00    +0.000 OA
ATOM     19  H   UNL     1       6.605   3.420  19.359  0.00  0.00    +0.000 HD
BRANCH  17  20
ATOM     20  C   UNL     1       6.402   5.217  16.484  0.00  0.00    +0.000 C 
BRANCH  20  21
ATOM     21  O   UNL     1       5.827   4.232  15.632  0.00  0.00    +0.000 OA
BRANCH  21  22
ATOM     22  C   UNL     1       6.239   4.227  14.332  0.00  0.00    +0.000 A 
ATOM     23  C   UNL     1       7.264   5.128  14.039  0.00  0.00    +0.000 A 
ATOM     24  C   UNL     1       7.808   5.191  12.755  0.00  0.00    +0.000 A 
ATOM     25  C   UNL     1       7.338   4.338  11.761  0.00  0.00    +0.000 A 
ATOM     26  C   UNL     1       6.324   3.426  12.052  0.00  0.00    +0.000 A 
ATOM     27  C   UNL     1       5.772   3.368  13.337  0.00  0.00    +0.000 A 
ENDBRANCH  21  22
ENDBRANCH  20  21
ENDBRANCH  17  20
ENDBRANCH   5  16
TORSDOF 7
ENDMDL
MODEL 9
REMARK VINA RESULT:      -8.1      1.407      1.560
REMARK  Name = 
REMARK  8 active torsions:
REMARK  status: ('A' for Active; 'I' for Inactive)
REMARK    1  A    between atoms: C_1  and  C_2
REMARK    2  A    between atoms: C_2  and  O_3
REMARK    3  A    between atoms: O_3  and  C_4
REMARK    4  A    between atoms: C_7  and  C_8
REMARK    5  A    between atoms: C_12  and  N_13
REMARK    6  A    between atoms: C_14  and  C_16
REMARK    7  A    between atoms: C_16  and  O_17
REMARK    8  A    between atoms: O_17  and  C_18
REMARK                            x       y       z     vdW  Elec       q    Type
REMARK                         _______ _______ _______ _____ _____    ______ ____
ROOT
ATOM      1  C   UNL     1       3.027   5.888  19.188  0.00  0.00    +0.000 A 
ATOM      2  C   UNL     1       2.223   4.777  19.508  0.00  0.00    +0.000 A 
ATOM      3  C   UNL     1       2.745   3.480  19.534  0.00  0.00    +0.000 A 
ATOM      4  C   UNL     1       4.088   3.267  19.245  0.00  0.00    +0.000 A 
ATOM      5  C   UNL     1       4.906   4.353  18.946  0.00  0.00    +0.000 A 
ATOM      6  C   UNL     1       4.386   5.646  18.901  0.00  0.00    +0.000 A 
ENDROOT
BRANCH   1  10
ATOM      7  C   UNL     1       1.447   9.750  18.756  0.00  0.00    +0.000 A 
ATOM      8  C   UNL     1       1.238   9.130  19.969  0.00  0.00    +0.000 A 
ATOM      9  C   UNL     1       1.776   7.860  20.159  0.00  0.00    +0.000 A 
ATOM     10  C   UNL     1       2.474   7.251  19.120  0.00  0.00    +0.000 A 
ATOM     11  N   UNL     1       2.653   7.903  17.947  0.00  0.00    +0.000 NA
ATOM     12  N   UNL     1       2.137   9.159  17.762  0.00  0.00    +0.000 NA
BRANCH   7  13
ATOM     13  O   UNL     1       0.878  10.993  18.568  0.00  0.00    +0.000 OA
BRANCH  13  15
ATOM     14  C   UNL     1       1.678  12.831  19.869  0.00  0.00    +0.000 C 
ATOM     15  C   UNL     1       1.854  12.037  18.588  0.00  0.00    +0.000 C 
ENDBRANCH  13  15
ENDBRANCH   7  13
ENDBRANCH   1  10
BRANCH   5  16
ATOM     16  N   UNL     1       6.262   4.134  18.711  0.00  0.00    +0.000 N 
ATOM     17  C   UNL     1       6.958   4.577  17.609  0.00  0.00    +0.000 C 
ATOM     18  O   UNL     1       8.166   4.348  17.522  0.00  0.00    +0.000 OA
ATOM     19  H   UNL     1       6.785   3.558  19.358  0.00  0.00    +0.000 HD
BRANCH  17  20
ATOM     20  C   UNL     1       6.194   5.329  16.521  0.00  0.00    +0.000 C 
BRANCH  20  21
ATOM     21  O   UNL     1       7.131   5.595  15.482  0.00  0.00    +0.000 OA
BRANCH  21  22
ATOM     22  C   UNL     1       6.941   4.939  14.301  0.00  0.00    +0.000 A 
ATOM     23  C   UNL     1       5.811   4.122  14.260  0.00  0.00    +0.000 A 
ATOM     24  C   UNL     1       5.477   3.430  13.094  0.00  0.00    +0.000 A 
ATOM     25  C   UNL     1       6.268   3.568  11.957  0.00  0.00    +0.000 A 
ATOM     26  C   UNL     1       7.391   4.394  11.989  0.00  0.00    +0.000 A 
ATOM     27  C   UNL     1       7.730   5.081  13.159  0.00  0.00    +0.000 A 
ENDBRANCH  21  22
ENDBRANCH  20  21
ENDBRANCH  17  20
ENDBRANCH   5  16
TORSDOF 7
ENDMDL
