MODEL 1
REMARK VINA RESULT:      -6.4      0.000      0.000
REMARK  Name = 
REMARK  20 active torsions:
REMARK  status: ('A' for Active; 'I' for Inactive)
REMARK    1  A    between atoms: C_1  and  C_2
REMARK    2  A    between atoms: C_2  and  C_3
REMARK    3  A    between atoms: C_3  and  C_4
REMARK    4  A    between atoms: C_4  and  C_5
REMARK    5  A    between atoms: C_5  and  C_6
REMARK    6  A    between atoms: C_6  and  O_7
REMARK    7  A    between atoms: O_7  and  P_8
REMARK    8  A    between atoms: P_8  and  C_10
REMARK    9  A    between atoms: P_8  and  O_18
REMARK   10  A    between atoms: C_10  and  C_11
REMARK   11  A    between atoms: C_11  and  C_12
REMARK   12  A    between atoms: C_12  and  N_13
REMARK   13  A    between atoms: N_13  and  O_14
REMARK   14  A    between atoms: C_15  and  C_16
REMARK   15  A    between atoms: O_18  and  C_19
REMARK   16  A    between atoms: C_19  and  C_20
REMARK   17  A    between atoms: C_20  and  C_21
REMARK   18  A    between atoms: C_21  and  C_22
REMARK   19  A    between atoms: C_22  and  C_23
REMARK   20  A    between atoms: C_23  and  C_24
REMARK                            x       y       z     vdW  Elec       q    Type
REMARK                         _______ _______ _______ _____ _____    ______ ____
ROOT
ATOM      1  P   UNL     1       6.479   5.357  16.938  0.00  0.00    +0.000 P 
ATOM      2  O   UNL     1       7.620   4.357  16.691  0.00  0.00    +0.000 OA
ENDROOT
BRANCH   1   3
ATOM      3  O   UNL     1       5.819   4.921  15.399  0.00  0.00    +0.000 OA
BRANCH   3   4
ATOM      4  C   UNL     1       6.731   4.267  14.536  0.00  0.00    +0.000 C 
BRANCH   4   5
ATOM      5  C   UNL     1       6.533   4.632  13.077  0.00  0.00    +0.000 C 
BRANCH   5   6
ATOM      6  C   UNL     1       6.864   3.414  12.198  0.00  0.00    +0.000 C 
BRANCH   6   7
ATOM      7  C   UNL     1       5.596   2.626  11.848  0.00  0.00    +0.000 C 
BRANCH   7   8
ATOM      8  C   UNL     1       4.380   3.545  11.786  0.00  0.00    +0.000 C 
ATOM      9  C   UNL     1       3.524   3.194  10.582  0.00  0.00    +0.000 C 
ENDBRANCH   7   8
ENDBRANCH   6   7
ENDBRANCH   5   6
ENDBRANCH   4   5
ENDBRANCH   3   4
ENDBRANCH   1   3
BRANCH   1  10
ATOM     10  C   UNL     1       5.124   4.374  17.899  0.00  0.00    +0.000 C 
BRANCH  10  11
ATOM     11  C   UNL     1       4.125   3.624  17.022  0.00  0.00    +0.000 C 
BRANCH  11  12
ATOM     12  C   UNL     1       3.509   2.436  17.754  0.00  0.00    +0.000 C 
BRANCH  12  13
ATOM     13  N   UNL     1       2.326   2.781  18.559  0.00  0.00    +0.000 N 
ATOM     14  C   UNL     1       2.294   2.973  19.914  0.00  0.00    +0.000 C 
ATOM     15  C   UNL     1       0.957   3.351  20.511  0.00  0.00    +0.000 C 
ATOM     16  O   UNL     1       3.276   2.783  20.652  0.00  0.00    +0.000 OA
BRANCH  13  17
ATOM     17  O   UNL     1       1.333   3.457  17.794  0.00  0.00    +0.000 OA
ATOM     18  H   UNL     1       1.178   4.262  18.304  0.00  0.00    +0.000 HD
ENDBRANCH  13  17
ENDBRANCH  12  13
ENDBRANCH  11  12
ENDBRANCH  10  11
ENDBRANCH   1  10
BRANCH   1  19
ATOM     19  O   UNL     1       7.140   5.794  18.476  0.00  0.00    +0.000 OA
BRANCH  19  20
ATOM     20  C   UNL     1       7.998   6.932  18.454  0.00  0.00    +0.000 C 
BRANCH  20  21
ATOM     21  C   UNL     1       7.678   7.900  17.323  0.00  0.00    +0.000 C 
BRANCH  21  22
ATOM     22  C   UNL     1       8.067   9.308  17.778  0.00  0.00    +0.000 C 
BRANCH  22  23
ATOM     23  C   UNL     1       8.970   9.270  19.003  0.00  0.00    +0.000 C 
BRANCH  23  25
ATOM     24  C   UNL     1       9.697  11.448  18.016  0.00  0.00    +0.000 C 
ATOM     25  C   UNL     1       9.549  10.651  19.302  0.00  0.00    +0.000 C 
ENDBRANCH  23  25
ENDBRANCH  22  23
ENDBRANCH  21  22
ENDBRANCH  20  21
ENDBRANCH  19  20
ENDBRANCH   1  19
TORSDOF 17
ENDMDL
MODEL 2
REMARK VINA RESULT:      -6.4      3.226      6.446
REMARK  Name = 
REMARK  20 active torsions:
REMARK  status: ('A' for Active; 'I' for Inactive)
REMARK    1  A    between atoms: C_1  and  C_2
REMARK    2  A    between atoms: C_2  and  C_3
REMARK    3  A    between atoms: C_3  and  C_4
REMARK    4  A    between atoms: C_4  and  C_5
REMARK    5  A    between atoms: C_5  and  C_6
REMARK    6  A    between atoms: C_6  and  O_7
REMARK    7  A    between atoms: O_7  and  P_8
REMARK    8  A    between atoms: P_8  and  C_10
REMARK    9  A    between atoms: P_8  and  O_18
REMARK   10  A    between atoms: C_10  and  C_11
REMARK   11  A    between atoms: C_11  and  C_12
REMARK   12  A    between atoms: C_12  and  N_13
REMARK   13  A    between atoms: N_13  and  O_14
REMARK   14  A    between atoms: C_15  and  C_16
REMARK   15  A    between atoms: O_18  and  C_19
REMARK   16  A    between atoms: C_19  and  C_20
REMARK   17  A    between atoms: C_20  and  C_21
REMARK   18  A    between atoms: C_21  and  C_22
REMARK   19  A    between atoms: C_22  and  C_23
REMARK   20  A    between atoms: C_23  and  C_24
REMARK                            x       y       z     vdW  Elec       q    Type
REMARK                         _______ _______ _______ _____ _____    ______ ____
ROOT
ATOM      1  P   UNL     1       5.698   4.792  18.766  0.00  0.00    +0.000 P 
ATOM      2  O   UNL     1       6.811   5.205  19.742  0.00  0.00    +0.000 OA
ENDROOT
BRANCH   1   3
ATOM      3  O   UNL     1       5.372   3.428  19.779  0.00  0.00    +0.000 OA
BRANCH   3   4
ATOM      4  C   UNL     1       4.287   2.626  19.348  0.00  0.00    +0.000 C 
BRANCH   4   5
ATOM      5  C   UNL     1       3.917   2.859  17.895  0.00  0.00    +0.000 C 
BRANCH   5   6
ATOM      6  C   UNL     1       2.479   2.371  17.652  0.00  0.00    +0.000 C 
BRANCH   6   7
ATOM      7  C   UNL     1       1.457   3.439  18.059  0.00  0.00    +0.000 C 
BRANCH   7   8
ATOM      8  C   UNL     1       0.696   3.017  19.312  0.00  0.00    +0.000 C 
ATOM      9  C   UNL     1       1.034   3.949  20.463  0.00  0.00    +0.000 C 
ENDBRANCH   7   8
ENDBRANCH   6   7
ENDBRANCH   5   6
ENDBRANCH   4   5
ENDBRANCH   3   4
ENDBRANCH   1   3
BRANCH   1  10
ATOM     10  C   UNL     1       4.115   5.724  19.359  0.00  0.00    +0.000 C 
BRANCH  10  11
ATOM     11  C   UNL     1       3.577   6.768  18.385  0.00  0.00    +0.000 C 
BRANCH  11  12
ATOM     12  C   UNL     1       2.094   7.044  18.612  0.00  0.00    +0.000 C 
BRANCH  12  13
ATOM     13  N   UNL     1       1.829   8.220  19.458  0.00  0.00    +0.000 N 
ATOM     14  C   UNL     1       1.149   9.349  19.090  0.00  0.00    +0.000 C 
ATOM     15  C   UNL     1       0.980  10.413  20.151  0.00  0.00    +0.000 C 
ATOM     16  O   UNL     1       0.743   9.551  17.933  0.00  0.00    +0.000 OA
BRANCH  13  17
ATOM     17  O   UNL     1       1.825   7.894  20.845  0.00  0.00    +0.000 OA
ATOM     18  H   UNL     1       1.689   8.752  21.267  0.00  0.00    +0.000 HD
ENDBRANCH  13  17
ENDBRANCH  12  13
ENDBRANCH  11  12
ENDBRANCH  10  11
ENDBRANCH   1  10
BRANCH   1  19
ATOM     19  O   UNL     1       6.024   6.155  17.752  0.00  0.00    +0.000 OA
BRANCH  19  20
ATOM     20  C   UNL     1       6.947   5.904  16.695  0.00  0.00    +0.000 C 
BRANCH  20  21
ATOM     21  C   UNL     1       6.796   4.516  16.088  0.00  0.00    +0.000 C 
BRANCH  21  22
ATOM     22  C   UNL     1       6.855   4.653  14.566  0.00  0.00    +0.000 C 
BRANCH  22  23
ATOM     23  C   UNL     1       5.626   4.049  13.903  0.00  0.00    +0.000 C 
BRANCH  23  25
ATOM     24  C   UNL     1       4.716   3.237  11.721  0.00  0.00    +0.000 C 
ATOM     25  C   UNL     1       5.977   3.445  12.543  0.00  0.00    +0.000 C 
ENDBRANCH  23  25
ENDBRANCH  22  23
ENDBRANCH  21  22
ENDBRANCH  20  21
ENDBRANCH  19  20
ENDBRANCH   1  19
TORSDOF 17
ENDMDL
MODEL 3
REMARK VINA RESULT:      -6.3      3.394      7.131
REMARK  Name = 
REMARK  20 active torsions:
REMARK  status: ('A' for Active; 'I' for Inactive)
REMARK    1  A    between atoms: C_1  and  C_2
REMARK    2  A    between atoms: C_2  and  C_3
REMARK    3  A    between atoms: C_3  and  C_4
REMARK    4  A    between atoms: C_4  and  C_5
REMARK    5  A    between atoms: C_5  and  C_6
REMARK    6  A    between atoms: C_6  and  O_7
REMARK    7  A    between atoms: O_7  and  P_8
REMARK    8  A    between atoms: P_8  and  C_10
REMARK    9  A    between atoms: P_8  and  O_18
REMARK   10  A    between atoms: C_10  and  C_11
REMARK   11  A    between atoms: C_11  and  C_12
REMARK   12  A    between atoms: C_12  and  N_13
REMARK   13  A    between atoms: N_13  and  O_14
REMARK   14  A    between atoms: C_15  and  C_16
REMARK   15  A    between atoms: O_18  and  C_19
REMARK   16  A    between atoms: C_19  and  C_20
REMARK   17  A    between atoms: C_20  and  C_21
REMARK   18  A    between atoms: C_21  and  C_22
REMARK   19  A    between atoms: C_22  and  C_23
REMARK   20  A    between atoms: C_23  and  C_24
REMARK                            x       y       z     vdW  Elec       q    Type
REMARK                         _______ _______ _______ _____ _____    ______ ____
ROOT
ATOM      1  P   UNL     1       4.055   4.897  18.831  0.00  0.00    +0.000 P 
ATOM      2  O   UNL     1       3.632   5.328  17.418  0.00  0.00    +0.000 OA
ENDROOT
BRANCH   1   3
ATOM      3  O   UNL     1       4.520   3.363  18.179  0.00  0.00    +0.000 OA
BRANCH   3   4
ATOM      4  C   UNL     1       3.774   2.268  18.677  0.00  0.00    +0.000 C 
BRANCH   4   5
ATOM      5  C   UNL     1       2.430   2.105  17.992  0.00  0.00    +0.000 C 
BRANCH   5   6
ATOM      6  C   UNL     1       1.332   1.951  19.058  0.00  0.00    +0.000 C 
BRANCH   6   7
ATOM      7  C   UNL     1       0.663   3.297  19.360  0.00  0.00    +0.000 C 
BRANCH   7   8
ATOM      8  C   UNL     1       1.082   3.821  20.731  0.00  0.00    +0.000 C 
ATOM      9  C   UNL     1       1.523   2.668  21.615  0.00  0.00    +0.000 C 
ENDBRANCH   7   8
ENDBRANCH   6   7
ENDBRANCH   5   6
ENDBRANCH   4   5
ENDBRANCH   3   4
ENDBRANCH   1   3
BRANCH   1  10
ATOM     10  C   UNL     1       5.889   5.472  19.022  0.00  0.00    +0.000 C 
BRANCH  10  11
ATOM     11  C   UNL     1       6.556   5.943  17.733  0.00  0.00    +0.000 C 
BRANCH  11  12
ATOM     12  C   UNL     1       7.330   4.818  17.052  0.00  0.00    +0.000 C 
BRANCH  12  13
ATOM     13  N   UNL     1       6.709   4.334  15.809  0.00  0.00    +0.000 N 
ATOM     14  C   UNL     1       7.045   4.704  14.535  0.00  0.00    +0.000 C 
ATOM     15  C   UNL     1       6.277   4.042  13.413  0.00  0.00    +0.000 C 
ATOM     16  O   UNL     1       7.882   5.588  14.282  0.00  0.00    +0.000 OA
BRANCH  13  17
ATOM     17  O   UNL     1       6.123   3.046  15.967  0.00  0.00    +0.000 OA
ATOM     18  H   UNL     1       5.690   3.110  16.827  0.00  0.00    +0.000 HD
ENDBRANCH  13  17
ENDBRANCH  12  13
ENDBRANCH  11  12
ENDBRANCH  10  11
ENDBRANCH   1  10
BRANCH   1  19
ATOM     19  O   UNL     1       3.591   6.431  19.482  0.00  0.00    +0.000 OA
BRANCH  19  20
ATOM     20  C   UNL     1       2.764   7.216  18.625  0.00  0.00    +0.000 C 
BRANCH  20  21
ATOM     21  C   UNL     1       1.897   8.213  19.381  0.00  0.00    +0.000 C 
BRANCH  21  22
ATOM     22  C   UNL     1       1.630   7.649  20.777  0.00  0.00    +0.000 C 
BRANCH  22  23
ATOM     23  C   UNL     1       0.302   8.141  21.334  0.00  0.00    +0.000 C 
BRANCH  23  25
ATOM     24  C   UNL     1      -0.252   9.913  23.007  0.00  0.00    +0.000 C 
ATOM     25  C   UNL     1       0.355   9.636  21.642  0.00  0.00    +0.000 C 
ENDBRANCH  23  25
ENDBRANCH  22  23
ENDBRANCH  21  22
ENDBRANCH  20  21
ENDBRANCH  19  20
ENDBRANCH   1  19
TORSDOF 17
ENDMDL
MODEL 4
REMARK VINA RESULT:      -6.2      3.801      8.206
REMARK  Name = 
REMARK  20 active torsions:
REMARK  status: ('A' for Active; 'I' for Inactive)
REMARK    1  A    between atoms: C_1  and  C_2
REMARK    2  A    between atoms: C_2  and  C_3
REMARK    3  A    between atoms: C_3  and  C_4
REMARK    4  A    between atoms: C_4  and  C_5
REMARK    5  A    between atoms: C_5  and  C_6
REMARK    6  A    between atoms: C_6  and  O_7
REMARK    7  A    between atoms: O_7  and  P_8
REMARK    8  A    between atoms: P_8  and  C_10
REMARK    9  A    between atoms: P_8  and  O_18
REMARK   10  A    between atoms: C_10  and  C_11
REMARK   11  A    between atoms: C_11  and  C_12
REMARK   12  A    between atoms: C_12  and  N_13
REMARK   13  A    between atoms: N_13  and  O_14
REMARK   14  A    between atoms: C_15  and  C_16
REMARK   15  A    between atoms: O_18  and  C_19
REMARK   16  A    between atoms: C_19  and  C_20
REMARK   17  A    between atoms: C_20  and  C_21
REMARK   18  A    between atoms: C_21  and  C_22
REMARK   19  A    between atoms: C_22  and  C_23
REMARK   20  A    between atoms: C_23  and  C_24
REMARK                            x       y       z     vdW  Elec       q    Type
REMARK                         _______ _______ _______ _____ _____    ______ ____
ROOT
ATOM      1  P   UNL     1       3.349   5.861  18.014  0.00  0.00    +0.000 P 
ATOM      2  O   UNL     1       4.150   5.673  19.312  0.00  0.00    +0.000 OA
ENDROOT
BRANCH   1   3
ATOM      3  O   UNL     1       2.957   7.463  18.535  0.00  0.00    +0.000 OA
BRANCH   3   4
ATOM      4  C   UNL     1       2.045   8.144  17.694  0.00  0.00    +0.000 C 
BRANCH   4   5
ATOM      5  C   UNL     1       1.697   9.533  18.197  0.00  0.00    +0.000 C 
BRANCH   5   6
ATOM      6  C   UNL     1       1.347   9.460  19.693  0.00  0.00    +0.000 C 
BRANCH   6   7
ATOM      7  C   UNL     1      -0.122   9.826  19.934  0.00  0.00    +0.000 C 
BRANCH   7   8
ATOM      8  C   UNL     1      -0.339  10.299  21.368  0.00  0.00    +0.000 C 
ATOM      9  C   UNL     1      -0.302   9.115  22.318  0.00  0.00    +0.000 C 
ENDBRANCH   7   8
ENDBRANCH   6   7
ENDBRANCH   5   6
ENDBRANCH   4   5
ENDBRANCH   3   4
ENDBRANCH   1   3
BRANCH   1  10
ATOM     10  C   UNL     1       4.618   6.500  16.707  0.00  0.00    +0.000 C 
BRANCH  10  11
ATOM     11  C   UNL     1       5.330   5.411  15.910  0.00  0.00    +0.000 C 
BRANCH  11  12
ATOM     12  C   UNL     1       6.836   5.426  16.151  0.00  0.00    +0.000 C 
BRANCH  12  13
ATOM     13  N   UNL     1       7.218   5.180  17.552  0.00  0.00    +0.000 N 
ATOM     14  C   UNL     1       7.664   6.114  18.447  0.00  0.00    +0.000 C 
ATOM     15  C   UNL     1       7.966   5.621  19.844  0.00  0.00    +0.000 C 
ATOM     16  O   UNL     1       7.888   7.298  18.141  0.00  0.00    +0.000 OA
BRANCH  13  17
ATOM     17  O   UNL     1       6.570   4.034  18.092  0.00  0.00    +0.000 OA
ATOM     18  H   UNL     1       7.229   3.681  18.704  0.00  0.00    +0.000 HD
ENDBRANCH  13  17
ENDBRANCH  12  13
ENDBRANCH  11  12
ENDBRANCH  10  11
ENDBRANCH   1  10
BRANCH   1  19
ATOM     19  O   UNL     1       3.741   4.259  17.492  0.00  0.00    +0.000 OA
BRANCH  19  20
ATOM     20  C   UNL     1       2.614   3.424  17.236  0.00  0.00    +0.000 C 
BRANCH  20  21
ATOM     21  C   UNL     1       2.528   2.230  18.177  0.00  0.00    +0.000 C 
BRANCH  21  22
ATOM     22  C   UNL     1       1.107   2.170  18.739  0.00  0.00    +0.000 C 
BRANCH  22  23
ATOM     23  C   UNL     1       0.848   3.298  19.728  0.00  0.00    +0.000 C 
BRANCH  23  25
ATOM     24  C   UNL     1       2.469   3.496  21.620  0.00  0.00    +0.000 C 
ATOM     25  C   UNL     1       1.169   2.860  21.156  0.00  0.00    +0.000 C 
ENDBRANCH  23  25
ENDBRANCH  22  23
ENDBRANCH  21  22
ENDBRANCH  20  21
ENDBRANCH  19  20
ENDBRANCH   1  19
TORSDOF 17
ENDMDL
MODEL 5
REMARK VINA RESULT:      -6.1      1.326      1.672
REMARK  Name = 
REMARK  20 active torsions:
REMARK  status: ('A' for Active; 'I' for Inactive)
REMARK    1  A    between atoms: C_1  and  C_2
REMARK    2  A    between atoms: C_2  and  C_3
REMARK    3  A    between atoms: C_3  and  C_4
REMARK    4  A    between atoms: C_4  and  C_5
REMARK    5  A    between atoms: C_5  and  C_6
REMARK    6  A    between atoms: C_6  and  O_7
REMARK    7  A    between atoms: O_7  and  P_8
REMARK    8  A    between atoms: P_8  and  C_10
REMARK    9  A    between atoms: P_8  and  O_18
REMARK   10  A    between atoms: C_10  and  C_11
REMARK   11  A    between atoms: C_11  and  C_12
REMARK   12  A    between atoms: C_12  and  N_13
REMARK   13  A    between atoms: N_13  and  O_14
REMARK   14  A    between atoms: C_15  and  C_16
REMARK   15  A    between atoms: O_18  and  C_19
REMARK   16  A    between atoms: C_19  and  C_20
REMARK   17  A    between atoms: C_20  and  C_21
REMARK   18  A    between atoms: C_21  and  C_22
REMARK   19  A    between atoms: C_22  and  C_23
REMARK   20  A    between atoms: C_23  and  C_24
REMARK                            x       y       z     vdW  Elec       q    Type
REMARK                         _______ _______ _______ _____ _____    ______ ____
ROOT
ATOM      1  P   UNL     1       6.201   5.918  16.613  0.00  0.00    +0.000 P 
ATOM      2  O   UNL     1       7.604   6.026  15.994  0.00  0.00    +0.000 OA
ENDROOT
BRANCH   1   3
ATOM      3  O   UNL     1       6.011   4.395  15.815  0.00  0.00    +0.000 OA
BRANCH   3   4
ATOM      4  C   UNL     1       6.268   4.428  14.424  0.00  0.00    +0.000 C 
BRANCH   4   5
ATOM      5  C   UNL     1       5.286   3.597  13.618  0.00  0.00    +0.000 C 
BRANCH   5   6
ATOM      6  C   UNL     1       5.646   3.689  12.126  0.00  0.00    +0.000 C 
BRANCH   6   7
ATOM      7  C   UNL     1       5.063   2.506  11.344  0.00  0.00    +0.000 C 
BRANCH   7   8
ATOM      8  C   UNL     1       3.600   2.753  10.990  0.00  0.00    +0.000 C 
ATOM      9  C   UNL     1       3.467   4.044  10.201  0.00  0.00    +0.000 C 
ENDBRANCH   7   8
ENDBRANCH   6   7
ENDBRANCH   5   6
ENDBRANCH   4   5
ENDBRANCH   3   4
ENDBRANCH   1   3
BRANCH   1  10
ATOM     10  C   UNL     1       6.456   5.084  18.336  0.00  0.00    +0.000 C 
BRANCH  10  11
ATOM     11  C   UNL     1       5.258   5.165  19.277  0.00  0.00    +0.000 C 
BRANCH  11  12
ATOM     12  C   UNL     1       4.063   4.384  18.741  0.00  0.00    +0.000 C 
BRANCH  12  13
ATOM     13  N   UNL     1       2.958   4.249  19.706  0.00  0.00    +0.000 N 
ATOM     14  C   UNL     1       2.347   3.084  20.083  0.00  0.00    +0.000 C 
ATOM     15  C   UNL     1       1.251   3.199  21.118  0.00  0.00    +0.000 C 
ATOM     16  O   UNL     1       2.607   1.982  19.568  0.00  0.00    +0.000 OA
BRANCH  13  17
ATOM     17  O   UNL     1       2.932   5.318  20.646  0.00  0.00    +0.000 OA
ATOM     18  H   UNL     1       1.998   5.376  20.881  0.00  0.00    +0.000 HD
ENDBRANCH  13  17
ENDBRANCH  12  13
ENDBRANCH  11  12
ENDBRANCH  10  11
ENDBRANCH   1  10
BRANCH   1  19
ATOM     19  O   UNL     1       6.392   7.441  17.412  0.00  0.00    +0.000 OA
BRANCH  19  20
ATOM     20  C   UNL     1       7.723   7.730  17.831  0.00  0.00    +0.000 C 
BRANCH  20  21
ATOM     21  C   UNL     1       8.046   9.218  17.809  0.00  0.00    +0.000 C 
BRANCH  21  22
ATOM     22  C   UNL     1       8.996   9.515  18.971  0.00  0.00    +0.000 C 
BRANCH  22  23
ATOM     23  C   UNL     1       9.346  10.995  19.041  0.00  0.00    +0.000 C 
BRANCH  23  25
ATOM     24  C   UNL     1      10.811  12.299  17.492  0.00  0.00    +0.000 C 
ATOM     25  C   UNL     1      10.782  11.241  18.582  0.00  0.00    +0.000 C 
ENDBRANCH  23  25
ENDBRANCH  22  23
ENDBRANCH  21  22
ENDBRANCH  20  21
ENDBRANCH  19  20
ENDBRANCH   1  19
TORSDOF 17
ENDMDL
MODEL 6
REMARK VINA RESULT:      -6.1      1.097      1.227
REMARK  Name = 
REMARK  20 active torsions:
REMARK  status: ('A' for Active; 'I' for Inactive)
REMARK    1  A    between atoms: C_1  and  C_2
REMARK    2  A    between atoms: C_2  and  C_3
REMARK    3  A    between atoms: C_3  and  C_4
REMARK    4  A    between atoms: C_4  and  C_5
REMARK    5  A    between atoms: C_5  and  C_6
REMARK    6  A    between atoms: C_6  and  O_7
REMARK    7  A    between atoms: O_7  and  P_8
REMARK    8  A    between atoms: P_8  and  C_10
REMARK    9  A    between atoms: P_8  and  O_18
REMARK   10  A    between atoms: C_10  and  C_11
REMARK   11  A    between atoms: C_11  and  C_12
REMARK   12  A    between atoms: C_12  and  N_13
REMARK   13  A    between atoms: N_13  and  O_14
REMARK   14  A    between atoms: C_15  and  C_16
REMARK   15  A    between atoms: O_18  and  C_19
REMARK   16  A    between atoms: C_19  and  C_20
REMARK   17  A    between atoms: C_20  and  C_21
REMARK   18  A    between atoms: C_21  and  C_22
REMARK   19  A    between atoms: C_22  and  C_23
REMARK   20  A    between atoms: C_23  and  C_24
REMARK                            x       y       z     vdW  Elec       q    Type
REMARK                         _______ _______ _______ _____ _____    ______ ____
ROOT
ATOM      1  P   UNL     1       7.153   5.420  17.485  0.00  0.00    +0.000 P 
ATOM      2  O   UNL     1       7.756   4.242  18.267  0.00  0.00    +0.000 OA
ENDROOT
BRANCH   1   3
ATOM      3  O   UNL     1       6.776   4.322  16.202  0.00  0.00    +0.000 OA
BRANCH   3   4
ATOM      4  C   UNL     1       6.702   4.922  14.923  0.00  0.00    +0.000 C 
BRANCH   4   5
ATOM      5  C   UNL     1       5.593   4.347  14.060  0.00  0.00    +0.000 C 
BRANCH   5   6
ATOM      6  C   UNL     1       6.201   3.385  13.026  0.00  0.00    +0.000 C 
BRANCH   6   7
ATOM      7  C   UNL     1       5.619   3.637  11.630  0.00  0.00    +0.000 C 
BRANCH   7   8
ATOM      8  C   UNL     1       4.159   3.199  11.559  0.00  0.00    +0.000 C 
ATOM      9  C   UNL     1       3.485   3.830  10.353  0.00  0.00    +0.000 C 
ENDBRANCH   7   8
ENDBRANCH   6   7
ENDBRANCH   5   6
ENDBRANCH   4   5
ENDBRANCH   3   4
ENDBRANCH   1   3
BRANCH   1  10
ATOM     10  C   UNL     1       5.311   5.531  18.051  0.00  0.00    +0.000 C 
BRANCH  10  11
ATOM     11  C   UNL     1       4.474   4.285  17.777  0.00  0.00    +0.000 C 
BRANCH  11  12
ATOM     12  C   UNL     1       4.392   3.377  19.001  0.00  0.00    +0.000 C 
BRANCH  12  13
ATOM     13  N   UNL     1       3.041   3.276  19.579  0.00  0.00    +0.000 N 
ATOM     14  C   UNL     1       2.723   2.793  20.818  0.00  0.00    +0.000 C 
ATOM     15  C   UNL     1       1.260   2.820  21.199  0.00  0.00    +0.000 C 
ATOM     16  O   UNL     1       3.558   2.285  21.586  0.00  0.00    +0.000 OA
BRANCH  13  17
ATOM     17  O   UNL     1       2.142   4.223  19.011  0.00  0.00    +0.000 OA
ATOM     18  H   UNL     1       2.725   4.789  18.489  0.00  0.00    +0.000 HD
ENDBRANCH  13  17
ENDBRANCH  12  13
ENDBRANCH  11  12
ENDBRANCH  10  11
ENDBRANCH   1  10
BRANCH   1  19
ATOM     19  O   UNL     1       7.530   6.517  18.768  0.00  0.00    +0.000 OA
BRANCH  19  20
ATOM     20  C   UNL     1       8.388   7.594  18.397  0.00  0.00    +0.000 C 
BRANCH  20  21
ATOM     21  C   UNL     1       7.651   8.738  17.716  0.00  0.00    +0.000 C 
BRANCH  21  22
ATOM     22  C   UNL     1       8.538   9.983  17.784  0.00  0.00    +0.000 C 
BRANCH  22  23
ATOM     23  C   UNL     1       9.161  10.151  19.162  0.00  0.00    +0.000 C 
BRANCH  23  25
ATOM     24  C   UNL     1      10.427  11.685  20.676  0.00  0.00    +0.000 C 
ATOM     25  C   UNL     1       9.964  11.448  19.248  0.00  0.00    +0.000 C 
ENDBRANCH  23  25
ENDBRANCH  22  23
ENDBRANCH  21  22
ENDBRANCH  20  21
ENDBRANCH  19  20
ENDBRANCH   1  19
TORSDOF 17
ENDMDL
MODEL 7
REMARK VINA RESULT:      -6.0      3.233      6.598
REMARK  Name = 
REMARK  20 active torsions:
REMARK  status: ('A' for Active; 'I' for Inactive)
REMARK    1  A    between atoms: C_1  and  C_2
REMARK    2  A    between atoms: C_2  and  C_3
REMARK    3  A    between atoms: C_3  and  C_4
REMARK    4  A    between atoms: C_4  and  C_5
REMARK    5  A    between atoms: C_5  and  C_6
REMARK    6  A    between atoms: C_6  and  O_7
REMARK    7  A    between atoms: O_7  and  P_8
REMARK    8  A    between atoms: P_8  and  C_10
REMARK    9  A    between atoms: P_8  and  O_18
REMARK   10  A    between atoms: C_10  and  C_11
REMARK   11  A    between atoms: C_11  and  C_12
REMARK   12  A    between atoms: C_12  and  N_13
REMARK   13  A    between atoms: N_13  and  O_14
REMARK   14  A    between atoms: C_15  and  C_16
REMARK   15  A    between atoms: O_18  and  C_19
REMARK   16  A    between atoms: C_19  and  C_20
REMARK   17  A    between atoms: C_20  and  C_21
REMARK   18  A    between atoms: C_21  and  C_22
REMARK   19  A    between atoms: C_22  and  C_23
REMARK   20  A    between atoms: C_23  and  C_24
REMARK                            x       y       z     vdW  Elec       q    Type
REMARK                         _______ _______ _______ _____ _____    ______ ____
ROOT
ATOM      1  P   UNL     1       4.936   4.225  17.973  0.00  0.00    +0.000 P 
ATOM      2  O   UNL     1       6.285   4.222  18.709  0.00  0.00    +0.000 OA
ENDROOT
BRANCH   1   3
ATOM      3  O   UNL     1       4.414   2.942  19.009  0.00  0.00    +0.000 OA
BRANCH   3   4
ATOM      4  C   UNL     1       3.647   1.944  18.362  0.00  0.00    +0.000 C 
BRANCH   4   5
ATOM      5  C   UNL     1       2.346   2.474  17.787  0.00  0.00    +0.000 C 
BRANCH   5   6
ATOM      6  C   UNL     1       1.210   2.237  18.797  0.00  0.00    +0.000 C 
BRANCH   6   7
ATOM      7  C   UNL     1       1.087   3.412  19.774  0.00  0.00    +0.000 C 
BRANCH   7   8
ATOM      8  C   UNL     1       1.046   2.921  21.218  0.00  0.00    +0.000 C 
ATOM      9  C   UNL     1       2.457   2.782  21.760  0.00  0.00    +0.000 C 
ENDBRANCH   7   8
ENDBRANCH   6   7
ENDBRANCH   5   6
ENDBRANCH   4   5
ENDBRANCH   3   4
ENDBRANCH   1   3
BRANCH   1  10
ATOM     10  C   UNL     1       3.847   5.529  18.890  0.00  0.00    +0.000 C 
BRANCH  10  11
ATOM     11  C   UNL     1       2.893   6.318  17.997  0.00  0.00    +0.000 C 
BRANCH  11  12
ATOM     12  C   UNL     1       3.208   7.810  18.010  0.00  0.00    +0.000 C 
BRANCH  12  13
ATOM     13  N   UNL     1       2.034   8.665  18.251  0.00  0.00    +0.000 N 
ATOM     14  C   UNL     1       1.404   8.861  19.450  0.00  0.00    +0.000 C 
ATOM     15  C   UNL     1       0.231   9.815  19.449  0.00  0.00    +0.000 C 
ATOM     16  O   UNL     1       1.710   8.249  20.488  0.00  0.00    +0.000 OA
BRANCH  13  17
ATOM     17  O   UNL     1       1.928   9.714  17.293  0.00  0.00    +0.000 OA
ATOM     18  H   UNL     1       2.145   9.271  16.463  0.00  0.00    +0.000 HD
ENDBRANCH  13  17
ENDBRANCH  12  13
ENDBRANCH  11  12
ENDBRANCH  10  11
ENDBRANCH   1  10
BRANCH   1  19
ATOM     19  O   UNL     1       5.458   5.509  16.937  0.00  0.00    +0.000 OA
BRANCH  19  20
ATOM     20  C   UNL     1       6.805   5.397  16.483  0.00  0.00    +0.000 C 
BRANCH  20  21
ATOM     21  C   UNL     1       6.970   4.404  15.341  0.00  0.00    +0.000 C 
BRANCH  21  22
ATOM     22  C   UNL     1       5.978   4.778  14.238  0.00  0.00    +0.000 C 
BRANCH  22  23
ATOM     23  C   UNL     1       5.860   3.675  13.196  0.00  0.00    +0.000 C 
BRANCH  23  25
ATOM     24  C   UNL     1       7.553   5.167  12.123  0.00  0.00    +0.000 C 
ATOM     25  C   UNL     1       6.999   3.754  12.181  0.00  0.00    +0.000 C 
ENDBRANCH  23  25
ENDBRANCH  22  23
ENDBRANCH  21  22
ENDBRANCH  20  21
ENDBRANCH  19  20
ENDBRANCH   1  19
TORSDOF 17
ENDMDL
MODEL 8
REMARK VINA RESULT:      -6.0      1.133      7.201
REMARK  Name = 
REMARK  20 active torsions:
REMARK  status: ('A' for Active; 'I' for Inactive)
REMARK    1  A    between atoms: C_1  and  C_2
REMARK    2  A    between atoms: C_2  and  C_3
REMARK    3  A    between atoms: C_3  and  C_4
REMARK    4  A    between atoms: C_4  and  C_5
REMARK    5  A    between atoms: C_5  and  C_6
REMARK    6  A    between atoms: C_6  and  O_7
REMARK    7  A    between atoms: O_7  and  P_8
REMARK    8  A    between atoms: P_8  and  C_10
REMARK    9  A    between atoms: P_8  and  O_18
REMARK   10  A    between atoms: C_10  and  C_11
REMARK   11  A    between atoms: C_11  and  C_12
REMARK   12  A    between atoms: C_12  and  N_13
REMARK   13  A    between atoms: N_13  and  O_14
REMARK   14  A    between atoms: C_15  and  C_16
REMARK   15  A    between atoms: O_18  and  C_19
REMARK   16  A    between atoms: C_19  and  C_20
REMARK   17  A    between atoms: C_20  and  C_21
REMARK   18  A    between atoms: C_21  and  C_22
REMARK   19  A    between atoms: C_22  and  C_23
REMARK   20  A    between atoms: C_23  and  C_24
REMARK                            x       y       z     vdW  Elec       q    Type
REMARK                         _______ _______ _______ _____ _____    ______ ____
ROOT
ATOM      1  P   UNL     1       6.383   6.206  16.866  0.00  0.00    +0.000 P 
ATOM      2  O   UNL     1       5.183   7.147  17.061  0.00  0.00    +0.000 OA
ENDROOT
BRANCH   1   3
ATOM      3  O   UNL     1       6.929   6.641  18.449  0.00  0.00    +0.000 OA
BRANCH   3   4
ATOM      4  C   UNL     1       8.175   7.312  18.473  0.00  0.00    +0.000 C 
BRANCH   4   5
ATOM      5  C   UNL     1       8.099   8.725  17.923  0.00  0.00    +0.000 C 
BRANCH   5   6
ATOM      6  C   UNL     1       8.945   9.660  18.803  0.00  0.00    +0.000 C 
BRANCH   6   7
ATOM      7  C   UNL     1       9.094  11.042  18.157  0.00  0.00    +0.000 C 
BRANCH   7   8
ATOM      8  C   UNL     1      10.483  11.618  18.411  0.00  0.00    +0.000 C 
ATOM      9  C   UNL     1      10.810  11.552  19.893  0.00  0.00    +0.000 C 
ENDBRANCH   7   8
ENDBRANCH   6   7
ENDBRANCH   5   6
ENDBRANCH   4   5
ENDBRANCH   3   4
ENDBRANCH   1   3
BRANCH   1  10
ATOM     10  C   UNL     1       5.781   4.468  17.454  0.00  0.00    +0.000 C 
BRANCH  10  11
ATOM     11  C   UNL     1       5.172   4.434  18.852  0.00  0.00    +0.000 C 
BRANCH  11  12
ATOM     12  C   UNL     1       4.393   3.146  19.100  0.00  0.00    +0.000 C 
BRANCH  12  13
ATOM     13  N   UNL     1       3.146   3.341  19.859  0.00  0.00    +0.000 N 
ATOM     14  C   UNL     1       1.924   3.677  19.343  0.00  0.00    +0.000 C 
ATOM     15  C   UNL     1       0.782   3.789  20.328  0.00  0.00    +0.000 C 
ATOM     16  O   UNL     1       1.745   3.952  18.144  0.00  0.00    +0.000 OA
BRANCH  13  17
ATOM     17  O   UNL     1       3.145   2.615  21.085  0.00  0.00    +0.000 OA
ATOM     18  H   UNL     1       3.765   1.896  20.910  0.00  0.00    +0.000 HD
ENDBRANCH  13  17
ENDBRANCH  12  13
ENDBRANCH  11  12
ENDBRANCH  10  11
ENDBRANCH   1  10
BRANCH   1  19
ATOM     19  O   UNL     1       5.836   5.771  15.283  0.00  0.00    +0.000 OA
BRANCH  19  20
ATOM     20  C   UNL     1       6.706   4.892  14.574  0.00  0.00    +0.000 C 
BRANCH  20  21
ATOM     21  C   UNL     1       6.023   3.608  14.127  0.00  0.00    +0.000 C 
BRANCH  21  22
ATOM     22  C   UNL     1       6.164   3.497  12.607  0.00  0.00    +0.000 C 
BRANCH  22  23
ATOM     23  C   UNL     1       4.938   4.043  11.891  0.00  0.00    +0.000 C 
BRANCH  23  25
ATOM     24  C   UNL     1       3.176   3.498  10.204  0.00  0.00    +0.000 C 
ATOM     25  C   UNL     1       4.151   2.921  11.216  0.00  0.00    +0.000 C 
ENDBRANCH  23  25
ENDBRANCH  22  23
ENDBRANCH  21  22
ENDBRANCH  20  21
ENDBRANCH  19  20
ENDBRANCH   1  19
TORSDOF 17
ENDMDL
MODEL 9
REMARK VINA RESULT:      -6.0      1.510      2.115
REMARK  Name = 
REMARK  20 active torsions:
REMARK  status: ('A' for Active; 'I' for Inactive)
REMARK    1  A    between atoms: C_1  and  C_2
REMARK    2  A    between atoms: C_2  and  C_3
REMARK    3  A    between atoms: C_3  and  C_4
REMARK    4  A    between atoms: C_4  and  C_5
REMARK    5  A    between atoms: C_5  and  C_6
REMARK    6  A    between atoms: C_6  and  O_7
REMARK    7  A    between atoms: O_7  and  P_8
REMARK    8  A    between atoms: P_8  and  C_10
REMARK    9  A    between atoms: P_8  and  O_18
REMARK   10  A    between atoms: C_10  and  C_11
REMARK   11  A    between atoms: C_11  and  C_12
REMARK   12  A    between atoms: C_12  and  N_13
REMARK   13  A    between atoms: N_13  and  O_14
REMARK   14  A    between atoms: C_15  and  C_16
REMARK   15  A    between atoms: O_18  and  C_19
REMARK   16  A    between atoms: C_19  and  C_20
REMARK   17  A    between atoms: C_20  and  C_21
REMARK   18  A    between atoms: C_21  and  C_22
REMARK   19  A    between atoms: C_22  and  C_23
REMARK   20  A    between atoms: C_23  and  C_24
REMARK                            x       y       z     vdW  Elec       q    Type
REMARK                         _______ _______ _______ _____ _____    ______ ____
ROOT
ATOM      1  P   UNL     1       6.619   6.720  17.283  0.00  0.00    +0.000 P 
ATOM      2  O   UNL     1       7.688   6.232  16.293  0.00  0.00    +0.000 OA
ENDROOT
BRANCH   1   3
ATOM      3  O   UNL     1       5.416   5.968  16.293  0.00  0.00    +0.000 OA
BRANCH   3   4
ATOM      4  C   UNL     1       5.839   4.771  15.668  0.00  0.00    +0.000 C 
BRANCH   4   5
ATOM      5  C   UNL     1       5.788   4.841  14.153  0.00  0.00    +0.000 C 
BRANCH   5   6
ATOM      6  C   UNL     1       6.121   3.459  13.567  0.00  0.00    +0.000 C 
BRANCH   6   7
ATOM      7  C   UNL     1       6.135   3.497  12.035  0.00  0.00    +0.000 C 
BRANCH   7   8
ATOM      8  C   UNL     1       5.150   2.487  11.454  0.00  0.00    +0.000 C 
ATOM      9  C   UNL     1       3.897   3.198  10.976  0.00  0.00    +0.000 C 
ENDBRANCH   7   8
ENDBRANCH   6   7
ENDBRANCH   5   6
ENDBRANCH   4   5
ENDBRANCH   3   4
ENDBRANCH   1   3
BRANCH   1  10
ATOM     10  C   UNL     1       6.495   5.345  18.633  0.00  0.00    +0.000 C 
BRANCH  10  11
ATOM     11  C   UNL     1       5.163   5.285  19.374  0.00  0.00    +0.000 C 
BRANCH  11  12
ATOM     12  C   UNL     1       4.332   4.078  18.950  0.00  0.00    +0.000 C 
BRANCH  12  13
ATOM     13  N   UNL     1       3.609   3.433  20.059  0.00  0.00    +0.000 N 
ATOM     14  C   UNL     1       2.266   3.516  20.310  0.00  0.00    +0.000 C 
ATOM     15  C   UNL     1       1.751   2.735  21.498  0.00  0.00    +0.000 C 
ATOM     16  O   UNL     1       1.496   4.242  19.659  0.00  0.00    +0.000 OA
BRANCH  13  17
ATOM     17  O   UNL     1       4.277   2.266  20.529  0.00  0.00    +0.000 OA
ATOM     18  H   UNL     1       4.979   2.628  21.083  0.00  0.00    +0.000 HD
ENDBRANCH  13  17
ENDBRANCH  12  13
ENDBRANCH  11  12
ENDBRANCH  10  11
ENDBRANCH   1  10
BRANCH   1  19
ATOM     19  O   UNL     1       7.822   7.471  18.274  0.00  0.00    +0.000 OA
BRANCH  19  20
ATOM     20  C   UNL     1       8.182   8.791  17.875  0.00  0.00    +0.000 C 
BRANCH  20  21
ATOM     21  C   UNL     1       9.044   9.512  18.901  0.00  0.00    +0.000 C 
BRANCH  21  22
ATOM     22  C   UNL     1       9.467  10.857  18.308  0.00  0.00    +0.000 C 
BRANCH  22  23
ATOM     23  C   UNL     1      10.368  11.630  19.261  0.00  0.00    +0.000 C 
BRANCH  23  25
ATOM     24  C   UNL     1      12.212  13.063  18.370  0.00  0.00    +0.000 C 
ATOM     25  C   UNL     1      11.810  11.650  18.758  0.00  0.00    +0.000 C 
ENDBRANCH  23  25
ENDBRANCH  22  23
ENDBRANCH  21  22
ENDBRANCH  20  21
ENDBRANCH  19  20
ENDBRANCH   1  19
TORSDOF 17
ENDMDL
