MODEL 1
REMARK VINA RESULT:      -7.2      0.000      0.000
REMARK  Name = 
REMARK  8 active torsions:
REMARK  status: ('A' for Active; 'I' for Inactive)
REMARK    1  A    between atoms: C_1  and  C_2
REMARK    2  A    between atoms: C_2  and  N_3
REMARK    3  A    between atoms: C_6  and  C_7
REMARK    4  A    between atoms: C_7  and  N_8
REMARK    5  A    between atoms: N_11  and  C_12
REMARK    6  A    between atoms: C_14  and  C_15
REMARK    7  A    between atoms: C_15  and  C_16
REMARK    8  A    between atoms: N_18  and  C_19
REMARK                            x       y       z     vdW  Elec       q    Type
REMARK                         _______ _______ _______ _____ _____    ______ ____
ROOT
ATOM      1  N   UNL     1       7.998   8.829  17.894  0.00  0.00    +0.000 N 
ATOM      2  C   UNL     1       7.531   7.553  17.855  0.00  0.00    +0.000 C 
ATOM      3  O   UNL     1       7.953   6.609  18.501  0.00  0.00    +0.000 OA
ATOM      4  N   UNL     1       6.487   7.410  16.899  0.00  0.00    +0.000 N 
ATOM      5  H   UNL     1       7.476   9.591  17.494  0.00  0.00    +0.000 HD
ATOM      6  H   UNL     1       6.308   8.154  16.243  0.00  0.00    +0.000 HD
ENDROOT
BRANCH   4   7
ATOM      7  C   UNL     1       5.746   6.233  16.787  0.00  0.00    +0.000 A 
ATOM      8  C   UNL     1       4.595   5.906  17.471  0.00  0.00    +0.000 A 
ATOM      9  C   UNL     1       4.190   4.651  16.969  0.00  0.00    +0.000 A 
ATOM     10  N   UNL     1       5.035   4.203  16.035  0.00  0.00    +0.000 NA
ATOM     11  N   UNL     1       5.977   5.164  15.953  0.00  0.00    +0.000 N 
ATOM     12  C   UNL     1       7.117   4.944  15.096  0.00  0.00    +0.000 C 
BRANCH   9  13
ATOM     13  C   UNL     1       2.973   3.878  17.352  0.00  0.00    +0.000 C 
ATOM     14  C   UNL     1       1.943   4.723  18.085  0.00  0.00    +0.000 C 
ENDBRANCH   9  13
ENDBRANCH   4   7
BRANCH   1  15
ATOM     15  C   UNL     1       9.119   9.145  18.758  0.00  0.00    +0.000 C 
BRANCH  15  19
ATOM     16  N   UNL     1       9.196  13.899  17.395  0.00  0.00    +0.000 N 
ATOM     17  C   UNL     1       9.257  12.939  18.423  0.00  0.00    +0.000 A 
ATOM     18  C   UNL     1       9.148  11.587  18.090  0.00  0.00    +0.000 A 
ATOM     19  C   UNL     1       9.185  10.608  19.096  0.00  0.00    +0.000 A 
ATOM     20  C   UNL     1       9.281  11.030  20.421  0.00  0.00    +0.000 A 
ATOM     21  C   UNL     1       9.335  12.388  20.673  0.00  0.00    +0.000 A 
ATOM     22  N   UNL     1       9.339  13.332  19.709  0.00  0.00    +0.000 NA
ATOM     23  H   UNL     1       9.650  13.544  16.560  0.00  0.00    +0.000 HD
BRANCH  16  25
ATOM     24  C   UNL     1      11.028  15.471  17.018  0.00  0.00    +0.000 C 
ATOM     25  C   UNL     1       9.748  15.196  17.792  0.00  0.00    +0.000 C 
ENDBRANCH  16  25
ENDBRANCH  15  19
ENDBRANCH   1  15
TORSDOF 5
ENDMDL
MODEL 2
REMARK VINA RESULT:      -6.9      1.206      1.846
REMARK  Name = 
REMARK  8 active torsions:
REMARK  status: ('A' for Active; 'I' for Inactive)
REMARK    1  A    between atoms: C_1  and  C_2
REMARK    2  A    between atoms: C_2  and  N_3
REMARK    3  A    between atoms: C_6  and  C_7
REMARK    4  A    between atoms: C_7  and  N_8
REMARK    5  A    between atoms: N_11  and  C_12
REMARK    6  A    between atoms: C_14  and  C_15
REMARK    7  A    between atoms: C_15  and  C_16
REMARK    8  A    between atoms: N_18  and  C_19
REMARK                            x       y       z     vdW  Elec       q    Type
REMARK                         _______ _______ _______ _____ _____    ______ ____
ROOT
ATOM      1  N   UNL     1       7.871   8.813  17.766  0.00  0.00    +0.000 N 
ATOM      2  C   UNL     1       7.436   7.526  17.821  0.00  0.00    +0.000 C 
ATOM      3  O   UNL     1       7.845   6.657  18.572  0.00  0.00    +0.000 OA
ATOM      4  N   UNL     1       6.448   7.268  16.829  0.00  0.00    +0.000 N 
ATOM      5  H   UNL     1       7.353   9.521  17.271  0.00  0.00    +0.000 HD
ATOM      6  H   UNL     1       6.288   7.944  16.099  0.00  0.00    +0.000 HD
ENDROOT
BRANCH   4   7
ATOM      7  C   UNL     1       5.742   6.065  16.789  0.00  0.00    +0.000 A 
ATOM      8  C   UNL     1       4.612   5.740  17.507  0.00  0.00    +0.000 A 
ATOM      9  C   UNL     1       4.237   4.450  17.076  0.00  0.00    +0.000 A 
ATOM     10  N   UNL     1       5.082   3.980  16.152  0.00  0.00    +0.000 NA
ATOM     11  N   UNL     1       5.994   4.962  16.007  0.00  0.00    +0.000 N 
ATOM     12  C   UNL     1       7.126   4.733  15.144  0.00  0.00    +0.000 C 
BRANCH   9  13
ATOM     13  C   UNL     1       3.050   3.661  17.517  0.00  0.00    +0.000 C 
ATOM     14  C   UNL     1       3.397   2.228  17.886  0.00  0.00    +0.000 C 
ENDBRANCH   9  13
ENDBRANCH   4   7
BRANCH   1  15
ATOM     15  C   UNL     1       8.936   9.238  18.653  0.00  0.00    +0.000 C 
BRANCH  15  19
ATOM     16  N   UNL     1      11.412  13.284  20.055  0.00  0.00    +0.000 N 
ATOM     17  C   UNL     1      10.384  12.706  19.286  0.00  0.00    +0.000 A 
ATOM     18  C   UNL     1      10.196  11.324  19.343  0.00  0.00    +0.000 A 
ATOM     19  C   UNL     1       9.192  10.717  18.571  0.00  0.00    +0.000 A 
ATOM     20  C   UNL     1       8.437  11.524  17.722  0.00  0.00    +0.000 A 
ATOM     21  C   UNL     1       8.718  12.877  17.684  0.00  0.00    +0.000 A 
ATOM     22  N   UNL     1       9.654  13.472  18.452  0.00  0.00    +0.000 NA
ATOM     23  H   UNL     1      11.501  12.796  20.940  0.00  0.00    +0.000 HD
BRANCH  16  25
ATOM     24  C   UNL     1      10.382  14.973  21.489  0.00  0.00    +0.000 C 
ATOM     25  C   UNL     1      11.235  14.723  20.255  0.00  0.00    +0.000 C 
ENDBRANCH  16  25
ENDBRANCH  15  19
ENDBRANCH   1  15
TORSDOF 5
ENDMDL
MODEL 3
REMARK VINA RESULT:      -6.9      1.070      2.086
REMARK  Name = 
REMARK  8 active torsions:
REMARK  status: ('A' for Active; 'I' for Inactive)
REMARK    1  A    between atoms: C_1  and  C_2
REMARK    2  A    between atoms: C_2  and  N_3
REMARK    3  A    between atoms: C_6  and  C_7
REMARK    4  A    between atoms: C_7  and  N_8
REMARK    5  A    between atoms: N_11  and  C_12
REMARK    6  A    between atoms: C_14  and  C_15
REMARK    7  A    between atoms: C_15  and  C_16
REMARK    8  A    between atoms: N_18  and  C_19
REMARK                            x       y       z     vdW  Elec       q    Type
REMARK                         _______ _______ _______ _____ _____    ______ ____
ROOT
ATOM      1  N   UNL     1       7.937   8.677  17.802  0.00  0.00    +0.000 N 
ATOM      2  C   UNL     1       7.444   7.410  17.818  0.00  0.00    +0.000 C 
ATOM      3  O   UNL     1       7.763   6.520  18.590  0.00  0.00    +0.000 OA
ATOM      4  N   UNL     1       6.516   7.198  16.760  0.00  0.00    +0.000 N 
ATOM      5  H   UNL     1       7.485   9.409  17.278  0.00  0.00    +0.000 HD
ATOM      6  H   UNL     1       6.436   7.884  16.026  0.00  0.00    +0.000 HD
ENDROOT
BRANCH   4   7
ATOM      7  C   UNL     1       5.763   6.028  16.664  0.00  0.00    +0.000 A 
ATOM      8  C   UNL     1       4.653   5.690  17.405  0.00  0.00    +0.000 A 
ATOM      9  C   UNL     1       4.211   4.450  16.898  0.00  0.00    +0.000 A 
ATOM     10  N   UNL     1       4.997   4.021  15.905  0.00  0.00    +0.000 NA
ATOM     11  N   UNL     1       5.939   4.979  15.792  0.00  0.00    +0.000 N 
ATOM     12  C   UNL     1       7.025   4.775  14.865  0.00  0.00    +0.000 C 
BRANCH   9  13
ATOM     13  C   UNL     1       3.014   3.673  17.333  0.00  0.00    +0.000 C 
ATOM     14  C   UNL     1       1.941   4.546  17.964  0.00  0.00    +0.000 C 
ENDBRANCH   9  13
ENDBRANCH   4   7
BRANCH   1  15
ATOM     15  C   UNL     1       8.957   9.051  18.763  0.00  0.00    +0.000 C 
BRANCH  15  19
ATOM     16  N   UNL     1      10.094  13.063  21.423  0.00  0.00    +0.000 N 
ATOM     17  C   UNL     1       9.617  12.511  20.219  0.00  0.00    +0.000 A 
ATOM     18  C   UNL     1       9.544  11.122  20.097  0.00  0.00    +0.000 A 
ATOM     19  C   UNL     1       9.091  10.542  18.902  0.00  0.00    +0.000 A 
ATOM     20  C   UNL     1       8.770  11.387  17.841  0.00  0.00    +0.000 A 
ATOM     21  C   UNL     1       8.916  12.749  18.023  0.00  0.00    +0.000 A 
ATOM     22  N   UNL     1       9.314  13.315  19.182  0.00  0.00    +0.000 NA
ATOM     23  H   UNL     1       9.789  12.500  22.209  0.00  0.00    +0.000 HD
BRANCH  16  25
ATOM     24  C   UNL     1       9.054  14.663  22.948  0.00  0.00    +0.000 C 
ATOM     25  C   UNL     1       9.720  14.467  21.595  0.00  0.00    +0.000 C 
ENDBRANCH  16  25
ENDBRANCH  15  19
ENDBRANCH   1  15
TORSDOF 5
ENDMDL
MODEL 4
REMARK VINA RESULT:      -6.9      5.589      8.061
REMARK  Name = 
REMARK  8 active torsions:
REMARK  status: ('A' for Active; 'I' for Inactive)
REMARK    1  A    between atoms: C_1  and  C_2
REMARK    2  A    between atoms: C_2  and  N_3
REMARK    3  A    between atoms: C_6  and  C_7
REMARK    4  A    between atoms: C_7  and  N_8
REMARK    5  A    between atoms: N_11  and  C_12
REMARK    6  A    between atoms: C_14  and  C_15
REMARK    7  A    between atoms: C_15  and  C_16
REMARK    8  A    between atoms: N_18  and  C_19
REMARK                            x       y       z     vdW  Elec       q    Type
REMARK                         _______ _______ _______ _____ _____    ______ ____
ROOT
ATOM      1  N   UNL     1       6.835   5.857  17.566  0.00  0.00    +0.000 N 
ATOM      2  C   UNL     1       6.666   4.976  16.544  0.00  0.00    +0.000 C 
ATOM      3  O   UNL     1       6.177   3.862  16.626  0.00  0.00    +0.000 OA
ATOM      4  N   UNL     1       7.191   5.487  15.324  0.00  0.00    +0.000 N 
ATOM      5  H   UNL     1       7.052   6.825  17.393  0.00  0.00    +0.000 HD
ATOM      6  H   UNL     1       7.767   6.313  15.339  0.00  0.00    +0.000 HD
ENDROOT
BRANCH   4   7
ATOM      7  C   UNL     1       6.997   4.832  14.108  0.00  0.00    +0.000 A 
ATOM      8  C   UNL     1       6.087   3.834  13.836  0.00  0.00    +0.000 A 
ATOM      9  C   UNL     1       6.227   3.545  12.462  0.00  0.00    +0.000 A 
ATOM     10  N   UNL     1       7.174   4.303  11.899  0.00  0.00    +0.000 NA
ATOM     11  N   UNL     1       7.639   5.059  12.913  0.00  0.00    +0.000 N 
ATOM     12  C   UNL     1       8.762   5.931  12.667  0.00  0.00    +0.000 C 
BRANCH   9  13
ATOM     13  C   UNL     1       5.437   2.564  11.662  0.00  0.00    +0.000 C 
ATOM     14  C   UNL     1       4.106   3.125  11.188  0.00  0.00    +0.000 C 
ENDBRANCH   9  13
ENDBRANCH   4   7
BRANCH   1  15
ATOM     15  C   UNL     1       6.429   5.475  18.905  0.00  0.00    +0.000 C 
BRANCH  15  19
ATOM     16  N   UNL     1       2.299   3.225  20.436  0.00  0.00    +0.000 N 
ATOM     17  C   UNL     1       2.907   4.312  19.779  0.00  0.00    +0.000 A 
ATOM     18  C   UNL     1       4.300   4.352  19.689  0.00  0.00    +0.000 A 
ATOM     19  C   UNL     1       4.935   5.433  19.058  0.00  0.00    +0.000 A 
ATOM     20  C   UNL     1       4.141   6.473  18.578  0.00  0.00    +0.000 A 
ATOM     21  C   UNL     1       2.772   6.384  18.749  0.00  0.00    +0.000 A 
ATOM     22  N   UNL     1       2.153   5.329  19.320  0.00  0.00    +0.000 NA
ATOM     23  H   UNL     1       2.820   2.374  20.255  0.00  0.00    +0.000 HD
BRANCH  16  25
ATOM     24  C   UNL     1       0.752   2.260  18.810  0.00  0.00    +0.000 C 
ATOM     25  C   UNL     1       0.885   3.068  20.092  0.00  0.00    +0.000 C 
ENDBRANCH  16  25
ENDBRANCH  15  19
ENDBRANCH   1  15
TORSDOF 5
ENDMDL
MODEL 5
REMARK VINA RESULT:      -6.8      1.148      1.454
REMARK  Name = 
REMARK  8 active torsions:
REMARK  status: ('A' for Active; 'I' for Inactive)
REMARK    1  A    between atoms: C_1  and  C_2
REMARK    2  A    between atoms: C_2  and  N_3
REMARK    3  A    between atoms: C_6  and  C_7
REMARK    4  A    between atoms: C_7  and  N_8
REMARK    5  A    between atoms: N_11  and  C_12
REMARK    6  A    between atoms: C_14  and  C_15
REMARK    7  A    between atoms: C_15  and  C_16
REMARK    8  A    between atoms: N_18  and  C_19
REMARK                            x       y       z     vdW  Elec       q    Type
REMARK                         _______ _______ _______ _____ _____    ______ ____
ROOT
ATOM      1  N   UNL     1       7.969   9.083  17.700  0.00  0.00    +0.000 N 
ATOM      2  C   UNL     1       7.563   7.789  17.797  0.00  0.00    +0.000 C 
ATOM      3  O   UNL     1       7.993   6.954  18.574  0.00  0.00    +0.000 OA
ATOM      4  N   UNL     1       6.579   7.477  16.817  0.00  0.00    +0.000 N 
ATOM      5  H   UNL     1       7.434   9.763  17.184  0.00  0.00    +0.000 HD
ATOM      6  H   UNL     1       6.403   8.126  16.066  0.00  0.00    +0.000 HD
ENDROOT
BRANCH   4   7
ATOM      7  C   UNL     1       5.900   6.259  16.816  0.00  0.00    +0.000 A 
ATOM      8  C   UNL     1       4.840   5.897  17.618  0.00  0.00    +0.000 A 
ATOM      9  C   UNL     1       4.462   4.604  17.200  0.00  0.00    +0.000 A 
ATOM     10  N   UNL     1       5.239   4.166  16.204  0.00  0.00    +0.000 NA
ATOM     11  N   UNL     1       6.114   5.172  16.000  0.00  0.00    +0.000 N 
ATOM     12  C   UNL     1       7.178   4.981  15.046  0.00  0.00    +0.000 C 
BRANCH   9  13
ATOM     13  C   UNL     1       3.333   3.781  17.724  0.00  0.00    +0.000 C 
ATOM     14  C   UNL     1       2.019   4.544  17.771  0.00  0.00    +0.000 C 
ENDBRANCH   9  13
ENDBRANCH   4   7
BRANCH   1  15
ATOM     15  C   UNL     1       9.026   9.560  18.571  0.00  0.00    +0.000 C 
BRANCH  15  19
ATOM     16  N   UNL     1       7.983  14.394  18.474  0.00  0.00    +0.000 N 
ATOM     17  C   UNL     1       8.886  13.350  18.196  0.00  0.00    +0.000 A 
ATOM     18  C   UNL     1       8.524  12.041  18.522  0.00  0.00    +0.000 A 
ATOM     19  C   UNL     1       9.412  10.982  18.275  0.00  0.00    +0.000 A 
ATOM     20  C   UNL     1      10.666  11.285  17.748  0.00  0.00    +0.000 A 
ATOM     21  C   UNL     1      10.969  12.610  17.499  0.00  0.00    +0.000 A 
ATOM     22  N   UNL     1      10.106  13.629  17.698  0.00  0.00    +0.000 NA
ATOM     23  H   UNL     1       7.030  14.079  18.326  0.00  0.00    +0.000 HD
BRANCH  16  25
ATOM     24  C   UNL     1       8.401  16.794  18.663  0.00  0.00    +0.000 C 
ATOM     25  C   UNL     1       8.267  15.612  17.714  0.00  0.00    +0.000 C 
ENDBRANCH  16  25
ENDBRANCH  15  19
ENDBRANCH   1  15
TORSDOF 5
ENDMDL
MODEL 6
REMARK VINA RESULT:      -6.8      6.037      8.318
REMARK  Name = 
REMARK  8 active torsions:
REMARK  status: ('A' for Active; 'I' for Inactive)
REMARK    1  A    between atoms: C_1  and  C_2
REMARK    2  A    between atoms: C_2  and  N_3
REMARK    3  A    between atoms: C_6  and  C_7
REMARK    4  A    between atoms: C_7  and  N_8
REMARK    5  A    between atoms: N_11  and  C_12
REMARK    6  A    between atoms: C_14  and  C_15
REMARK    7  A    between atoms: C_15  and  C_16
REMARK    8  A    between atoms: N_18  and  C_19
REMARK                            x       y       z     vdW  Elec       q    Type
REMARK                         _______ _______ _______ _____ _____    ______ ____
ROOT
ATOM      1  N   UNL     1       3.832   5.023  19.581  0.00  0.00    +0.000 N 
ATOM      2  C   UNL     1       2.863   5.929  19.283  0.00  0.00    +0.000 C 
ATOM      3  O   UNL     1       2.098   5.882  18.334  0.00  0.00    +0.000 OA
ATOM      4  N   UNL     1       2.868   7.017  20.199  0.00  0.00    +0.000 N 
ATOM      5  H   UNL     1       4.283   5.015  20.481  0.00  0.00    +0.000 HD
ATOM      6  H   UNL     1       3.639   7.125  20.838  0.00  0.00    +0.000 HD
ENDROOT
BRANCH   4   7
ATOM      7  C   UNL     1       1.869   7.992  20.191  0.00  0.00    +0.000 A 
ATOM      8  C   UNL     1       0.979   8.279  21.202  0.00  0.00    +0.000 A 
ATOM      9  C   UNL     1       0.218   9.378  20.748  0.00  0.00    +0.000 A 
ATOM     10  N   UNL     1       0.593   9.756  19.522  0.00  0.00    +0.000 NA
ATOM     11  N   UNL     1       1.577   8.895  19.195  0.00  0.00    +0.000 N 
ATOM     12  C   UNL     1       2.142   8.959  17.870  0.00  0.00    +0.000 C 
BRANCH   9  13
ATOM     13  C   UNL     1      -0.854  10.100  21.492  0.00  0.00    +0.000 C 
ATOM     14  C   UNL     1      -0.655  10.064  22.999  0.00  0.00    +0.000 C 
ENDBRANCH   9  13
ENDBRANCH   4   7
BRANCH   1  15
ATOM     15  C   UNL     1       4.027   3.883  18.707  0.00  0.00    +0.000 C 
BRANCH  15  19
ATOM     16  N   UNL     1       5.455   4.189  13.981  0.00  0.00    +0.000 N 
ATOM     17  C   UNL     1       5.789   4.252  15.348  0.00  0.00    +0.000 A 
ATOM     18  C   UNL     1       4.783   4.059  16.297  0.00  0.00    +0.000 A 
ATOM     19  C   UNL     1       5.082   4.135  17.666  0.00  0.00    +0.000 A 
ATOM     20  C   UNL     1       6.387   4.456  18.038  0.00  0.00    +0.000 A 
ATOM     21  C   UNL     1       7.315   4.682  17.039  0.00  0.00    +0.000 A 
ATOM     22  N   UNL     1       7.043   4.571  15.722  0.00  0.00    +0.000 NA
ATOM     23  H   UNL     1       4.743   3.483  13.829  0.00  0.00    +0.000 HD
BRANCH  16  25
ATOM     24  C   UNL     1       6.239   3.054  11.965  0.00  0.00    +0.000 C 
ATOM     25  C   UNL     1       6.618   3.968  13.119  0.00  0.00    +0.000 C 
ENDBRANCH  16  25
ENDBRANCH  15  19
ENDBRANCH   1  15
TORSDOF 5
ENDMDL
MODEL 7
REMARK VINA RESULT:      -6.7      2.293      9.040
REMARK  Name = 
REMARK  8 active torsions:
REMARK  status: ('A' for Active; 'I' for Inactive)
REMARK    1  A    between atoms: C_1  and  C_2
REMARK    2  A    between atoms: C_2  and  N_3
REMARK    3  A    between atoms: C_6  and  C_7
REMARK    4  A    between atoms: C_7  and  N_8
REMARK    5  A    between atoms: N_11  and  C_12
REMARK    6  A    between atoms: C_14  and  C_15
REMARK    7  A    between atoms: C_15  and  C_16
REMARK    8  A    between atoms: N_18  and  C_19
REMARK                            x       y       z     vdW  Elec       q    Type
REMARK                         _______ _______ _______ _____ _____    ______ ____
ROOT
ATOM      1  N   UNL     1       8.110   7.553  18.156  0.00  0.00    +0.000 N 
ATOM      2  C   UNL     1       8.272   8.897  18.278  0.00  0.00    +0.000 C 
ATOM      3  O   UNL     1       7.729   9.754  17.601  0.00  0.00    +0.000 OA
ATOM      4  N   UNL     1       9.225   9.218  19.285  0.00  0.00    +0.000 N 
ATOM      5  H   UNL     1       8.425   6.919  18.873  0.00  0.00    +0.000 HD
ATOM      6  H   UNL     1       9.800   8.488  19.675  0.00  0.00    +0.000 HD
ENDROOT
BRANCH   4   7
ATOM      7  C   UNL     1       9.446  10.531  19.700  0.00  0.00    +0.000 A 
ATOM      8  C   UNL     1       9.040  11.110  20.882  0.00  0.00    +0.000 A 
ATOM      9  C   UNL     1       9.554  12.424  20.867  0.00  0.00    +0.000 A 
ATOM     10  N   UNL     1      10.233  12.669  19.742  0.00  0.00    +0.000 NA
ATOM     11  N   UNL     1      10.140  11.520  19.041  0.00  0.00    +0.000 N 
ATOM     12  C   UNL     1      10.685  11.477  17.707  0.00  0.00    +0.000 C 
BRANCH   9  13
ATOM     13  C   UNL     1       9.432  13.452  21.941  0.00  0.00    +0.000 C 
ATOM     14  C   UNL     1      10.226  14.714  21.643  0.00  0.00    +0.000 C 
ENDBRANCH   9  13
ENDBRANCH   4   7
BRANCH   1  15
ATOM     15  C   UNL     1       7.232   7.037  17.123  0.00  0.00    +0.000 C 
BRANCH  15  19
ATOM     16  N   UNL     1       5.131   3.205  19.440  0.00  0.00    +0.000 N 
ATOM     17  C   UNL     1       4.990   4.451  18.799  0.00  0.00    +0.000 A 
ATOM     18  C   UNL     1       6.132   5.095  18.319  0.00  0.00    +0.000 A 
ATOM     19  C   UNL     1       6.024   6.347  17.693  0.00  0.00    +0.000 A 
ATOM     20  C   UNL     1       4.764   6.938  17.616  0.00  0.00    +0.000 A 
ATOM     21  C   UNL     1       3.689   6.260  18.160  0.00  0.00    +0.000 A 
ATOM     22  N   UNL     1       3.780   5.039  18.727  0.00  0.00    +0.000 NA
ATOM     23  H   UNL     1       5.868   2.668  18.998  0.00  0.00    +0.000 HD
BRANCH  16  25
ATOM     24  C   UNL     1       3.713   1.626  18.231  0.00  0.00    +0.000 C 
ATOM     25  C   UNL     1       3.880   2.448  19.499  0.00  0.00    +0.000 C 
ENDBRANCH  16  25
ENDBRANCH  15  19
ENDBRANCH   1  15
TORSDOF 5
ENDMDL
MODEL 8
REMARK VINA RESULT:      -6.7      2.154      9.085
REMARK  Name = 
REMARK  8 active torsions:
REMARK  status: ('A' for Active; 'I' for Inactive)
REMARK    1  A    between atoms: C_1  and  C_2
REMARK    2  A    between atoms: C_2  and  N_3
REMARK    3  A    between atoms: C_6  and  C_7
REMARK    4  A    between atoms: C_7  and  N_8
REMARK    5  A    between atoms: N_11  and  C_12
REMARK    6  A    between atoms: C_14  and  C_15
REMARK    7  A    between atoms: C_15  and  C_16
REMARK    8  A    between atoms: N_18  and  C_19
REMARK                            x       y       z     vdW  Elec       q    Type
REMARK                         _______ _______ _______ _____ _____    ______ ____
ROOT
ATOM      1  N   UNL     1       7.048   7.537  17.073  0.00  0.00    +0.000 N 
ATOM      2  C   UNL     1       7.892   8.259  17.858  0.00  0.00    +0.000 C 
ATOM      3  O   UNL     1       8.602   7.822  18.748  0.00  0.00    +0.000 OA
ATOM      4  N   UNL     1       7.819   9.649  17.561  0.00  0.00    +0.000 N 
ATOM      5  H   UNL     1       6.653   7.926  16.233  0.00  0.00    +0.000 HD
ATOM      6  H   UNL     1       7.078   9.992  16.971  0.00  0.00    +0.000 HD
ENDROOT
BRANCH   4   7
ATOM      7  C   UNL     1       8.701  10.571  18.126  0.00  0.00    +0.000 A 
ATOM      8  C   UNL     1       9.747  10.305  18.981  0.00  0.00    +0.000 A 
ATOM      9  C   UNL     1      10.377  11.544  19.220  0.00  0.00    +0.000 A 
ATOM     10  N   UNL     1       9.763  12.537  18.568  0.00  0.00    +0.000 NA
ATOM     11  N   UNL     1       8.742  11.932  17.929  0.00  0.00    +0.000 N 
ATOM     12  C   UNL     1       7.800  12.747  17.202  0.00  0.00    +0.000 C 
BRANCH   9  13
ATOM     13  C   UNL     1      11.593  11.793  20.048  0.00  0.00    +0.000 C 
ATOM     14  C   UNL     1      12.310  13.080  19.674  0.00  0.00    +0.000 C 
ENDBRANCH   9  13
ENDBRANCH   4   7
BRANCH   1  15
ATOM     15  C   UNL     1       6.932   6.108  17.288  0.00  0.00    +0.000 C 
BRANCH  15  19
ATOM     16  N   UNL     1       4.056   3.123  19.987  0.00  0.00    +0.000 N 
ATOM     17  C   UNL     1       4.172   4.236  19.133  0.00  0.00    +0.000 A 
ATOM     18  C   UNL     1       5.437   4.604  18.673  0.00  0.00    +0.000 A 
ATOM     19  C   UNL     1       5.586   5.722  17.837  0.00  0.00    +0.000 A 
ATOM     20  C   UNL     1       4.451   6.469  17.528  0.00  0.00    +0.000 A 
ATOM     21  C   UNL     1       3.240   6.069  18.063  0.00  0.00    +0.000 A 
ATOM     22  N   UNL     1       3.084   4.974  18.836  0.00  0.00    +0.000 NA
ATOM     23  H   UNL     1       4.726   2.409  19.722  0.00  0.00    +0.000 HD
BRANCH  16  25
ATOM     24  C   UNL     1       2.125   2.762  21.439  0.00  0.00    +0.000 C 
ATOM     25  C   UNL     1       2.696   2.584  20.041  0.00  0.00    +0.000 C 
ENDBRANCH  16  25
ENDBRANCH  15  19
ENDBRANCH   1  15
TORSDOF 5
ENDMDL
MODEL 9
REMARK VINA RESULT:      -6.7      6.125      8.419
REMARK  Name = 
REMARK  8 active torsions:
REMARK  status: ('A' for Active; 'I' for Inactive)
REMARK    1  A    between atoms: C_1  and  C_2
REMARK    2  A    between atoms: C_2  and  N_3
REMARK    3  A    between atoms: C_6  and  C_7
REMARK    4  A    between atoms: C_7  and  N_8
REMARK    5  A    between atoms: N_11  and  C_12
REMARK    6  A    between atoms: C_14  and  C_15
REMARK    7  A    between atoms: C_15  and  C_16
REMARK    8  A    between atoms: N_18  and  C_19
REMARK                            x       y       z     vdW  Elec       q    Type
REMARK                         _______ _______ _______ _____ _____    ______ ____
ROOT
ATOM      1  N   UNL     1       3.371   6.777  18.847  0.00  0.00    +0.000 N 
ATOM      2  C   UNL     1       2.336   7.154  19.645  0.00  0.00    +0.000 C 
ATOM      3  O   UNL     1       1.808   6.477  20.511  0.00  0.00    +0.000 OA
ATOM      4  N   UNL     1       1.872   8.459  19.315  0.00  0.00    +0.000 N 
ATOM      5  H   UNL     1       3.885   7.451  18.302  0.00  0.00    +0.000 HD
ATOM      6  H   UNL     1       2.191   8.900  18.467  0.00  0.00    +0.000 HD
ENDROOT
BRANCH   4   7
ATOM      7  C   UNL     1       0.924   9.122  20.094  0.00  0.00    +0.000 A 
ATOM      8  C   UNL     1       0.806   9.093  21.466  0.00  0.00    +0.000 A 
ATOM      9  C   UNL     1      -0.255   9.967  21.783  0.00  0.00    +0.000 A 
ATOM     10  N   UNL     1      -0.786  10.509  20.682  0.00  0.00    +0.000 NA
ATOM     11  N   UNL     1      -0.073   9.971  19.671  0.00  0.00    +0.000 N 
ATOM     12  C   UNL     1      -0.462  10.269  18.315  0.00  0.00    +0.000 C 
BRANCH   9  13
ATOM     13  C   UNL     1      -0.755  10.322  23.143  0.00  0.00    +0.000 C 
ATOM     14  C   UNL     1      -1.668  11.538  23.137  0.00  0.00    +0.000 C 
ENDBRANCH   9  13
ENDBRANCH   4   7
BRANCH   1  15
ATOM     15  C   UNL     1       3.923   5.444  18.987  0.00  0.00    +0.000 C 
BRANCH  15  19
ATOM     16  N   UNL     1       5.990   5.357  14.495  0.00  0.00    +0.000 N 
ATOM     17  C   UNL     1       6.111   5.144  15.881  0.00  0.00    +0.000 A 
ATOM     18  C   UNL     1       5.011   5.404  16.701  0.00  0.00    +0.000 A 
ATOM     19  C   UNL     1       5.107   5.219  18.089  0.00  0.00    +0.000 A 
ATOM     20  C   UNL     1       6.335   4.823  18.617  0.00  0.00    +0.000 A 
ATOM     21  C   UNL     1       7.391   4.634  17.745  0.00  0.00    +0.000 A 
ATOM     22  N   UNL     1       7.294   4.772  16.406  0.00  0.00    +0.000 NA
ATOM     23  H   UNL     1       5.057   5.111  14.184  0.00  0.00    +0.000 HD
BRANCH  16  25
ATOM     24  C   UNL     1       6.357   3.643  12.793  0.00  0.00    +0.000 C 
ATOM     25  C   UNL     1       7.014   4.656  13.718  0.00  0.00    +0.000 C 
ENDBRANCH  16  25
ENDBRANCH  15  19
ENDBRANCH   1  15
TORSDOF 5
ENDMDL
