MODEL 1
REMARK VINA RESULT:      -8.1      0.000      0.000
REMARK  Name = 
REMARK  5 active torsions:
REMARK  status: ('A' for Active; 'I' for Inactive)
REMARK    1  A    between atoms: C_1  and  C_2
REMARK    2  A    between atoms: C_5  and  N_6
REMARK    3  A    between atoms: C_7  and  C_9
REMARK    4  A    between atoms: C_11  and  N_12
REMARK    5  A    between atoms: C_21  and  N_22
REMARK                            x       y       z     vdW  Elec       q    Type
REMARK                         _______ _______ _______ _____ _____    ______ ____
ROOT
ATOM      1  C   UNL     1       6.752   5.636  17.125  0.00  0.00    +0.000 A 
ATOM      2  C   UNL     1       7.237   5.540  15.781  0.00  0.00    +0.000 A 
ATOM      3  C   UNL     1       6.728   4.617  14.837  0.00  0.00    +0.000 A 
ATOM      4  C   UNL     1       5.699   3.766  15.180  0.00  0.00    +0.000 A 
ATOM      5  C   UNL     1       5.185   3.945  16.449  0.00  0.00    +0.000 A 
ATOM      6  C   UNL     1       5.690   4.789  17.488  0.00  0.00    +0.000 A 
ATOM      7  C   UNL     1       4.602   4.924  18.465  0.00  0.00    +0.000 A 
ATOM      8  C   UNL     1       4.487   5.374  19.758  0.00  0.00    +0.000 A 
ATOM      9  C   UNL     1       3.360   6.151  20.029  0.00  0.00    +0.000 A 
ATOM     10  C   UNL     1       2.514   6.498  18.954  0.00  0.00    +0.000 A 
ATOM     11  C   UNL     1       2.463   5.697  17.817  0.00  0.00    +0.000 A 
ATOM     12  C   UNL     1       3.424   4.722  17.761  0.00  0.00    +0.000 A 
ATOM     13  C   UNL     1       3.737   3.815  16.660  0.00  0.00    +0.000 C 
ATOM     14  O   UNL     1       2.962   3.125  16.038  0.00  0.00    +0.000 OA
ENDROOT
BRANCH   1  16
ATOM     15  N   UNL     1       7.327   8.081  17.423  0.00  0.00    +0.000 N 
ATOM     16  C   UNL     1       7.380   6.778  17.883  0.00  0.00    +0.000 C 
ATOM     17  O   UNL     1       7.952   6.451  18.924  0.00  0.00    +0.000 OA
ATOM     18  H   UNL     1       6.711   8.317  16.666  0.00  0.00    +0.000 HD
BRANCH  15  23
ATOM     19  C   UNL     1      10.365  12.595  19.336  0.00  0.00    +0.000 C 
ATOM     20  C   UNL     1       9.552  11.419  18.878  0.00  0.00    +0.000 A 
ATOM     21  C   UNL     1       9.670  10.172  19.503  0.00  0.00    +0.000 A 
ATOM     22  C   UNL     1       8.935   9.071  19.045  0.00  0.00    +0.000 A 
ATOM     23  C   UNL     1       8.058   9.183  17.962  0.00  0.00    +0.000 A 
ATOM     24  C   UNL     1       7.928  10.431  17.342  0.00  0.00    +0.000 A 
ATOM     25  C   UNL     1       8.667  11.543  17.803  0.00  0.00    +0.000 A 
ENDBRANCH  15  23
ENDBRANCH   1  16
BRANCH   3  26
ATOM     26  N   UNL     1       7.128   4.686  13.423  0.00  0.00    +0.000 N 
ATOM     27  O   UNL     1       6.648   3.852  12.646  0.00  0.00    +0.000 OA
ATOM     28  O   UNL     1       7.939   5.569  13.099  0.00  0.00    +0.000 OA
ENDBRANCH   3  26
BRANCH  10  29
ATOM     29  N   UNL     1       1.990   7.870  18.904  0.00  0.00    +0.000 N 
ATOM     30  O   UNL     1       1.580   8.358  19.966  0.00  0.00    +0.000 OA
ATOM     31  O   UNL     1       2.104   8.486  17.836  0.00  0.00    +0.000 OA
ENDBRANCH  10  29
TORSDOF 4
ENDMDL
MODEL 2
REMARK VINA RESULT:      -8.1      3.608      6.925
REMARK  Name = 
REMARK  5 active torsions:
REMARK  status: ('A' for Active; 'I' for Inactive)
REMARK    1  A    between atoms: C_1  and  C_2
REMARK    2  A    between atoms: C_5  and  N_6
REMARK    3  A    between atoms: C_7  and  C_9
REMARK    4  A    between atoms: C_11  and  N_12
REMARK    5  A    between atoms: C_21  and  N_22
REMARK                            x       y       z     vdW  Elec       q    Type
REMARK                         _______ _______ _______ _____ _____    ______ ____
ROOT
ATOM      1  C   UNL     1       2.317   5.624  19.498  0.00  0.00    +0.000 A 
ATOM      2  C   UNL     1       2.008   4.759  20.597  0.00  0.00    +0.000 A 
ATOM      3  C   UNL     1       2.209   3.358  20.562  0.00  0.00    +0.000 A 
ATOM      4  C   UNL     1       2.748   2.761  19.443  0.00  0.00    +0.000 A 
ATOM      5  C   UNL     1       3.126   3.627  18.437  0.00  0.00    +0.000 A 
ATOM      6  C   UNL     1       2.884   5.034  18.355  0.00  0.00    +0.000 A 
ATOM      7  C   UNL     1       3.800   5.544  17.325  0.00  0.00    +0.000 A 
ATOM      8  C   UNL     1       3.924   6.706  16.604  0.00  0.00    +0.000 A 
ATOM      9  C   UNL     1       5.227   7.183  16.448  0.00  0.00    +0.000 A 
ATOM     10  C   UNL     1       6.269   6.512  17.123  0.00  0.00    +0.000 A 
ATOM     11  C   UNL     1       6.130   5.170  17.467  0.00  0.00    +0.000 A 
ATOM     12  C   UNL     1       4.869   4.662  17.291  0.00  0.00    +0.000 A 
ATOM     13  C   UNL     1       4.354   3.352  17.679  0.00  0.00    +0.000 C 
ATOM     14  O   UNL     1       4.852   2.273  17.448  0.00  0.00    +0.000 OA
ENDROOT
BRANCH   1  16
ATOM     15  N   UNL     1       1.339   7.483  20.905  0.00  0.00    +0.000 N 
ATOM     16  C   UNL     1       2.121   7.078  19.839  0.00  0.00    +0.000 C 
ATOM     17  O   UNL     1       2.694   7.865  19.083  0.00  0.00    +0.000 OA
ATOM     18  H   UNL     1       1.035   6.810  21.584  0.00  0.00    +0.000 HD
BRANCH  15  23
ATOM     19  C   UNL     1      -0.541  12.806  22.091  0.00  0.00    +0.000 C 
ATOM     20  C   UNL     1      -0.008  11.437  21.782  0.00  0.00    +0.000 A 
ATOM     21  C   UNL     1       0.625  11.166  20.563  0.00  0.00    +0.000 A 
ATOM     22  C   UNL     1       1.085   9.876  20.268  0.00  0.00    +0.000 A 
ATOM     23  C   UNL     1       0.937   8.827  21.179  0.00  0.00    +0.000 A 
ATOM     24  C   UNL     1       0.314   9.095  22.403  0.00  0.00    +0.000 A 
ATOM     25  C   UNL     1      -0.149  10.396  22.703  0.00  0.00    +0.000 A 
ENDBRANCH  15  23
ENDBRANCH   1  16
BRANCH   3  26
ATOM     26  N   UNL     1       2.054   2.543  21.777  0.00  0.00    +0.000 N 
ATOM     27  O   UNL     1       3.047   1.937  22.195  0.00  0.00    +0.000 OA
ATOM     28  O   UNL     1       0.928   2.500  22.298  0.00  0.00    +0.000 OA
ENDBRANCH   3  26
BRANCH  10  29
ATOM     29  N   UNL     1       7.310   7.325  17.766  0.00  0.00    +0.000 N 
ATOM     30  O   UNL     1       7.965   6.793  18.673  0.00  0.00    +0.000 OA
ATOM     31  O   UNL     1       7.545   8.440  17.282  0.00  0.00    +0.000 OA
ENDBRANCH  10  29
TORSDOF 4
ENDMDL
MODEL 3
REMARK VINA RESULT:      -8.0      0.125      1.050
REMARK  Name = 
REMARK  5 active torsions:
REMARK  status: ('A' for Active; 'I' for Inactive)
REMARK    1  A    between atoms: C_1  and  C_2
REMARK    2  A    between atoms: C_5  and  N_6
REMARK    3  A    between atoms: C_7  and  C_9
REMARK    4  A    between atoms: C_11  and  N_12
REMARK    5  A    between atoms: C_21  and  N_22
REMARK                            x       y       z     vdW  Elec       q    Type
REMARK                         _______ _______ _______ _____ _____    ______ ____
ROOT
ATOM      1  C   UNL     1       6.713   5.640  17.114  0.00  0.00    +0.000 A 
ATOM      2  C   UNL     1       7.191   5.514  15.769  0.00  0.00    +0.000 A 
ATOM      3  C   UNL     1       6.666   4.579  14.844  0.00  0.00    +0.000 A 
ATOM      4  C   UNL     1       5.628   3.748  15.209  0.00  0.00    +0.000 A 
ATOM      5  C   UNL     1       5.124   3.956  16.477  0.00  0.00    +0.000 A 
ATOM      6  C   UNL     1       5.644   4.813  17.497  0.00  0.00    +0.000 A 
ATOM      7  C   UNL     1       4.562   4.979  18.478  0.00  0.00    +0.000 A 
ATOM      8  C   UNL     1       4.460   5.454  19.762  0.00  0.00    +0.000 A 
ATOM      9  C   UNL     1       3.344   6.249  20.025  0.00  0.00    +0.000 A 
ATOM     10  C   UNL     1       2.496   6.586  18.948  0.00  0.00    +0.000 A 
ATOM     11  C   UNL     1       2.430   5.765  17.826  0.00  0.00    +0.000 A 
ATOM     12  C   UNL     1       3.379   4.777  17.783  0.00  0.00    +0.000 A 
ATOM     13  C   UNL     1       3.675   3.847  16.698  0.00  0.00    +0.000 C 
ATOM     14  O   UNL     1       2.888   3.155  16.092  0.00  0.00    +0.000 OA
ENDROOT
BRANCH   1  16
ATOM     15  N   UNL     1       7.316   8.083  17.365  0.00  0.00    +0.000 N 
ATOM     16  C   UNL     1       7.359   6.788  17.847  0.00  0.00    +0.000 C 
ATOM     17  O   UNL     1       7.936   6.473  18.889  0.00  0.00    +0.000 OA
ATOM     18  H   UNL     1       6.697   8.314  16.610  0.00  0.00    +0.000 HD
BRANCH  15  23
ATOM     19  C   UNL     1      10.232  12.475  19.705  0.00  0.00    +0.000 C 
ATOM     20  C   UNL     1       9.499  11.336  19.058  0.00  0.00    +0.000 A 
ATOM     21  C   UNL     1       8.719  11.536  17.914  0.00  0.00    +0.000 A 
ATOM     22  C   UNL     1       8.008  10.475  17.338  0.00  0.00    +0.000 A 
ATOM     23  C   UNL     1       8.062   9.187  17.880  0.00  0.00    +0.000 A 
ATOM     24  C   UNL     1       8.851   8.980  19.018  0.00  0.00    +0.000 A 
ATOM     25  C   UNL     1       9.569  10.049  19.598  0.00  0.00    +0.000 A 
ENDBRANCH  15  23
ENDBRANCH   1  16
BRANCH   3  26
ATOM     26  N   UNL     1       7.058   4.618  13.427  0.00  0.00    +0.000 N 
ATOM     27  O   UNL     1       6.565   3.775  12.669  0.00  0.00    +0.000 OA
ATOM     28  O   UNL     1       7.878   5.485  13.083  0.00  0.00    +0.000 OA
ENDBRANCH   3  26
BRANCH  10  29
ATOM     29  N   UNL     1       1.988   7.963  18.875  0.00  0.00    +0.000 N 
ATOM     30  O   UNL     1       1.938   8.489  17.754  0.00  0.00    +0.000 OA
ATOM     31  O   UNL     1       1.533   8.460  19.913  0.00  0.00    +0.000 OA
ENDBRANCH  10  29
TORSDOF 4
ENDMDL
MODEL 4
REMARK VINA RESULT:      -8.0      3.124      6.131
REMARK  Name = 
REMARK  5 active torsions:
REMARK  status: ('A' for Active; 'I' for Inactive)
REMARK    1  A    between atoms: C_1  and  C_2
REMARK    2  A    between atoms: C_5  and  N_6
REMARK    3  A    between atoms: C_7  and  C_9
REMARK    4  A    between atoms: C_11  and  N_12
REMARK    5  A    between atoms: C_21  and  N_22
REMARK                            x       y       z     vdW  Elec       q    Type
REMARK                         _______ _______ _______ _____ _____    ______ ____
ROOT
ATOM      1  C   UNL     1       2.586   5.740  18.065  0.00  0.00    +0.000 A 
ATOM      2  C   UNL     1       1.714   4.775  18.667  0.00  0.00    +0.000 A 
ATOM      3  C   UNL     1       1.721   3.402  18.323  0.00  0.00    +0.000 A 
ATOM      4  C   UNL     1       2.609   2.925  17.384  0.00  0.00    +0.000 A 
ATOM      5  C   UNL     1       3.501   3.855  16.890  0.00  0.00    +0.000 A 
ATOM      6  C   UNL     1       3.511   5.267  17.118  0.00  0.00    +0.000 A 
ATOM      7  C   UNL     1       4.844   5.734  16.714  0.00  0.00    +0.000 A 
ATOM      8  C   UNL     1       5.427   6.951  16.455  0.00  0.00    +0.000 A 
ATOM      9  C   UNL     1       6.717   7.122  16.959  0.00  0.00    +0.000 A 
ATOM     10  C   UNL     1       7.258   6.101  17.769  0.00  0.00    +0.000 A 
ATOM     11  C   UNL     1       6.804   4.791  17.641  0.00  0.00    +0.000 A 
ATOM     12  C   UNL     1       5.692   4.646  16.853  0.00  0.00    +0.000 A 
ATOM     13  C   UNL     1       4.888   3.448  16.627  0.00  0.00    +0.000 C 
ATOM     14  O   UNL     1       5.286   2.348  16.316  0.00  0.00    +0.000 OA
ENDROOT
BRANCH   1  16
ATOM     15  N   UNL     1       1.648   8.086  18.158  0.00  0.00    +0.000 N 
ATOM     16  C   UNL     1       2.458   7.102  18.695  0.00  0.00    +0.000 C 
ATOM     17  O   UNL     1       3.143   7.268  19.707  0.00  0.00    +0.000 OA
ATOM     18  H   UNL     1       0.988   7.850  17.440  0.00  0.00    +0.000 HD
BRANCH  15  23
ATOM     19  C   UNL     1       1.253  13.597  19.813  0.00  0.00    +0.000 C 
ATOM     20  C   UNL     1       1.400  12.163  19.394  0.00  0.00    +0.000 A 
ATOM     21  C   UNL     1       2.209  11.808  18.308  0.00  0.00    +0.000 A 
ATOM     22  C   UNL     1       2.311  10.471  17.900  0.00  0.00    +0.000 A 
ATOM     23  C   UNL     1       1.621   9.455  18.566  0.00  0.00    +0.000 A 
ATOM     24  C   UNL     1       0.820   9.804  19.659  0.00  0.00    +0.000 A 
ATOM     25  C   UNL     1       0.717  11.152  20.073  0.00  0.00    +0.000 A 
ENDBRANCH  15  23
ENDBRANCH   1  16
BRANCH   3  26
ATOM     26  N   UNL     1       0.942   2.426  19.100  0.00  0.00    +0.000 N 
ATOM     27  O   UNL     1       1.184   2.326  20.309  0.00  0.00    +0.000 OA
ATOM     28  O   UNL     1       0.100   1.747  18.489  0.00  0.00    +0.000 OA
ENDBRANCH   3  26
BRANCH  10  29
ATOM     29  N   UNL     1       8.012   6.497  18.966  0.00  0.00    +0.000 N 
ATOM     30  O   UNL     1       8.113   5.661  19.874  0.00  0.00    +0.000 OA
ATOM     31  O   UNL     1       8.595   7.589  18.939  0.00  0.00    +0.000 OA
ENDBRANCH  10  29
TORSDOF 4
ENDMDL
MODEL 5
REMARK VINA RESULT:      -7.8      3.096      6.439
REMARK  Name = 
REMARK  5 active torsions:
REMARK  status: ('A' for Active; 'I' for Inactive)
REMARK    1  A    between atoms: C_1  and  C_2
REMARK    2  A    between atoms: C_5  and  N_6
REMARK    3  A    between atoms: C_7  and  C_9
REMARK    4  A    between atoms: C_11  and  N_12
REMARK    5  A    between atoms: C_21  and  N_22
REMARK                            x       y       z     vdW  Elec       q    Type
REMARK                         _______ _______ _______ _____ _____    ______ ____
ROOT
ATOM      1  C   UNL     1       2.698   5.705  18.000  0.00  0.00    +0.000 A 
ATOM      2  C   UNL     1       1.834   4.737  18.607  0.00  0.00    +0.000 A 
ATOM      3  C   UNL     1       1.858   3.360  18.277  0.00  0.00    +0.000 A 
ATOM      4  C   UNL     1       2.757   2.883  17.348  0.00  0.00    +0.000 A 
ATOM      5  C   UNL     1       3.641   3.819  16.849  0.00  0.00    +0.000 A 
ATOM      6  C   UNL     1       3.634   5.233  17.062  0.00  0.00    +0.000 A 
ATOM      7  C   UNL     1       4.963   5.711  16.661  0.00  0.00    +0.000 A 
ATOM      8  C   UNL     1       5.533   6.932  16.392  0.00  0.00    +0.000 A 
ATOM      9  C   UNL     1       6.819   7.123  16.901  0.00  0.00    +0.000 A 
ATOM     10  C   UNL     1       7.367   6.117  17.725  0.00  0.00    +0.000 A 
ATOM     11  C   UNL     1       6.929   4.800  17.608  0.00  0.00    +0.000 A 
ATOM     12  C   UNL     1       5.823   4.634  16.816  0.00  0.00    +0.000 A 
ATOM     13  C   UNL     1       5.034   3.425  16.597  0.00  0.00    +0.000 C 
ATOM     14  O   UNL     1       5.446   2.326  16.300  0.00  0.00    +0.000 OA
ENDROOT
BRANCH   1  16
ATOM     15  N   UNL     1       1.651   7.326  19.633  0.00  0.00    +0.000 N 
ATOM     16  C   UNL     1       2.551   7.072  18.615  0.00  0.00    +0.000 C 
ATOM     17  O   UNL     1       3.280   7.937  18.126  0.00  0.00    +0.000 OA
ATOM     18  H   UNL     1       1.206   6.561  20.107  0.00  0.00    +0.000 HD
BRANCH  15  23
ATOM     19  C   UNL     1       0.040  12.421  21.805  0.00  0.00    +0.000 C 
ATOM     20  C   UNL     1       0.498  11.114  21.226  0.00  0.00    +0.000 A 
ATOM     21  C   UNL     1       0.682  10.960  19.847  0.00  0.00    +0.000 A 
ATOM     22  C   UNL     1       1.075   9.726  19.311  0.00  0.00    +0.000 A 
ATOM     23  C   UNL     1       1.302   8.618  20.133  0.00  0.00    +0.000 A 
ATOM     24  C   UNL     1       1.130   8.771  21.513  0.00  0.00    +0.000 A 
ATOM     25  C   UNL     1       0.736  10.015  22.055  0.00  0.00    +0.000 A 
ENDBRANCH  15  23
ENDBRANCH   1  16
BRANCH   3  26
ATOM     26  N   UNL     1       1.087   2.383  19.061  0.00  0.00    +0.000 N 
ATOM     27  O   UNL     1       0.100   1.864  18.525  0.00  0.00    +0.000 OA
ATOM     28  O   UNL     1       1.465   2.152  20.221  0.00  0.00    +0.000 OA
ENDBRANCH   3  26
BRANCH  10  29
ATOM     29  N   UNL     1       8.110   6.534  18.921  0.00  0.00    +0.000 N 
ATOM     30  O   UNL     1       8.567   7.686  18.931  0.00  0.00    +0.000 OA
ATOM     31  O   UNL     1       8.126   5.757  19.884  0.00  0.00    +0.000 OA
ENDBRANCH  10  29
TORSDOF 4
ENDMDL
MODEL 6
REMARK VINA RESULT:      -7.8      3.127      6.079
REMARK  Name = 
REMARK  5 active torsions:
REMARK  status: ('A' for Active; 'I' for Inactive)
REMARK    1  A    between atoms: C_1  and  C_2
REMARK    2  A    between atoms: C_5  and  N_6
REMARK    3  A    between atoms: C_7  and  C_9
REMARK    4  A    between atoms: C_11  and  N_12
REMARK    5  A    between atoms: C_21  and  N_22
REMARK                            x       y       z     vdW  Elec       q    Type
REMARK                         _______ _______ _______ _____ _____    ______ ____
ROOT
ATOM      1  C   UNL     1       2.574   5.771  18.114  0.00  0.00    +0.000 A 
ATOM      2  C   UNL     1       1.706   4.813  18.730  0.00  0.00    +0.000 A 
ATOM      3  C   UNL     1       1.707   3.438  18.395  0.00  0.00    +0.000 A 
ATOM      4  C   UNL     1       2.587   2.952  17.452  0.00  0.00    +0.000 A 
ATOM      5  C   UNL     1       3.476   3.877  16.944  0.00  0.00    +0.000 A 
ATOM      6  C   UNL     1       3.490   5.291  17.163  0.00  0.00    +0.000 A 
ATOM      7  C   UNL     1       4.821   5.753  16.744  0.00  0.00    +0.000 A 
ATOM      8  C   UNL     1       5.403   6.967  16.472  0.00  0.00    +0.000 A 
ATOM      9  C   UNL     1       6.698   7.139  16.964  0.00  0.00    +0.000 A 
ATOM     10  C   UNL     1       7.244   6.123  17.777  0.00  0.00    +0.000 A 
ATOM     11  C   UNL     1       6.787   4.813  17.662  0.00  0.00    +0.000 A 
ATOM     12  C   UNL     1       5.668   4.664  16.884  0.00  0.00    +0.000 A 
ATOM     13  C   UNL     1       4.860   3.466  16.673  0.00  0.00    +0.000 C 
ATOM     14  O   UNL     1       5.254   2.363  16.366  0.00  0.00    +0.000 OA
ENDROOT
BRANCH   1  16
ATOM     15  N   UNL     1       1.583   8.094  18.244  0.00  0.00    +0.000 N 
ATOM     16  C   UNL     1       2.453   7.139  18.736  0.00  0.00    +0.000 C 
ATOM     17  O   UNL     1       3.201   7.335  19.696  0.00  0.00    +0.000 OA
ATOM     18  H   UNL     1       0.882   7.833  17.575  0.00  0.00    +0.000 HD
BRANCH  15  23
ATOM     19  C   UNL     1       1.723  13.651  19.784  0.00  0.00    +0.000 C 
ATOM     20  C   UNL     1       1.640  12.208  19.379  0.00  0.00    +0.000 A 
ATOM     21  C   UNL     1       0.975  11.270  20.177  0.00  0.00    +0.000 A 
ATOM     22  C   UNL     1       0.935   9.919  19.809  0.00  0.00    +0.000 A 
ATOM     23  C   UNL     1       1.548   9.467  18.636  0.00  0.00    +0.000 A 
ATOM     24  C   UNL     1       2.204  10.404  17.830  0.00  0.00    +0.000 A 
ATOM     25  C   UNL     1       2.244  11.767  18.198  0.00  0.00    +0.000 A 
ENDBRANCH  15  23
ENDBRANCH   1  16
BRANCH   3  26
ATOM     26  N   UNL     1       0.933   2.468  19.186  0.00  0.00    +0.000 N 
ATOM     27  O   UNL     1       1.059   2.494  20.416  0.00  0.00    +0.000 OA
ATOM     28  O   UNL     1       0.213   1.668  18.566  0.00  0.00    +0.000 OA
ENDBRANCH   3  26
BRANCH  10  29
ATOM     29  N   UNL     1       8.008   6.527  18.965  0.00  0.00    +0.000 N 
ATOM     30  O   UNL     1       8.585   7.622  18.922  0.00  0.00    +0.000 OA
ATOM     31  O   UNL     1       7.926   5.807  19.969  0.00  0.00    +0.000 OA
ENDBRANCH  10  29
TORSDOF 4
ENDMDL
MODEL 7
REMARK VINA RESULT:      -7.7      3.427      6.333
REMARK  Name = 
REMARK  5 active torsions:
REMARK  status: ('A' for Active; 'I' for Inactive)
REMARK    1  A    between atoms: C_1  and  C_2
REMARK    2  A    between atoms: C_5  and  N_6
REMARK    3  A    between atoms: C_7  and  C_9
REMARK    4  A    between atoms: C_11  and  N_12
REMARK    5  A    between atoms: C_21  and  N_22
REMARK                            x       y       z     vdW  Elec       q    Type
REMARK                         _______ _______ _______ _____ _____    ______ ____
ROOT
ATOM      1  C   UNL     1       2.329   5.697  19.353  0.00  0.00    +0.000 A 
ATOM      2  C   UNL     1       1.983   4.859  20.462  0.00  0.00    +0.000 A 
ATOM      3  C   UNL     1       2.177   3.457  20.465  0.00  0.00    +0.000 A 
ATOM      4  C   UNL     1       2.746   2.831  19.377  0.00  0.00    +0.000 A 
ATOM      5  C   UNL     1       3.159   3.672  18.362  0.00  0.00    +0.000 A 
ATOM      6  C   UNL     1       2.927   5.078  18.241  0.00  0.00    +0.000 A 
ATOM      7  C   UNL     1       3.876   5.560  17.229  0.00  0.00    +0.000 A 
ATOM      8  C   UNL     1       4.029   6.705  16.485  0.00  0.00    +0.000 A 
ATOM      9  C   UNL     1       5.338   7.172  16.358  0.00  0.00    +0.000 A 
ATOM     10  C   UNL     1       6.356   6.511  17.079  0.00  0.00    +0.000 A 
ATOM     11  C   UNL     1       6.199   5.178  17.449  0.00  0.00    +0.000 A 
ATOM     12  C   UNL     1       4.942   4.673  17.246  0.00  0.00    +0.000 A 
ATOM     13  C   UNL     1       4.408   3.374  17.649  0.00  0.00    +0.000 C 
ATOM     14  O   UNL     1       4.906   2.288  17.458  0.00  0.00    +0.000 OA
ENDROOT
BRANCH   1  16
ATOM     15  N   UNL     1       1.571   8.029  18.737  0.00  0.00    +0.000 N 
ATOM     16  C   UNL     1       2.131   7.160  19.655  0.00  0.00    +0.000 C 
ATOM     17  O   UNL     1       2.524   7.513  20.768  0.00  0.00    +0.000 OA
ATOM     18  H   UNL     1       1.117   7.665  17.919  0.00  0.00    +0.000 HD
BRANCH  15  23
ATOM     19  C   UNL     1       1.694  13.776  19.213  0.00  0.00    +0.000 C 
ATOM     20  C   UNL     1       1.617  12.283  19.077  0.00  0.00    +0.000 A 
ATOM     21  C   UNL     1       0.818  11.520  19.936  0.00  0.00    +0.000 A 
ATOM     22  C   UNL     1       0.781  10.124  19.826  0.00  0.00    +0.000 A 
ATOM     23  C   UNL     1       1.530   9.452  18.856  0.00  0.00    +0.000 A 
ATOM     24  C   UNL     1       2.323  10.212  17.988  0.00  0.00    +0.000 A 
ATOM     25  C   UNL     1       2.360  11.620  18.096  0.00  0.00    +0.000 A 
ENDBRANCH  15  23
ENDBRANCH   1  16
BRANCH   3  26
ATOM     26  N   UNL     1       1.982   2.670  21.693  0.00  0.00    +0.000 N 
ATOM     27  O   UNL     1       0.841   2.616  22.167  0.00  0.00    +0.000 OA
ATOM     28  O   UNL     1       2.981   2.123  22.187  0.00  0.00    +0.000 OA
ENDBRANCH   3  26
BRANCH  10  29
ATOM     29  N   UNL     1       7.382   7.334  17.734  0.00  0.00    +0.000 N 
ATOM     30  O   UNL     1       8.015   6.815  18.664  0.00  0.00    +0.000 OA
ATOM     31  O   UNL     1       7.629   8.441  17.239  0.00  0.00    +0.000 OA
ENDBRANCH  10  29
TORSDOF 4
ENDMDL
MODEL 8
REMARK VINA RESULT:      -7.7      3.434      6.398
REMARK  Name = 
REMARK  5 active torsions:
REMARK  status: ('A' for Active; 'I' for Inactive)
REMARK    1  A    between atoms: C_1  and  C_2
REMARK    2  A    between atoms: C_5  and  N_6
REMARK    3  A    between atoms: C_7  and  C_9
REMARK    4  A    between atoms: C_11  and  N_12
REMARK    5  A    between atoms: C_21  and  N_22
REMARK                            x       y       z     vdW  Elec       q    Type
REMARK                         _______ _______ _______ _____ _____    ______ ____
ROOT
ATOM      1  C   UNL     1       2.348   5.700  19.335  0.00  0.00    +0.000 A 
ATOM      2  C   UNL     1       1.996   4.866  20.445  0.00  0.00    +0.000 A 
ATOM      3  C   UNL     1       2.187   3.464  20.454  0.00  0.00    +0.000 A 
ATOM      4  C   UNL     1       2.759   2.834  19.369  0.00  0.00    +0.000 A 
ATOM      5  C   UNL     1       3.177   3.670  18.354  0.00  0.00    +0.000 A 
ATOM      6  C   UNL     1       2.949   5.077  18.227  0.00  0.00    +0.000 A 
ATOM      7  C   UNL     1       3.902   5.553  17.217  0.00  0.00    +0.000 A 
ATOM      8  C   UNL     1       4.060   6.695  16.470  0.00  0.00    +0.000 A 
ATOM      9  C   UNL     1       5.370   7.159  16.345  0.00  0.00    +0.000 A 
ATOM     10  C   UNL     1       6.384   6.499  17.073  0.00  0.00    +0.000 A 
ATOM     11  C   UNL     1       6.224   5.168  17.447  0.00  0.00    +0.000 A 
ATOM     12  C   UNL     1       4.966   4.664  17.241  0.00  0.00    +0.000 A 
ATOM     13  C   UNL     1       4.428   3.368  17.646  0.00  0.00    +0.000 C 
ATOM     14  O   UNL     1       4.925   2.280  17.460  0.00  0.00    +0.000 OA
ENDROOT
BRANCH   1  16
ATOM     15  N   UNL     1       1.642   8.041  18.691  0.00  0.00    +0.000 N 
ATOM     16  C   UNL     1       2.152   7.165  19.631  0.00  0.00    +0.000 C 
ATOM     17  O   UNL     1       2.497   7.512  20.762  0.00  0.00    +0.000 OA
ATOM     18  H   UNL     1       1.222   7.684  17.852  0.00  0.00    +0.000 HD
BRANCH  15  23
ATOM     19  C   UNL     1       1.232  13.774  19.172  0.00  0.00    +0.000 C 
ATOM     20  C   UNL     1       1.383  12.285  19.061  0.00  0.00    +0.000 A 
ATOM     21  C   UNL     1       2.253  11.716  18.124  0.00  0.00    +0.000 A 
ATOM     22  C   UNL     1       2.360  10.324  18.002  0.00  0.00    +0.000 A 
ATOM     23  C   UNL     1       1.611   9.465  18.812  0.00  0.00    +0.000 A 
ATOM     24  C   UNL     1       0.748  10.030  19.757  0.00  0.00    +0.000 A 
ATOM     25  C   UNL     1       0.641  11.433  19.883  0.00  0.00    +0.000 A 
ENDBRANCH  15  23
ENDBRANCH   1  16
BRANCH   3  26
ATOM     26  N   UNL     1       1.986   2.682  21.683  0.00  0.00    +0.000 N 
ATOM     27  O   UNL     1       2.968   2.114  22.173  0.00  0.00    +0.000 OA
ATOM     28  O   UNL     1       0.834   2.627  22.145  0.00  0.00    +0.000 OA
ENDBRANCH   3  26
BRANCH  10  29
ATOM     29  N   UNL     1       7.409   7.322  17.729  0.00  0.00    +0.000 N 
ATOM     30  O   UNL     1       8.025   6.811  18.675  0.00  0.00    +0.000 OA
ATOM     31  O   UNL     1       7.673   8.419  17.221  0.00  0.00    +0.000 OA
ENDBRANCH  10  29
TORSDOF 4
ENDMDL
MODEL 9
REMARK VINA RESULT:      -7.7      3.587      6.839
REMARK  Name = 
REMARK  5 active torsions:
REMARK  status: ('A' for Active; 'I' for Inactive)
REMARK    1  A    between atoms: C_1  and  C_2
REMARK    2  A    between atoms: C_5  and  N_6
REMARK    3  A    between atoms: C_7  and  C_9
REMARK    4  A    between atoms: C_11  and  N_12
REMARK    5  A    between atoms: C_21  and  N_22
REMARK                            x       y       z     vdW  Elec       q    Type
REMARK                         _______ _______ _______ _____ _____    ______ ____
ROOT
ATOM      1  C   UNL     1       2.274   5.561  19.542  0.00  0.00    +0.000 A 
ATOM      2  C   UNL     1       1.978   4.693  20.643  0.00  0.00    +0.000 A 
ATOM      3  C   UNL     1       2.167   3.291  20.598  0.00  0.00    +0.000 A 
ATOM      4  C   UNL     1       2.679   2.694  19.467  0.00  0.00    +0.000 A 
ATOM      5  C   UNL     1       3.046   3.561  18.457  0.00  0.00    +0.000 A 
ATOM      6  C   UNL     1       2.815   4.971  18.386  0.00  0.00    +0.000 A 
ATOM      7  C   UNL     1       3.715   5.478  17.342  0.00  0.00    +0.000 A 
ATOM      8  C   UNL     1       3.837   6.642  16.624  0.00  0.00    +0.000 A 
ATOM      9  C   UNL     1       5.140   7.109  16.445  0.00  0.00    +0.000 A 
ATOM     10  C   UNL     1       6.189   6.426  17.098  0.00  0.00    +0.000 A 
ATOM     11  C   UNL     1       6.045   5.084  17.438  0.00  0.00    +0.000 A 
ATOM     12  C   UNL     1       4.777   4.587  17.283  0.00  0.00    +0.000 A 
ATOM     13  C   UNL     1       4.257   3.280  17.675  0.00  0.00    +0.000 C 
ATOM     14  O   UNL     1       4.741   2.198  17.431  0.00  0.00    +0.000 OA
ENDROOT
BRANCH   1  16
ATOM     15  N   UNL     1       1.128   7.443  20.783  0.00  0.00    +0.000 N 
ATOM     16  C   UNL     1       2.097   7.015  19.893  0.00  0.00    +0.000 C 
ATOM     17  O   UNL     1       2.868   7.782  19.313  0.00  0.00    +0.000 OA
ATOM     18  H   UNL     1       0.643   6.773  21.351  0.00  0.00    +0.000 HD
BRANCH  15  23
ATOM     19  C   UNL     1      -0.121  13.012  21.612  0.00  0.00    +0.000 C 
ATOM     20  C   UNL     1       0.160  11.553  21.404  0.00  0.00    +0.000 A 
ATOM     21  C   UNL     1       0.026  10.635  22.452  0.00  0.00    +0.000 A 
ATOM     22  C   UNL     1       0.326   9.280  22.259  0.00  0.00    +0.000 A 
ATOM     23  C   UNL     1       0.758   8.803  21.018  0.00  0.00    +0.000 A 
ATOM     24  C   UNL     1       0.883   9.715  19.964  0.00  0.00    +0.000 A 
ATOM     25  C   UNL     1       0.579  11.081  20.157  0.00  0.00    +0.000 A 
ENDBRANCH  15  23
ENDBRANCH   1  16
BRANCH   3  26
ATOM     26  N   UNL     1       2.028   2.471  21.812  0.00  0.00    +0.000 N 
ATOM     27  O   UNL     1       0.914   2.415  22.345  0.00  0.00    +0.000 OA
ATOM     28  O   UNL     1       3.045   1.900  22.237  0.00  0.00    +0.000 OA
ENDBRANCH   3  26
BRANCH  10  29
ATOM     29  N   UNL     1       7.248   7.227  17.725  0.00  0.00    +0.000 N 
ATOM     30  O   UNL     1       7.902   6.692  18.631  0.00  0.00    +0.000 OA
ATOM     31  O   UNL     1       7.498   8.333  17.228  0.00  0.00    +0.000 OA
ENDBRANCH  10  29
TORSDOF 4
ENDMDL
