MODEL 1
REMARK VINA RESULT:      -6.8      0.000      0.000
REMARK  Name = 
REMARK  12 active torsions:
REMARK  status: ('A' for Active; 'I' for Inactive)
REMARK    1  A    between atoms: C_1  and  C_2
REMARK    2  A    between atoms: C_4  and  C_5
REMARK    3  A    between atoms: C_6  and  C_7
REMARK    4  A    between atoms: C_8  and  O_9
REMARK    5  A    between atoms: O_9  and  C_10
REMARK    6  A    between atoms: C_10  and  C_11
REMARK    7  A    between atoms: C_11  and  O_12
REMARK    8  A    between atoms: O_12  and  C_13
REMARK    9  A    between atoms: C_13  and  C_14
REMARK   10  A    between atoms: C_14  and  N_15
REMARK   11  A    between atoms: N_15  and  C_16
REMARK   12  A    between atoms: C_16  and  C_17
REMARK                            x       y       z     vdW  Elec       q    Type
REMARK                         _______ _______ _______ _____ _____    ______ ____
ROOT
ATOM      1  C   UNL     1       2.500   3.670  17.333  0.00  0.00    +0.000 C 
ENDROOT
BRANCH   1   2
ATOM      2  C   UNL     1       3.587   2.640  17.663  0.00  0.00    +0.000 C 
BRANCH   2   3
ATOM      3  O   UNL     1       4.715   3.321  18.219  0.00  0.00    +0.000 OA
BRANCH   3  11
ATOM      4  C   UNL     1       6.528   4.205  13.707  0.00  0.00    +0.000 C 
ATOM      5  C   UNL     1       6.345   4.578  15.146  0.00  0.00    +0.000 A 
ATOM      6  C   UNL     1       6.982   5.699  15.676  0.00  0.00    +0.000 A 
ATOM      7  C   UNL     1       6.924   5.997  17.046  0.00  0.00    +0.000 A 
ATOM      8  C   UNL     1       7.594   7.269  17.484  0.00  0.00    +0.000 C 
ATOM      9  C   UNL     1       6.194   5.141  17.903  0.00  0.00    +0.000 A 
ATOM     10  C   UNL     1       6.184   5.278  19.404  0.00  0.00    +0.000 C 
ATOM     11  C   UNL     1       5.461   4.072  17.344  0.00  0.00    +0.000 A 
ATOM     12  C   UNL     1       5.559   3.784  15.982  0.00  0.00    +0.000 A 
ENDBRANCH   3  11
ENDBRANCH   2   3
ENDBRANCH   1   2
BRANCH   1  13
ATOM     13  O   UNL     1       1.182   3.274  17.727  0.00  0.00    +0.000 OA
BRANCH  13  14
ATOM     14  C   UNL     1       1.122   2.674  19.023  0.00  0.00    +0.000 C 
BRANCH  14  15
ATOM     15  C   UNL     1       0.921   3.769  20.083  0.00  0.00    +0.000 C 
BRANCH  15  16
ATOM     16  N   UNL     1       2.156   4.444  20.505  0.00  0.00    +0.000 NA
ATOM     17  H   UNL     1       2.761   4.505  19.680  0.00  0.00    +0.000 HD
BRANCH  16  18
ATOM     18  C   UNL     1       1.941   5.811  20.995  0.00  0.00    +0.000 C 
BRANCH  18  19
ATOM     19  C   UNL     1       2.173   6.855  19.917  0.00  0.00    +0.000 A 
ATOM     20  C   UNL     1       1.523   8.094  19.999  0.00  0.00    +0.000 A 
ATOM     21  C   UNL     1       1.560   8.992  18.927  0.00  0.00    +0.000 A 
ATOM     22  C   UNL     1       2.283   8.686  17.780  0.00  0.00    +0.000 A 
ATOM     23  C   UNL     1       3.021   7.510  17.729  0.00  0.00    +0.000 A 
ATOM     24  C   UNL     1       2.978   6.607  18.793  0.00  0.00    +0.000 A 
ENDBRANCH  18  19
ENDBRANCH  16  18
ENDBRANCH  15  16
ENDBRANCH  14  15
ENDBRANCH  13  14
ENDBRANCH   1  13
TORSDOF 9
ENDMDL
MODEL 2
REMARK VINA RESULT:      -6.7      1.074      1.350
REMARK  Name = 
REMARK  12 active torsions:
REMARK  status: ('A' for Active; 'I' for Inactive)
REMARK    1  A    between atoms: C_1  and  C_2
REMARK    2  A    between atoms: C_4  and  C_5
REMARK    3  A    between atoms: C_6  and  C_7
REMARK    4  A    between atoms: C_8  and  O_9
REMARK    5  A    between atoms: O_9  and  C_10
REMARK    6  A    between atoms: C_10  and  C_11
REMARK    7  A    between atoms: C_11  and  O_12
REMARK    8  A    between atoms: O_12  and  C_13
REMARK    9  A    between atoms: C_13  and  C_14
REMARK   10  A    between atoms: C_14  and  N_15
REMARK   11  A    between atoms: N_15  and  C_16
REMARK   12  A    between atoms: C_16  and  C_17
REMARK                            x       y       z     vdW  Elec       q    Type
REMARK                         _______ _______ _______ _____ _____    ______ ____
ROOT
ATOM      1  C   UNL     1       2.386   1.938  18.804  0.00  0.00    +0.000 C 
ENDROOT
BRANCH   1   2
ATOM      2  C   UNL     1       3.653   2.309  18.025  0.00  0.00    +0.000 C 
BRANCH   2   3
ATOM      3  O   UNL     1       3.804   3.732  18.038  0.00  0.00    +0.000 OA
BRANCH   3  11
ATOM      4  C   UNL     1       6.243   4.060  13.751  0.00  0.00    +0.000 C 
ATOM      5  C   UNL     1       6.026   4.473  15.175  0.00  0.00    +0.000 A 
ATOM      6  C   UNL     1       6.894   5.370  15.796  0.00  0.00    +0.000 A 
ATOM      7  C   UNL     1       6.782   5.675  17.161  0.00  0.00    +0.000 A 
ATOM      8  C   UNL     1       7.734   6.707  17.697  0.00  0.00    +0.000 C 
ATOM      9  C   UNL     1       5.758   5.061  17.918  0.00  0.00    +0.000 A 
ATOM     10  C   UNL     1       5.633   5.198  19.413  0.00  0.00    +0.000 C 
ATOM     11  C   UNL     1       4.816   4.241  17.261  0.00  0.00    +0.000 A 
ATOM     12  C   UNL     1       4.968   3.934  15.908  0.00  0.00    +0.000 A 
ENDBRANCH   3  11
ENDBRANCH   2   3
ENDBRANCH   1   2
BRANCH   1  13
ATOM     13  O   UNL     1       2.348   2.457  20.137  0.00  0.00    +0.000 OA
BRANCH  13  14
ATOM     14  C   UNL     1       1.074   2.980  20.518  0.00  0.00    +0.000 C 
BRANCH  14  15
ATOM     15  C   UNL     1       1.193   4.495  20.747  0.00  0.00    +0.000 C 
BRANCH  15  16
ATOM     16  N   UNL     1       1.570   5.265  19.554  0.00  0.00    +0.000 NA
ATOM     17  H   UNL     1       0.724   5.740  19.224  0.00  0.00    +0.000 HD
BRANCH  16  18
ATOM     18  C   UNL     1       2.580   6.298  19.818  0.00  0.00    +0.000 C 
BRANCH  18  19
ATOM     19  C   UNL     1       2.089   7.691  19.465  0.00  0.00    +0.000 A 
ATOM     20  C   UNL     1       1.443   8.466  20.436  0.00  0.00    +0.000 A 
ATOM     21  C   UNL     1       0.807   9.663  20.088  0.00  0.00    +0.000 A 
ATOM     22  C   UNL     1       0.847  10.123  18.778  0.00  0.00    +0.000 A 
ATOM     23  C   UNL     1       1.577   9.421  17.827  0.00  0.00    +0.000 A 
ATOM     24  C   UNL     1       2.203   8.221  18.168  0.00  0.00    +0.000 A 
ENDBRANCH  18  19
ENDBRANCH  16  18
ENDBRANCH  15  16
ENDBRANCH  14  15
ENDBRANCH  13  14
ENDBRANCH   1  13
TORSDOF 9
ENDMDL
MODEL 3
REMARK VINA RESULT:      -6.7      4.089      7.591
REMARK  Name = 
REMARK  12 active torsions:
REMARK  status: ('A' for Active; 'I' for Inactive)
REMARK    1  A    between atoms: C_1  and  C_2
REMARK    2  A    between atoms: C_4  and  C_5
REMARK    3  A    between atoms: C_6  and  C_7
REMARK    4  A    between atoms: C_8  and  O_9
REMARK    5  A    between atoms: O_9  and  C_10
REMARK    6  A    between atoms: C_10  and  C_11
REMARK    7  A    between atoms: C_11  and  O_12
REMARK    8  A    between atoms: O_12  and  C_13
REMARK    9  A    between atoms: C_13  and  C_14
REMARK   10  A    between atoms: C_14  and  N_15
REMARK   11  A    between atoms: N_15  and  C_16
REMARK   12  A    between atoms: C_16  and  C_17
REMARK                            x       y       z     vdW  Elec       q    Type
REMARK                         _______ _______ _______ _____ _____    ______ ____
ROOT
ATOM      1  C   UNL     1       6.171   5.808  16.743  0.00  0.00    +0.000 C 
ENDROOT
BRANCH   1   2
ATOM      2  C   UNL     1       5.182   4.836  17.397  0.00  0.00    +0.000 C 
BRANCH   2   3
ATOM      3  O   UNL     1       3.858   5.362  17.259  0.00  0.00    +0.000 OA
BRANCH   3  11
ATOM      4  C   UNL     1       1.469   3.158  20.983  0.00  0.00    +0.000 C 
ATOM      5  C   UNL     1       1.952   4.387  20.275  0.00  0.00    +0.000 A 
ATOM      6  C   UNL     1       1.601   5.656  20.735  0.00  0.00    +0.000 A 
ATOM      7  C   UNL     1       1.938   6.815  20.019  0.00  0.00    +0.000 A 
ATOM      8  C   UNL     1       1.564   8.126  20.652  0.00  0.00    +0.000 C 
ATOM      9  C   UNL     1       2.657   6.687  18.808  0.00  0.00    +0.000 A 
ATOM     10  C   UNL     1       2.944   7.844  17.885  0.00  0.00    +0.000 C 
ATOM     11  C   UNL     1       3.104   5.411  18.406  0.00  0.00    +0.000 A 
ATOM     12  C   UNL     1       2.731   4.273  19.123  0.00  0.00    +0.000 A 
ENDBRANCH   3  11
ENDBRANCH   2   3
ENDBRANCH   1   2
BRANCH   1  13
ATOM     13  O   UNL     1       7.098   6.400  17.658  0.00  0.00    +0.000 OA
BRANCH  13  14
ATOM     14  C   UNL     1       7.399   7.767  17.372  0.00  0.00    +0.000 C 
BRANCH  14  15
ATOM     15  C   UNL     1       8.343   8.318  18.453  0.00  0.00    +0.000 C 
BRANCH  15  16
ATOM     16  N   UNL     1       8.629   9.754  18.339  0.00  0.00    +0.000 NA
ATOM     17  H   UNL     1       7.726  10.237  18.295  0.00  0.00    +0.000 HD
BRANCH  16  18
ATOM     18  C   UNL     1       9.363  10.300  19.488  0.00  0.00    +0.000 C 
BRANCH  18  19
ATOM     19  C   UNL     1      10.425  11.303  19.073  0.00  0.00    +0.000 A 
ATOM     20  C   UNL     1      11.175  11.966  20.053  0.00  0.00    +0.000 A 
ATOM     21  C   UNL     1      12.013  13.033  19.710  0.00  0.00    +0.000 A 
ATOM     22  C   UNL     1      12.147  13.421  18.383  0.00  0.00    +0.000 A 
ATOM     23  C   UNL     1      11.494  12.703  17.390  0.00  0.00    +0.000 A 
ATOM     24  C   UNL     1      10.649  11.645  17.728  0.00  0.00    +0.000 A 
ENDBRANCH  18  19
ENDBRANCH  16  18
ENDBRANCH  15  16
ENDBRANCH  14  15
ENDBRANCH  13  14
ENDBRANCH   1  13
TORSDOF 9
ENDMDL
MODEL 4
REMARK VINA RESULT:      -6.6      4.219      7.438
REMARK  Name = 
REMARK  12 active torsions:
REMARK  status: ('A' for Active; 'I' for Inactive)
REMARK    1  A    between atoms: C_1  and  C_2
REMARK    2  A    between atoms: C_4  and  C_5
REMARK    3  A    between atoms: C_6  and  C_7
REMARK    4  A    between atoms: C_8  and  O_9
REMARK    5  A    between atoms: O_9  and  C_10
REMARK    6  A    between atoms: C_10  and  C_11
REMARK    7  A    between atoms: C_11  and  O_12
REMARK    8  A    between atoms: O_12  and  C_13
REMARK    9  A    between atoms: C_13  and  C_14
REMARK   10  A    between atoms: C_14  and  N_15
REMARK   11  A    between atoms: N_15  and  C_16
REMARK   12  A    between atoms: C_16  and  C_17
REMARK                            x       y       z     vdW  Elec       q    Type
REMARK                         _______ _______ _______ _____ _____    ______ ____
ROOT
ATOM      1  C   UNL     1       7.842   5.694  19.230  0.00  0.00    +0.000 C 
ENDROOT
BRANCH   1   2
ATOM      2  C   UNL     1       6.905   4.979  18.249  0.00  0.00    +0.000 C 
BRANCH   2   3
ATOM      3  O   UNL     1       5.911   4.268  18.994  0.00  0.00    +0.000 OA
BRANCH   3  11
ATOM      4  C   UNL     1       2.433   7.609  17.911  0.00  0.00    +0.000 C 
ATOM      5  C   UNL     1       2.864   6.199  18.175  0.00  0.00    +0.000 A 
ATOM      6  C   UNL     1       1.927   5.167  18.231  0.00  0.00    +0.000 A 
ATOM      7  C   UNL     1       2.293   3.863  18.597  0.00  0.00    +0.000 A 
ATOM      8  C   UNL     1       1.206   2.826  18.553  0.00  0.00    +0.000 C 
ATOM      9  C   UNL     1       3.644   3.592  18.909  0.00  0.00    +0.000 A 
ATOM     10  C   UNL     1       4.125   2.272  19.454  0.00  0.00    +0.000 C 
ATOM     11  C   UNL     1       4.605   4.613  18.744  0.00  0.00    +0.000 A 
ATOM     12  C   UNL     1       4.210   5.908  18.404  0.00  0.00    +0.000 A 
ENDBRANCH   3  11
ENDBRANCH   2   3
ENDBRANCH   1   2
BRANCH   1  13
ATOM     13  O   UNL     1       8.342   6.946  18.752  0.00  0.00    +0.000 OA
BRANCH  13  14
ATOM     14  C   UNL     1       7.592   7.491  17.664  0.00  0.00    +0.000 C 
BRANCH  14  15
ATOM     15  C   UNL     1       7.637   9.026  17.732  0.00  0.00    +0.000 C 
BRANCH  15  16
ATOM     16  N   UNL     1       8.975   9.587  17.963  0.00  0.00    +0.000 NA
ATOM     17  H   UNL     1       9.121  10.314  17.255  0.00  0.00    +0.000 HD
BRANCH  16  18
ATOM     18  C   UNL     1       9.127  10.218  19.280  0.00  0.00    +0.000 C 
BRANCH  18  19
ATOM     19  C   UNL     1      10.063  11.414  19.243  0.00  0.00    +0.000 A 
ATOM     20  C   UNL     1      10.926  11.587  18.153  0.00  0.00    +0.000 A 
ATOM     21  C   UNL     1      11.932  12.560  18.186  0.00  0.00    +0.000 A 
ATOM     22  C   UNL     1      12.060  13.399  19.285  0.00  0.00    +0.000 A 
ATOM     23  C   UNL     1      11.143  13.311  20.325  0.00  0.00    +0.000 A 
ATOM     24  C   UNL     1      10.144  12.335  20.301  0.00  0.00    +0.000 A 
ENDBRANCH  18  19
ENDBRANCH  16  18
ENDBRANCH  15  16
ENDBRANCH  14  15
ENDBRANCH  13  14
ENDBRANCH   1  13
TORSDOF 9
ENDMDL
MODEL 5
REMARK VINA RESULT:      -6.6      2.315      6.761
REMARK  Name = 
REMARK  12 active torsions:
REMARK  status: ('A' for Active; 'I' for Inactive)
REMARK    1  A    between atoms: C_1  and  C_2
REMARK    2  A    between atoms: C_4  and  C_5
REMARK    3  A    between atoms: C_6  and  C_7
REMARK    4  A    between atoms: C_8  and  O_9
REMARK    5  A    between atoms: O_9  and  C_10
REMARK    6  A    between atoms: C_10  and  C_11
REMARK    7  A    between atoms: C_11  and  O_12
REMARK    8  A    between atoms: O_12  and  C_13
REMARK    9  A    between atoms: C_13  and  C_14
REMARK   10  A    between atoms: C_14  and  N_15
REMARK   11  A    between atoms: N_15  and  C_16
REMARK   12  A    between atoms: C_16  and  C_17
REMARK                            x       y       z     vdW  Elec       q    Type
REMARK                         _______ _______ _______ _____ _____    ______ ____
ROOT
ATOM      1  C   UNL     1       3.025   5.740  18.085  0.00  0.00    +0.000 C 
ENDROOT
BRANCH   1   2
ATOM      2  C   UNL     1       2.161   6.285  19.229  0.00  0.00    +0.000 C 
BRANCH   2   3
ATOM      3  O   UNL     1       2.626   7.593  19.576  0.00  0.00    +0.000 OA
BRANCH   3  11
ATOM      4  C   UNL     1      -0.562   9.180  23.004  0.00  0.00    +0.000 C 
ATOM      5  C   UNL     1       0.124   9.324  21.680  0.00  0.00    +0.000 A 
ATOM      6  C   UNL     1      -0.225  10.353  20.807  0.00  0.00    +0.000 A 
ATOM      7  C   UNL     1       0.315  10.434  19.514  0.00  0.00    +0.000 A 
ATOM      8  C   UNL     1      -0.087  11.627  18.694  0.00  0.00    +0.000 C 
ATOM      9  C   UNL     1       1.240   9.450  19.096  0.00  0.00    +0.000 A 
ATOM     10  C   UNL     1       1.771   9.352  17.689  0.00  0.00    +0.000 C 
ATOM     11  C   UNL     1       1.673   8.476  20.021  0.00  0.00    +0.000 A 
ATOM     12  C   UNL     1       1.099   8.404  21.291  0.00  0.00    +0.000 A 
ENDBRANCH   3  11
ENDBRANCH   2   3
ENDBRANCH   1   2
BRANCH   1  13
ATOM     13  O   UNL     1       4.264   6.432  17.909  0.00  0.00    +0.000 OA
BRANCH  13  14
ATOM     14  C   UNL     1       5.416   5.645  18.222  0.00  0.00    +0.000 C 
BRANCH  14  15
ATOM     15  C   UNL     1       5.049   4.155  18.149  0.00  0.00    +0.000 C 
BRANCH  15  16
ATOM     16  N   UNL     1       5.401   3.380  19.346  0.00  0.00    +0.000 NA
ATOM     17  H   UNL     1       5.174   3.963  20.158  0.00  0.00    +0.000 HD
BRANCH  16  18
ATOM     18  C   UNL     1       4.646   2.128  19.480  0.00  0.00    +0.000 C 
BRANCH  18  19
ATOM     19  C   UNL     1       3.170   2.368  19.747  0.00  0.00    +0.000 A 
ATOM     20  C   UNL     1       2.229   2.082  18.750  0.00  0.00    +0.000 A 
ATOM     21  C   UNL     1       0.894   2.478  18.893  0.00  0.00    +0.000 A 
ATOM     22  C   UNL     1       0.474   3.122  20.050  0.00  0.00    +0.000 A 
ATOM     23  C   UNL     1       1.372   3.314  21.091  0.00  0.00    +0.000 A 
ATOM     24  C   UNL     1       2.707   2.931  20.948  0.00  0.00    +0.000 A 
ENDBRANCH  18  19
ENDBRANCH  16  18
ENDBRANCH  15  16
ENDBRANCH  14  15
ENDBRANCH  13  14
ENDBRANCH   1  13
TORSDOF 9
ENDMDL
MODEL 6
REMARK VINA RESULT:      -6.6      4.570      7.085
REMARK  Name = 
REMARK  12 active torsions:
REMARK  status: ('A' for Active; 'I' for Inactive)
REMARK    1  A    between atoms: C_1  and  C_2
REMARK    2  A    between atoms: C_4  and  C_5
REMARK    3  A    between atoms: C_6  and  C_7
REMARK    4  A    between atoms: C_8  and  O_9
REMARK    5  A    between atoms: O_9  and  C_10
REMARK    6  A    between atoms: C_10  and  C_11
REMARK    7  A    between atoms: C_11  and  O_12
REMARK    8  A    between atoms: O_12  and  C_13
REMARK    9  A    between atoms: C_13  and  C_14
REMARK   10  A    between atoms: C_14  and  N_15
REMARK   11  A    between atoms: N_15  and  C_16
REMARK   12  A    between atoms: C_16  and  C_17
REMARK                            x       y       z     vdW  Elec       q    Type
REMARK                         _______ _______ _______ _____ _____    ______ ____
ROOT
ATOM      1  C   UNL     1       8.053   7.759  18.051  0.00  0.00    +0.000 C 
ENDROOT
BRANCH   1   2
ATOM      2  C   UNL     1       8.285   9.274  17.989  0.00  0.00    +0.000 C 
BRANCH   2   3
ATOM      3  O   UNL     1       9.098   9.663  19.099  0.00  0.00    +0.000 OA
BRANCH   3  11
ATOM      4  C   UNL     1      11.676  13.108  16.668  0.00  0.00    +0.000 C 
ATOM      5  C   UNL     1      10.899  12.648  17.862  0.00  0.00    +0.000 A 
ATOM      6  C   UNL     1      10.773  13.463  18.986  0.00  0.00    +0.000 A 
ATOM      7  C   UNL     1      10.156  13.005  20.160  0.00  0.00    +0.000 A 
ATOM      8  C   UNL     1      10.021  14.001  21.278  0.00  0.00    +0.000 C 
ATOM      9  C   UNL     1       9.644  11.688  20.196  0.00  0.00    +0.000 A 
ATOM     10  C   UNL     1       9.095  11.042  21.442  0.00  0.00    +0.000 C 
ATOM     11  C   UNL     1       9.675  10.907  19.021  0.00  0.00    +0.000 A 
ATOM     12  C   UNL     1      10.319  11.378  17.876  0.00  0.00    +0.000 A 
ENDBRANCH   3  11
ENDBRANCH   2   3
ENDBRANCH   1   2
BRANCH   1  13
ATOM     13  O   UNL     1       7.723   7.168  16.790  0.00  0.00    +0.000 OA
BRANCH  13  14
ATOM     14  C   UNL     1       6.358   6.759  16.683  0.00  0.00    +0.000 C 
BRANCH  14  15
ATOM     15  C   UNL     1       5.948   6.012  17.963  0.00  0.00    +0.000 C 
BRANCH  15  16
ATOM     16  N   UNL     1       4.509   6.044  18.253  0.00  0.00    +0.000 NA
ATOM     17  H   UNL     1       4.034   5.593  17.464  0.00  0.00    +0.000 HD
BRANCH  16  18
ATOM     18  C   UNL     1       4.138   5.308  19.468  0.00  0.00    +0.000 C 
BRANCH  18  19
ATOM     19  C   UNL     1       2.938   4.403  19.253  0.00  0.00    +0.000 A 
ATOM     20  C   UNL     1       1.854   4.464  20.139  0.00  0.00    +0.000 A 
ATOM     21  C   UNL     1       0.831   3.511  20.084  0.00  0.00    +0.000 A 
ATOM     22  C   UNL     1       0.854   2.513  19.117  0.00  0.00    +0.000 A 
ATOM     23  C   UNL     1       1.864   2.506  18.164  0.00  0.00    +0.000 A 
ATOM     24  C   UNL     1       2.892   3.449  18.222  0.00  0.00    +0.000 A 
ENDBRANCH  18  19
ENDBRANCH  16  18
ENDBRANCH  15  16
ENDBRANCH  14  15
ENDBRANCH  13  14
ENDBRANCH   1  13
TORSDOF 9
ENDMDL
MODEL 7
REMARK VINA RESULT:      -6.5      2.209      6.679
REMARK  Name = 
REMARK  12 active torsions:
REMARK  status: ('A' for Active; 'I' for Inactive)
REMARK    1  A    between atoms: C_1  and  C_2
REMARK    2  A    between atoms: C_4  and  C_5
REMARK    3  A    between atoms: C_6  and  C_7
REMARK    4  A    between atoms: C_8  and  O_9
REMARK    5  A    between atoms: O_9  and  C_10
REMARK    6  A    between atoms: C_10  and  C_11
REMARK    7  A    between atoms: C_11  and  O_12
REMARK    8  A    between atoms: O_12  and  C_13
REMARK    9  A    between atoms: C_13  and  C_14
REMARK   10  A    between atoms: C_14  and  N_15
REMARK   11  A    between atoms: N_15  and  C_16
REMARK   12  A    between atoms: C_16  and  C_17
REMARK                            x       y       z     vdW  Elec       q    Type
REMARK                         _______ _______ _______ _____ _____    ______ ____
ROOT
ATOM      1  C   UNL     1       7.571   5.336  18.826  0.00  0.00    +0.000 C 
ENDROOT
BRANCH   1   2
ATOM      2  C   UNL     1       6.336   5.095  19.702  0.00  0.00    +0.000 C 
BRANCH   2   3
ATOM      3  O   UNL     1       5.449   4.205  19.017  0.00  0.00    +0.000 OA
BRANCH   3  11
ATOM      4  C   UNL     1       1.647   6.920  20.631  0.00  0.00    +0.000 C 
ATOM      5  C   UNL     1       2.202   5.681  19.997  0.00  0.00    +0.000 A 
ATOM      6  C   UNL     1       1.367   4.615  19.670  0.00  0.00    +0.000 A 
ATOM      7  C   UNL     1       1.880   3.400  19.190  0.00  0.00    +0.000 A 
ATOM      8  C   UNL     1       0.874   2.352  18.808  0.00  0.00    +0.000 C 
ATOM      9  C   UNL     1       3.278   3.263  19.030  0.00  0.00    +0.000 A 
ATOM     10  C   UNL     1       3.951   1.965  18.665  0.00  0.00    +0.000 C 
ATOM     11  C   UNL     1       4.108   4.381  19.258  0.00  0.00    +0.000 A 
ATOM     12  C   UNL     1       3.573   5.568  19.760  0.00  0.00    +0.000 A 
ENDBRANCH   3  11
ENDBRANCH   2   3
ENDBRANCH   1   2
BRANCH   1  13
ATOM     13  O   UNL     1       7.743   6.698  18.423  0.00  0.00    +0.000 OA
BRANCH  13  14
ATOM     14  C   UNL     1       7.397   6.947  17.059  0.00  0.00    +0.000 C 
BRANCH  14  15
ATOM     15  C   UNL     1       5.874   7.124  16.944  0.00  0.00    +0.000 C 
BRANCH  15  16
ATOM     16  N   UNL     1       5.271   6.478  15.771  0.00  0.00    +0.000 NA
ATOM     17  H   UNL     1       5.721   6.881  14.943  0.00  0.00    +0.000 HD
BRANCH  16  18
ATOM     18  C   UNL     1       5.486   5.026  15.725  0.00  0.00    +0.000 C 
BRANCH  18  19
ATOM     19  C   UNL     1       6.109   4.574  14.416  0.00  0.00    +0.000 A 
ATOM     20  C   UNL     1       7.296   5.170  13.970  0.00  0.00    +0.000 A 
ATOM     21  C   UNL     1       7.782   4.918  12.682  0.00  0.00    +0.000 A 
ATOM     22  C   UNL     1       7.114   4.035  11.841  0.00  0.00    +0.000 A 
ATOM     23  C   UNL     1       5.998   3.355  12.310  0.00  0.00    +0.000 A 
ATOM     24  C   UNL     1       5.504   3.612  13.590  0.00  0.00    +0.000 A 
ENDBRANCH  18  19
ENDBRANCH  16  18
ENDBRANCH  15  16
ENDBRANCH  14  15
ENDBRANCH  13  14
ENDBRANCH   1  13
TORSDOF 9
ENDMDL
MODEL 8
REMARK VINA RESULT:      -6.4      4.841      7.398
REMARK  Name = 
REMARK  12 active torsions:
REMARK  status: ('A' for Active; 'I' for Inactive)
REMARK    1  A    between atoms: C_1  and  C_2
REMARK    2  A    between atoms: C_4  and  C_5
REMARK    3  A    between atoms: C_6  and  C_7
REMARK    4  A    between atoms: C_8  and  O_9
REMARK    5  A    between atoms: O_9  and  C_10
REMARK    6  A    between atoms: C_10  and  C_11
REMARK    7  A    between atoms: C_11  and  O_12
REMARK    8  A    between atoms: O_12  and  C_13
REMARK    9  A    between atoms: C_13  and  C_14
REMARK   10  A    between atoms: C_14  and  N_15
REMARK   11  A    between atoms: N_15  and  C_16
REMARK   12  A    between atoms: C_16  and  C_17
REMARK                            x       y       z     vdW  Elec       q    Type
REMARK                         _______ _______ _______ _____ _____    ______ ____
ROOT
ATOM      1  C   UNL     1       8.122   8.048  18.315  0.00  0.00    +0.000 C 
ENDROOT
BRANCH   1   2
ATOM      2  C   UNL     1       8.388   9.551  18.170  0.00  0.00    +0.000 C 
BRANCH   2   3
ATOM      3  O   UNL     1       9.351   9.947  19.151  0.00  0.00    +0.000 OA
BRANCH   3  11
ATOM      4  C   UNL     1      11.767  13.430  16.609  0.00  0.00    +0.000 C 
ATOM      5  C   UNL     1      10.995  12.977  17.810  0.00  0.00    +0.000 A 
ATOM      6  C   UNL     1      10.800  13.832  18.894  0.00  0.00    +0.000 A 
ATOM      7  C   UNL     1      10.188  13.391  20.077  0.00  0.00    +0.000 A 
ATOM      8  C   UNL     1       9.973  14.425  21.146  0.00  0.00    +0.000 C 
ATOM      9  C   UNL     1       9.754  12.048  20.164  0.00  0.00    +0.000 A 
ATOM     10  C   UNL     1       9.221  11.426  21.428  0.00  0.00    +0.000 C 
ATOM     11  C   UNL     1       9.855  11.219  19.026  0.00  0.00    +0.000 A 
ATOM     12  C   UNL     1      10.492  11.677  17.872  0.00  0.00    +0.000 A 
ENDBRANCH   3  11
ENDBRANCH   2   3
ENDBRANCH   1   2
BRANCH   1  13
ATOM     13  O   UNL     1       7.600   7.431  17.134  0.00  0.00    +0.000 OA
BRANCH  13  14
ATOM     14  C   UNL     1       6.672   6.376  17.395  0.00  0.00    +0.000 C 
BRANCH  14  15
ATOM     15  C   UNL     1       6.215   5.758  16.064  0.00  0.00    +0.000 C 
BRANCH  15  16
ATOM     16  N   UNL     1       4.894   5.119  16.110  0.00  0.00    +0.000 NA
ATOM     17  H   UNL     1       5.051   4.114  16.239  0.00  0.00    +0.000 HD
BRANCH  16  18
ATOM     18  C   UNL     1       4.056   5.580  17.224  0.00  0.00    +0.000 C 
BRANCH  18  19
ATOM     19  C   UNL     1       3.089   4.511  17.702  0.00  0.00    +0.000 A 
ATOM     20  C   UNL     1       2.068   4.849  18.599  0.00  0.00    +0.000 A 
ATOM     21  C   UNL     1       1.293   3.855  19.207  0.00  0.00    +0.000 A 
ATOM     22  C   UNL     1       1.496   2.517  18.892  0.00  0.00    +0.000 A 
ATOM     23  C   UNL     1       2.430   2.176  17.923  0.00  0.00    +0.000 A 
ATOM     24  C   UNL     1       3.213   3.164  17.322  0.00  0.00    +0.000 A 
ENDBRANCH  18  19
ENDBRANCH  16  18
ENDBRANCH  15  16
ENDBRANCH  14  15
ENDBRANCH  13  14
ENDBRANCH   1  13
TORSDOF 9
ENDMDL
MODEL 9
REMARK VINA RESULT:      -6.3      1.364      1.852
REMARK  Name = 
REMARK  12 active torsions:
REMARK  status: ('A' for Active; 'I' for Inactive)
REMARK    1  A    between atoms: C_1  and  C_2
REMARK    2  A    between atoms: C_4  and  C_5
REMARK    3  A    between atoms: C_6  and  C_7
REMARK    4  A    between atoms: C_8  and  O_9
REMARK    5  A    between atoms: O_9  and  C_10
REMARK    6  A    between atoms: C_10  and  C_11
REMARK    7  A    between atoms: C_11  and  O_12
REMARK    8  A    between atoms: O_12  and  C_13
REMARK    9  A    between atoms: C_13  and  C_14
REMARK   10  A    between atoms: C_14  and  N_15
REMARK   11  A    between atoms: N_15  and  C_16
REMARK   12  A    between atoms: C_16  and  C_17
REMARK                            x       y       z     vdW  Elec       q    Type
REMARK                         _______ _______ _______ _____ _____    ______ ____
ROOT
ATOM      1  C   UNL     1       4.098   2.099  20.315  0.00  0.00    +0.000 C 
ENDROOT
BRANCH   1   2
ATOM      2  C   UNL     1       4.734   2.554  18.996  0.00  0.00    +0.000 C 
BRANCH   2   3
ATOM      3  O   UNL     1       5.536   3.713  19.244  0.00  0.00    +0.000 OA
BRANCH   3  11
ATOM      4  C   UNL     1       5.446   4.567  14.377  0.00  0.00    +0.000 C 
ATOM      5  C   UNL     1       5.825   4.957  15.773  0.00  0.00    +0.000 A 
ATOM      6  C   UNL     1       6.595   6.095  16.010  0.00  0.00    +0.000 A 
ATOM      7  C   UNL     1       7.064   6.410  17.294  0.00  0.00    +0.000 A 
ATOM      8  C   UNL     1       7.825   7.699  17.431  0.00  0.00    +0.000 C 
ATOM      9  C   UNL     1       6.740   5.553  18.371  0.00  0.00    +0.000 A 
ATOM     10  C   UNL     1       7.307   5.710  19.758  0.00  0.00    +0.000 C 
ATOM     11  C   UNL     1       5.870   4.465  18.145  0.00  0.00    +0.000 A 
ATOM     12  C   UNL     1       5.440   4.160  16.853  0.00  0.00    +0.000 A 
ENDBRANCH   3  11
ENDBRANCH   2   3
ENDBRANCH   1   2
BRANCH   1  13
ATOM     13  O   UNL     1       2.679   2.271  20.368  0.00  0.00    +0.000 OA
BRANCH  13  14
ATOM     14  C   UNL     1       2.237   3.566  19.956  0.00  0.00    +0.000 C 
BRANCH  14  15
ATOM     15  C   UNL     1       1.888   4.404  21.196  0.00  0.00    +0.000 C 
BRANCH  15  16
ATOM     16  N   UNL     1       2.235   5.827  21.089  0.00  0.00    +0.000 NA
ATOM     17  H   UNL     1       3.026   5.991  21.720  0.00  0.00    +0.000 HD
BRANCH  16  18
ATOM     18  C   UNL     1       2.657   6.229  19.741  0.00  0.00    +0.000 C 
BRANCH  18  19
ATOM     19  C   UNL     1       2.079   7.571  19.330  0.00  0.00    +0.000 A 
ATOM     20  C   UNL     1       2.266   8.036  18.022  0.00  0.00    +0.000 A 
ATOM     21  C   UNL     1       1.920   9.347  17.674  0.00  0.00    +0.000 A 
ATOM     22  C   UNL     1       1.344  10.194  18.613  0.00  0.00    +0.000 A 
ATOM     23  C   UNL     1       1.053   9.711  19.882  0.00  0.00    +0.000 A 
ATOM     24  C   UNL     1       1.405   8.407  20.237  0.00  0.00    +0.000 A 
ENDBRANCH  18  19
ENDBRANCH  16  18
ENDBRANCH  15  16
ENDBRANCH  14  15
ENDBRANCH  13  14
ENDBRANCH   1  13
TORSDOF 9
ENDMDL
