MODEL 1
REMARK VINA RESULT:      -9.9      0.000      0.000
REMARK  Name = 
REMARK  5 active torsions:
REMARK  status: ('A' for Active; 'I' for Inactive)
REMARK    1  A    between atoms: C_5  and  C_6
REMARK    2  A    between atoms: C_9  and  C_10
REMARK    3  A    between atoms: C_13  and  C_14
REMARK    4  A    between atoms: C_19  and  C_20
REMARK    5  A    between atoms: C_20  and  N_21
REMARK                            x       y       z     vdW  Elec       q    Type
REMARK                         _______ _______ _______ _____ _____    ______ ____
ROOT
ATOM      1  C   UNL     1       3.529   6.631  17.725  0.00  0.00    +0.000 A 
ATOM      2  C   UNL     1       4.638   7.264  17.076  0.00  0.00    +0.000 A 
ATOM      3  C   UNL     1       5.608   6.604  16.286  0.00  0.00    +0.000 A 
ATOM      4  C   UNL     1       5.587   5.229  16.143  0.00  0.00    +0.000 A 
ATOM      5  C   UNL     1       4.561   4.555  16.798  0.00  0.00    +0.000 A 
ATOM      6  C   UNL     1       3.490   5.213  17.500  0.00  0.00    +0.000 A 
ENDROOT
BRANCH   1  10
ATOM      7  C   UNL     1       0.815   9.304  20.188  0.00  0.00    +0.000 A 
ATOM      8  C   UNL     1       1.362   8.114  20.679  0.00  0.00    +0.000 A 
ATOM      9  C   UNL     1       2.193   7.275  19.876  0.00  0.00    +0.000 A 
ATOM     10  C   UNL     1       2.541   7.536  18.519  0.00  0.00    +0.000 A 
ATOM     11  C   UNL     1       1.867   8.665  18.025  0.00  0.00    +0.000 A 
ATOM     12  C   UNL     1       1.061   9.523  18.832  0.00  0.00    +0.000 A 
ATOM     13  F   UNL     1       0.509  10.591  18.231  0.00  0.00    +0.000 F 
BRANCH   7  18
ATOM     14  N   UNL     1      -2.252  12.709  23.469  0.00  0.00    +0.000 N 
ATOM     15  C   UNL     1      -1.450  11.901  22.659  0.00  0.00    +0.000 A 
ATOM     16  C   UNL     1      -1.446  11.996  21.273  0.00  0.00    +0.000 A 
ATOM     17  N   UNL     1      -0.712  11.187  20.452  0.00  0.00    +0.000 NA
ATOM     18  C   UNL     1       0.056  10.241  21.058  0.00  0.00    +0.000 A 
ATOM     19  C   UNL     1       0.030  10.164  22.454  0.00  0.00    +0.000 A 
ATOM     20  N   UNL     1      -0.703  10.968  23.267  0.00  0.00    +0.000 NA
ATOM     21  H   UNL     1      -2.124  13.697  23.287  0.00  0.00    +0.000 HD
ATOM     22  H   UNL     1      -2.048  12.476  24.440  0.00  0.00    +0.000 HD
ENDBRANCH   7  18
ENDBRANCH   1  10
BRANCH   4  23
ATOM     23  C   UNL     1       6.544   4.471  15.254  0.00  0.00    +0.000 C 
ATOM     24  F   UNL     1       6.772   5.065  14.051  0.00  0.00    +0.000 F 
ATOM     25  F   UNL     1       7.769   4.294  15.824  0.00  0.00    +0.000 F 
ATOM     26  F   UNL     1       6.093   3.215  14.967  0.00  0.00    +0.000 F 
ENDBRANCH   4  23
BRANCH   6  27
ATOM     27  C   UNL     1       2.362   4.223  17.802  0.00  0.00    +0.000 C 
BRANCH  27  28
ATOM     28  N   UNL     1       2.715   3.188  18.789  0.00  0.00    +0.000 NA
ATOM     29  C   UNL     1       1.620   2.220  18.990  0.00  0.00    +0.000 C 
ATOM     30  C   UNL     1       0.574   2.628  20.039  0.00  0.00    +0.000 C 
ATOM     31  O   UNL     1       1.186   2.847  21.310  0.00  0.00    +0.000 OA
ATOM     32  C   UNL     1       2.180   3.868  21.238  0.00  0.00    +0.000 C 
ATOM     33  C   UNL     1       3.210   3.642  20.110  0.00  0.00    +0.000 C 
ENDBRANCH  27  28
ENDBRANCH   6  27
TORSDOF 5
ENDMDL
MODEL 2
REMARK VINA RESULT:      -9.8      0.624      1.081
REMARK  Name = 
REMARK  5 active torsions:
REMARK  status: ('A' for Active; 'I' for Inactive)
REMARK    1  A    between atoms: C_5  and  C_6
REMARK    2  A    between atoms: C_9  and  C_10
REMARK    3  A    between atoms: C_13  and  C_14
REMARK    4  A    between atoms: C_19  and  C_20
REMARK    5  A    between atoms: C_20  and  N_21
REMARK                            x       y       z     vdW  Elec       q    Type
REMARK                         _______ _______ _______ _____ _____    ______ ____
ROOT
ATOM      1  C   UNL     1       3.470   6.643  17.748  0.00  0.00    +0.000 A 
ATOM      2  C   UNL     1       4.586   7.235  17.075  0.00  0.00    +0.000 A 
ATOM      3  C   UNL     1       5.526   6.538  16.279  0.00  0.00    +0.000 A 
ATOM      4  C   UNL     1       5.463   5.162  16.156  0.00  0.00    +0.000 A 
ATOM      5  C   UNL     1       4.428   4.526  16.835  0.00  0.00    +0.000 A 
ATOM      6  C   UNL     1       3.387   5.224  17.543  0.00  0.00    +0.000 A 
ENDROOT
BRANCH   1  10
ATOM      7  C   UNL     1       0.873   9.432  20.209  0.00  0.00    +0.000 A 
ATOM      8  C   UNL     1       1.427   8.255  20.723  0.00  0.00    +0.000 A 
ATOM      9  C   UNL     1       2.221   7.379  19.921  0.00  0.00    +0.000 A 
ATOM     10  C   UNL     1       2.520   7.587  18.544  0.00  0.00    +0.000 A 
ATOM     11  C   UNL     1       1.838   8.704  18.034  0.00  0.00    +0.000 A 
ATOM     12  C   UNL     1       1.070   9.599  18.838  0.00  0.00    +0.000 A 
ATOM     13  F   UNL     1       0.506  10.650  18.218  0.00  0.00    +0.000 F 
BRANCH   7  18
ATOM     14  N   UNL     1      -1.654  13.141  23.619  0.00  0.00    +0.000 N 
ATOM     15  C   UNL     1      -1.073  12.219  22.744  0.00  0.00    +0.000 A 
ATOM     16  C   UNL     1      -1.118  10.847  22.961  0.00  0.00    +0.000 A 
ATOM     17  N   UNL     1      -0.517   9.925  22.151  0.00  0.00    +0.000 NA
ATOM     18  C   UNL     1       0.156  10.408  21.071  0.00  0.00    +0.000 A 
ATOM     19  C   UNL     1       0.189  11.792  20.880  0.00  0.00    +0.000 A 
ATOM     20  N   UNL     1      -0.407  12.708  21.687  0.00  0.00    +0.000 NA
ATOM     21  H   UNL     1      -2.632  12.948  23.800  0.00  0.00    +0.000 HD
ATOM     22  H   UNL     1      -1.521  14.071  23.224  0.00  0.00    +0.000 HD
ENDBRANCH   7  18
ENDBRANCH   1  10
BRANCH   4  23
ATOM     23  C   UNL     1       6.385   4.365  15.263  0.00  0.00    +0.000 C 
ATOM     24  F   UNL     1       6.031   3.059  15.124  0.00  0.00    +0.000 F 
ATOM     25  F   UNL     1       6.464   4.870  14.000  0.00  0.00    +0.000 F 
ATOM     26  F   UNL     1       7.668   4.354  15.730  0.00  0.00    +0.000 F 
ENDBRANCH   4  23
BRANCH   6  27
ATOM     27  C   UNL     1       2.236   4.271  17.876  0.00  0.00    +0.000 C 
BRANCH  27  28
ATOM     28  N   UNL     1       2.591   3.204  18.826  0.00  0.00    +0.000 NA
ATOM     29  C   UNL     1       1.457   2.297  19.088  0.00  0.00    +0.000 C 
ATOM     30  C   UNL     1       0.507   2.750  20.207  0.00  0.00    +0.000 C 
ATOM     31  O   UNL     1       1.211   2.915  21.438  0.00  0.00    +0.000 OA
ATOM     32  C   UNL     1       2.256   3.878  21.312  0.00  0.00    +0.000 C 
ATOM     33  C   UNL     1       3.196   3.609  20.116  0.00  0.00    +0.000 C 
ENDBRANCH  27  28
ENDBRANCH   6  27
TORSDOF 5
ENDMDL
MODEL 3
REMARK VINA RESULT:      -9.6      1.069      1.543
REMARK  Name = 
REMARK  5 active torsions:
REMARK  status: ('A' for Active; 'I' for Inactive)
REMARK    1  A    between atoms: C_5  and  C_6
REMARK    2  A    between atoms: C_9  and  C_10
REMARK    3  A    between atoms: C_13  and  C_14
REMARK    4  A    between atoms: C_19  and  C_20
REMARK    5  A    between atoms: C_20  and  N_21
REMARK                            x       y       z     vdW  Elec       q    Type
REMARK                         _______ _______ _______ _____ _____    ______ ____
ROOT
ATOM      1  C   UNL     1       3.488   6.679  17.631  0.00  0.00    +0.000 A 
ATOM      2  C   UNL     1       4.547   7.203  16.824  0.00  0.00    +0.000 A 
ATOM      3  C   UNL     1       5.380   6.440  15.971  0.00  0.00    +0.000 A 
ATOM      4  C   UNL     1       5.264   5.063  15.918  0.00  0.00    +0.000 A 
ATOM      5  C   UNL     1       4.285   4.493  16.725  0.00  0.00    +0.000 A 
ATOM      6  C   UNL     1       3.342   5.255  17.501  0.00  0.00    +0.000 A 
ENDROOT
BRANCH   1  10
ATOM      7  C   UNL     1       0.894   9.609  19.926  0.00  0.00    +0.000 A 
ATOM      8  C   UNL     1       1.414   9.883  18.657  0.00  0.00    +0.000 A 
ATOM      9  C   UNL     1       2.250   8.955  17.964  0.00  0.00    +0.000 A 
ATOM     10  C   UNL     1       2.651   7.688  18.474  0.00  0.00    +0.000 A 
ATOM     11  C   UNL     1       2.221   7.508  19.799  0.00  0.00    +0.000 A 
ATOM     12  C   UNL     1       1.361   8.418  20.483  0.00  0.00    +0.000 A 
ATOM     13  F   UNL     1       0.998   8.095  21.737  0.00  0.00    +0.000 F 
BRANCH   7  18
ATOM     14  N   UNL     1      -2.640  13.232  22.407  0.00  0.00    +0.000 N 
ATOM     15  C   UNL     1      -1.797  12.293  21.806  0.00  0.00    +0.000 A 
ATOM     16  C   UNL     1      -0.741  11.692  22.480  0.00  0.00    +0.000 A 
ATOM     17  N   UNL     1       0.130  10.809  21.907  0.00  0.00    +0.000 NA
ATOM     18  C   UNL     1      -0.076  10.516  20.594  0.00  0.00    +0.000 A 
ATOM     19  C   UNL     1      -1.142  11.139  19.938  0.00  0.00    +0.000 A 
ATOM     20  N   UNL     1      -2.006  12.018  20.510  0.00  0.00    +0.000 NA
ATOM     21  H   UNL     1      -3.053  12.894  23.268  0.00  0.00    +0.000 HD
ATOM     22  H   UNL     1      -3.351  13.492  21.725  0.00  0.00    +0.000 HD
ENDBRANCH   7  18
ENDBRANCH   1  10
BRANCH   4  23
ATOM     23  C   UNL     1       6.067   4.198  14.975  0.00  0.00    +0.000 C 
ATOM     24  F   UNL     1       5.528   4.087  13.730  0.00  0.00    +0.000 F 
ATOM     25  F   UNL     1       7.339   4.651  14.795  0.00  0.00    +0.000 F 
ATOM     26  F   UNL     1       6.198   2.920  15.438  0.00  0.00    +0.000 F 
ENDBRANCH   4  23
BRANCH   6  27
ATOM     27  C   UNL     1       2.203   4.357  17.990  0.00  0.00    +0.000 C 
BRANCH  27  28
ATOM     28  N   UNL     1       2.629   3.287  18.907  0.00  0.00    +0.000 NA
ATOM     29  C   UNL     1       1.548   2.316  19.163  0.00  0.00    +0.000 C 
ATOM     30  C   UNL     1       0.594   2.689  20.307  0.00  0.00    +0.000 C 
ATOM     31  O   UNL     1       1.308   2.860  21.532  0.00  0.00    +0.000 OA
ATOM     32  C   UNL     1       2.300   3.880  21.415  0.00  0.00    +0.000 C 
ATOM     33  C   UNL     1       3.233   3.692  20.198  0.00  0.00    +0.000 C 
ENDBRANCH  27  28
ENDBRANCH   6  27
TORSDOF 5
ENDMDL
MODEL 4
REMARK VINA RESULT:      -9.5      1.494      2.030
REMARK  Name = 
REMARK  5 active torsions:
REMARK  status: ('A' for Active; 'I' for Inactive)
REMARK    1  A    between atoms: C_5  and  C_6
REMARK    2  A    between atoms: C_9  and  C_10
REMARK    3  A    between atoms: C_13  and  C_14
REMARK    4  A    between atoms: C_19  and  C_20
REMARK    5  A    between atoms: C_20  and  N_21
REMARK                            x       y       z     vdW  Elec       q    Type
REMARK                         _______ _______ _______ _____ _____    ______ ____
ROOT
ATOM      1  C   UNL     1       3.728   7.019  17.810  0.00  0.00    +0.000 A 
ATOM      2  C   UNL     1       4.262   7.242  16.501  0.00  0.00    +0.000 A 
ATOM      3  C   UNL     1       5.210   6.416  15.852  0.00  0.00    +0.000 A 
ATOM      4  C   UNL     1       5.762   5.328  16.504  0.00  0.00    +0.000 A 
ATOM      5  C   UNL     1       5.319   5.095  17.802  0.00  0.00    +0.000 A 
ATOM      6  C   UNL     1       4.264   5.842  18.436  0.00  0.00    +0.000 A 
ENDROOT
BRANCH   1  10
ATOM      7  C   UNL     1       0.493   9.900  19.157  0.00  0.00    +0.000 A 
ATOM      8  C   UNL     1       1.256  10.097  18.003  0.00  0.00    +0.000 A 
ATOM      9  C   UNL     1       2.288   9.190  17.612  0.00  0.00    +0.000 A 
ATOM     10  C   UNL     1       2.658   8.021  18.338  0.00  0.00    +0.000 A 
ATOM     11  C   UNL     1       1.963   7.931  19.554  0.00  0.00    +0.000 A 
ATOM     12  C   UNL     1       0.911   8.818  19.934  0.00  0.00    +0.000 A 
ATOM     13  F   UNL     1       0.307   8.585  21.112  0.00  0.00    +0.000 F 
BRANCH   7  18
ATOM     14  N   UNL     1      -3.776  13.385  20.340  0.00  0.00    +0.000 N 
ATOM     15  C   UNL     1      -2.744  12.482  20.073  0.00  0.00    +0.000 A 
ATOM     16  C   UNL     1      -1.637  12.340  20.902  0.00  0.00    +0.000 A 
ATOM     17  N   UNL     1      -0.589  11.503  20.643  0.00  0.00    +0.000 NA
ATOM     18  C   UNL     1      -0.662  10.771  19.498  0.00  0.00    +0.000 A 
ATOM     19  C   UNL     1      -1.784  10.936  18.680  0.00  0.00    +0.000 A 
ATOM     20  N   UNL     1      -2.824  11.772  18.938  0.00  0.00    +0.000 NA
ATOM     21  H   UNL     1      -4.169  13.269  21.266  0.00  0.00    +0.000 HD
ATOM     22  H   UNL     1      -4.481  13.274  19.614  0.00  0.00    +0.000 HD
ENDBRANCH   7  18
ENDBRANCH   1  10
BRANCH   4  23
ATOM     23  C   UNL     1       6.718   4.362  15.844  0.00  0.00    +0.000 C 
ATOM     24  F   UNL     1       7.249   4.818  14.677  0.00  0.00    +0.000 F 
ATOM     25  F   UNL     1       7.777   4.041  16.639  0.00  0.00    +0.000 F 
ATOM     26  F   UNL     1       6.118   3.174  15.540  0.00  0.00    +0.000 F 
ENDBRANCH   4  23
BRANCH   6  27
ATOM     27  C   UNL     1       3.790   5.127  19.703  0.00  0.00    +0.000 C 
BRANCH  27  28
ATOM     28  N   UNL     1       3.183   3.808  19.461  0.00  0.00    +0.000 NA
ATOM     29  C   UNL     1       1.746   3.911  19.140  0.00  0.00    +0.000 C 
ATOM     30  C   UNL     1       0.808   3.936  20.356  0.00  0.00    +0.000 C 
ATOM     31  O   UNL     1       0.980   2.766  21.157  0.00  0.00    +0.000 OA
ATOM     32  C   UNL     1       2.324   2.650  21.623  0.00  0.00    +0.000 C 
ATOM     33  C   UNL     1       3.375   2.765  20.496  0.00  0.00    +0.000 C 
ENDBRANCH  27  28
ENDBRANCH   6  27
TORSDOF 5
ENDMDL
MODEL 5
REMARK VINA RESULT:      -9.4      0.914      1.213
REMARK  Name = 
REMARK  5 active torsions:
REMARK  status: ('A' for Active; 'I' for Inactive)
REMARK    1  A    between atoms: C_5  and  C_6
REMARK    2  A    between atoms: C_9  and  C_10
REMARK    3  A    between atoms: C_13  and  C_14
REMARK    4  A    between atoms: C_19  and  C_20
REMARK    5  A    between atoms: C_20  and  N_21
REMARK                            x       y       z     vdW  Elec       q    Type
REMARK                         _______ _______ _______ _____ _____    ______ ____
ROOT
ATOM      1  C   UNL     1       3.663   6.837  18.016  0.00  0.00    +0.000 A 
ATOM      2  C   UNL     1       4.052   7.194  16.685  0.00  0.00    +0.000 A 
ATOM      3  C   UNL     1       5.000   6.501  15.897  0.00  0.00    +0.000 A 
ATOM      4  C   UNL     1       5.699   5.426  16.415  0.00  0.00    +0.000 A 
ATOM      5  C   UNL     1       5.401   5.068  17.725  0.00  0.00    +0.000 A 
ATOM      6  C   UNL     1       4.351   5.673  18.503  0.00  0.00    +0.000 A 
ENDROOT
BRANCH   1  10
ATOM      7  C   UNL     1       0.621   9.405  20.191  0.00  0.00    +0.000 A 
ATOM      8  C   UNL     1       1.196   8.263  20.755  0.00  0.00    +0.000 A 
ATOM      9  C   UNL     1       2.133   7.455  20.042  0.00  0.00    +0.000 A 
ATOM     10  C   UNL     1       2.566   7.702  18.708  0.00  0.00    +0.000 A 
ATOM     11  C   UNL     1       1.869   8.775  18.132  0.00  0.00    +0.000 A 
ATOM     12  C   UNL     1       0.956   9.604  18.851  0.00  0.00    +0.000 A 
ATOM     13  F   UNL     1       0.391  10.622  18.179  0.00  0.00    +0.000 F 
BRANCH   7  18
ATOM     14  N   UNL     1      -2.503  12.990  23.217  0.00  0.00    +0.000 N 
ATOM     15  C   UNL     1      -1.773  12.073  22.456  0.00  0.00    +0.000 A 
ATOM     16  C   UNL     1      -1.162  10.954  23.012  0.00  0.00    +0.000 A 
ATOM     17  N   UNL     1      -0.402  10.068  22.303  0.00  0.00    +0.000 NA
ATOM     18  C   UNL     1      -0.254  10.317  20.974  0.00  0.00    +0.000 A 
ATOM     19  C   UNL     1      -0.875  11.451  20.442  0.00  0.00    +0.000 A 
ATOM     20  N   UNL     1      -1.629  12.333  21.149  0.00  0.00    +0.000 NA
ATOM     21  H   UNL     1      -3.233  12.552  23.766  0.00  0.00    +0.000 HD
ATOM     22  H   UNL     1      -2.879  13.692  22.581  0.00  0.00    +0.000 HD
ENDBRANCH   7  18
ENDBRANCH   1  10
BRANCH   4  23
ATOM     23  C   UNL     1       6.667   4.596  15.604  0.00  0.00    +0.000 C 
ATOM     24  F   UNL     1       7.112   5.210  14.474  0.00  0.00    +0.000 F 
ATOM     25  F   UNL     1       7.781   4.247  16.307  0.00  0.00    +0.000 F 
ATOM     26  F   UNL     1       6.112   3.418  15.193  0.00  0.00    +0.000 F 
ENDBRANCH   4  23
BRANCH   6  27
ATOM     27  C   UNL     1       4.058   4.835  19.750  0.00  0.00    +0.000 C 
BRANCH  27  28
ATOM     28  N   UNL     1       3.324   3.589  19.481  0.00  0.00    +0.000 NA
ATOM     29  C   UNL     1       1.925   3.845  19.088  0.00  0.00    +0.000 C 
ATOM     30  C   UNL     1       0.935   3.982  20.255  0.00  0.00    +0.000 C 
ATOM     31  O   UNL     1       0.939   2.807  21.067  0.00  0.00    +0.000 OA
ATOM     32  C   UNL     1       2.237   2.549  21.599  0.00  0.00    +0.000 C 
ATOM     33  C   UNL     1       3.349   2.539  20.527  0.00  0.00    +0.000 C 
ENDBRANCH  27  28
ENDBRANCH   6  27
TORSDOF 5
ENDMDL
MODEL 6
REMARK VINA RESULT:      -9.3      1.550      2.318
REMARK  Name = 
REMARK  5 active torsions:
REMARK  status: ('A' for Active; 'I' for Inactive)
REMARK    1  A    between atoms: C_5  and  C_6
REMARK    2  A    between atoms: C_9  and  C_10
REMARK    3  A    between atoms: C_13  and  C_14
REMARK    4  A    between atoms: C_19  and  C_20
REMARK    5  A    between atoms: C_20  and  N_21
REMARK                            x       y       z     vdW  Elec       q    Type
REMARK                         _______ _______ _______ _____ _____    ______ ____
ROOT
ATOM      1  C   UNL     1       3.557   7.101  17.946  0.00  0.00    +0.000 A 
ATOM      2  C   UNL     1       4.224   7.381  16.711  0.00  0.00    +0.000 A 
ATOM      3  C   UNL     1       5.188   6.548  16.095  0.00  0.00    +0.000 A 
ATOM      4  C   UNL     1       5.621   5.390  16.716  0.00  0.00    +0.000 A 
ATOM      5  C   UNL     1       5.045   5.097  17.948  0.00  0.00    +0.000 A 
ATOM      6  C   UNL     1       3.972   5.857  18.533  0.00  0.00    +0.000 A 
ENDROOT
BRANCH   1  10
ATOM      7  C   UNL     1       0.327  10.025  19.213  0.00  0.00    +0.000 A 
ATOM      8  C   UNL     1       1.030  10.140  18.009  0.00  0.00    +0.000 A 
ATOM      9  C   UNL     1       2.061   9.222  17.643  0.00  0.00    +0.000 A 
ATOM     10  C   UNL     1       2.491   8.124  18.443  0.00  0.00    +0.000 A 
ATOM     11  C   UNL     1       1.857   8.123  19.695  0.00  0.00    +0.000 A 
ATOM     12  C   UNL     1       0.806   9.019  20.053  0.00  0.00    +0.000 A 
ATOM     13  F   UNL     1       0.264   8.874  21.275  0.00  0.00    +0.000 F 
BRANCH   7  18
ATOM     14  N   UNL     1      -3.950  13.522  20.326  0.00  0.00    +0.000 N 
ATOM     15  C   UNL     1      -2.915  12.617  20.079  0.00  0.00    +0.000 A 
ATOM     16  C   UNL     1      -1.788  12.525  20.888  0.00  0.00    +0.000 A 
ATOM     17  N   UNL     1      -0.738  11.687  20.645  0.00  0.00    +0.000 NA
ATOM     18  C   UNL     1      -0.829  10.901  19.538  0.00  0.00    +0.000 A 
ATOM     19  C   UNL     1      -1.971  11.016  18.739  0.00  0.00    +0.000 A 
ATOM     20  N   UNL     1      -3.013  11.853  18.981  0.00  0.00    +0.000 NA
ATOM     21  H   UNL     1      -4.322  13.447  21.265  0.00  0.00    +0.000 HD
ATOM     22  H   UNL     1      -4.671  13.370  19.622  0.00  0.00    +0.000 HD
ENDBRANCH   7  18
ENDBRANCH   1  10
BRANCH   4  23
ATOM     23  C   UNL     1       6.587   4.419  16.080  0.00  0.00    +0.000 C 
ATOM     24  F   UNL     1       6.027   3.231  15.724  0.00  0.00    +0.000 F 
ATOM     25  F   UNL     1       7.169   4.914  14.952  0.00  0.00    +0.000 F 
ATOM     26  F   UNL     1       7.621   4.105  16.915  0.00  0.00    +0.000 F 
ENDBRANCH   4  23
BRANCH   6  27
ATOM     27  C   UNL     1       3.344   5.087  19.697  0.00  0.00    +0.000 C 
BRANCH  27  28
ATOM     28  N   UNL     1       1.938   4.707  19.482  0.00  0.00    +0.000 NA
ATOM     29  C   UNL     1       1.343   4.086  20.681  0.00  0.00    +0.000 C 
ATOM     30  C   UNL     1       1.561   2.571  20.805  0.00  0.00    +0.000 C 
ATOM     31  O   UNL     1       1.036   1.885  19.668  0.00  0.00    +0.000 OA
ATOM     32  C   UNL     1       1.651   2.335  18.462  0.00  0.00    +0.000 C 
ATOM     33  C   UNL     1       1.628   3.871  18.298  0.00  0.00    +0.000 C 
ENDBRANCH  27  28
ENDBRANCH   6  27
TORSDOF 5
ENDMDL
MODEL 7
REMARK VINA RESULT:      -9.3      1.292      1.877
REMARK  Name = 
REMARK  5 active torsions:
REMARK  status: ('A' for Active; 'I' for Inactive)
REMARK    1  A    between atoms: C_5  and  C_6
REMARK    2  A    between atoms: C_9  and  C_10
REMARK    3  A    between atoms: C_13  and  C_14
REMARK    4  A    between atoms: C_19  and  C_20
REMARK    5  A    between atoms: C_20  and  N_21
REMARK                            x       y       z     vdW  Elec       q    Type
REMARK                         _______ _______ _______ _____ _____    ______ ____
ROOT
ATOM      1  C   UNL     1       3.414   6.756  17.667  0.00  0.00    +0.000 A 
ATOM      2  C   UNL     1       4.373   7.243  16.723  0.00  0.00    +0.000 A 
ATOM      3  C   UNL     1       5.184   6.436  15.890  0.00  0.00    +0.000 A 
ATOM      4  C   UNL     1       5.151   5.058  15.994  0.00  0.00    +0.000 A 
ATOM      5  C   UNL     1       4.275   4.529  16.936  0.00  0.00    +0.000 A 
ATOM      6  C   UNL     1       3.349   5.321  17.703  0.00  0.00    +0.000 A 
ENDROOT
BRANCH   1  10
ATOM      7  C   UNL     1       0.838   9.799  19.830  0.00  0.00    +0.000 A 
ATOM      8  C   UNL     1       1.353  10.012  18.548  0.00  0.00    +0.000 A 
ATOM      9  C   UNL     1       2.184   9.049  17.897  0.00  0.00    +0.000 A 
ATOM     10  C   UNL     1       2.584   7.806  18.465  0.00  0.00    +0.000 A 
ATOM     11  C   UNL     1       2.158   7.691  19.798  0.00  0.00    +0.000 A 
ATOM     12  C   UNL     1       1.303   8.634  20.442  0.00  0.00    +0.000 A 
ATOM     13  F   UNL     1       0.945   8.372  21.710  0.00  0.00    +0.000 F 
BRANCH   7  18
ATOM     14  N   UNL     1      -2.687  13.546  22.133  0.00  0.00    +0.000 N 
ATOM     15  C   UNL     1      -1.845  12.577  21.582  0.00  0.00    +0.000 A 
ATOM     16  C   UNL     1      -0.734  12.078  22.253  0.00  0.00    +0.000 A 
ATOM     17  N   UNL     1       0.136  11.169  21.722  0.00  0.00    +0.000 NA
ATOM     18  C   UNL     1      -0.128  10.740  20.458  0.00  0.00    +0.000 A 
ATOM     19  C   UNL     1      -1.248  11.261  19.804  0.00  0.00    +0.000 A 
ATOM     20  N   UNL     1      -2.111  12.168  20.333  0.00  0.00    +0.000 NA
ATOM     21  H   UNL     1      -3.043  13.284  23.045  0.00  0.00    +0.000 HD
ATOM     22  H   UNL     1      -3.442  13.716  21.470  0.00  0.00    +0.000 HD
ENDBRANCH   7  18
ENDBRANCH   1  10
BRANCH   4  23
ATOM     23  C   UNL     1       5.931   4.137  15.085  0.00  0.00    +0.000 C 
ATOM     24  F   UNL     1       5.425   4.042  13.825  0.00  0.00    +0.000 F 
ATOM     25  F   UNL     1       7.232   4.515  14.940  0.00  0.00    +0.000 F 
ATOM     26  F   UNL     1       5.976   2.860  15.564  0.00  0.00    +0.000 F 
ENDBRANCH   4  23
BRANCH   6  27
ATOM     27  C   UNL     1       2.309   4.423  18.378  0.00  0.00    +0.000 C 
BRANCH  27  28
ATOM     28  N   UNL     1       2.182   4.634  19.830  0.00  0.00    +0.000 NA
ATOM     29  C   UNL     1       3.386   4.192  20.559  0.00  0.00    +0.000 C 
ATOM     30  C   UNL     1       3.405   2.705  20.944  0.00  0.00    +0.000 C 
ATOM     31  O   UNL     1       2.275   2.372  21.750  0.00  0.00    +0.000 OA
ATOM     32  C   UNL     1       1.053   2.649  21.068  0.00  0.00    +0.000 C 
ATOM     33  C   UNL     1       0.980   4.083  20.499  0.00  0.00    +0.000 C 
ENDBRANCH  27  28
ENDBRANCH   6  27
TORSDOF 5
ENDMDL
MODEL 8
REMARK VINA RESULT:      -9.2      3.741      9.775
REMARK  Name = 
REMARK  5 active torsions:
REMARK  status: ('A' for Active; 'I' for Inactive)
REMARK    1  A    between atoms: C_5  and  C_6
REMARK    2  A    between atoms: C_9  and  C_10
REMARK    3  A    between atoms: C_13  and  C_14
REMARK    4  A    between atoms: C_19  and  C_20
REMARK    5  A    between atoms: C_20  and  N_21
REMARK                            x       y       z     vdW  Elec       q    Type
REMARK                         _______ _______ _______ _____ _____    ______ ____
ROOT
ATOM      1  C   UNL     1      -0.356  10.416  20.876  0.00  0.00    +0.000 A 
ATOM      2  C   UNL     1      -0.425  10.347  22.304  0.00  0.00    +0.000 A 
ATOM      3  C   UNL     1      -1.300  11.103  23.119  0.00  0.00    +0.000 A 
ATOM      4  C   UNL     1      -2.133  12.058  22.564  0.00  0.00    +0.000 A 
ATOM      5  C   UNL     1      -2.069  12.207  21.182  0.00  0.00    +0.000 A 
ATOM      6  C   UNL     1      -1.284  11.362  20.321  0.00  0.00    +0.000 A 
ENDROOT
BRANCH   1  10
ATOM      7  C   UNL     1       2.419   7.488  18.801  0.00  0.00    +0.000 A 
ATOM      8  C   UNL     1       2.052   7.369  20.145  0.00  0.00    +0.000 A 
ATOM      9  C   UNL     1       1.198   8.318  20.784  0.00  0.00    +0.000 A 
ATOM     10  C   UNL     1       0.647   9.469  20.152  0.00  0.00    +0.000 A 
ATOM     11  C   UNL     1       1.143   9.625  18.848  0.00  0.00    +0.000 A 
ATOM     12  C   UNL     1       1.972   8.664  18.195  0.00  0.00    +0.000 A 
ATOM     13  F   UNL     1       2.340   8.928  16.929  0.00  0.00    +0.000 F 
BRANCH   7  18
ATOM     14  N   UNL     1       5.503   3.457  16.352  0.00  0.00    +0.000 N 
ATOM     15  C   UNL     1       4.716   4.466  16.911  0.00  0.00    +0.000 A 
ATOM     16  C   UNL     1       5.146   5.784  17.013  0.00  0.00    +0.000 A 
ATOM     17  N   UNL     1       4.420   6.782  17.599  0.00  0.00    +0.000 NA
ATOM     18  C   UNL     1       3.203   6.437  18.100  0.00  0.00    +0.000 A 
ATOM     19  C   UNL     1       2.797   5.104  17.988  0.00  0.00    +0.000 A 
ATOM     20  N   UNL     1       3.521   4.113  17.408  0.00  0.00    +0.000 NA
ATOM     21  H   UNL     1       5.833   3.686  15.422  0.00  0.00    +0.000 HD
ATOM     22  H   UNL     1       4.956   2.597  16.357  0.00  0.00    +0.000 HD
ENDBRANCH   7  18
ENDBRANCH   1  10
BRANCH   4  23
ATOM     23  C   UNL     1      -3.145  12.844  23.365  0.00  0.00    +0.000 C 
ATOM     24  F   UNL     1      -4.094  13.459  22.608  0.00  0.00    +0.000 F 
ATOM     25  F   UNL     1      -3.820  12.075  24.264  0.00  0.00    +0.000 F 
ATOM     26  F   UNL     1      -2.558  13.833  24.100  0.00  0.00    +0.000 F 
ENDBRANCH   4  23
BRANCH   6  27
ATOM     27  C   UNL     1      -1.694  11.561  18.859  0.00  0.00    +0.000 C 
BRANCH  27  28
ATOM     28  N   UNL     1      -2.680  10.583  18.371  0.00  0.00    +0.000 NA
ATOM     29  C   UNL     1      -2.230   9.915  17.134  0.00  0.00    +0.000 C 
ATOM     30  C   UNL     1      -2.568  10.658  15.833  0.00  0.00    +0.000 C 
ATOM     31  O   UNL     1      -3.976  10.864  15.715  0.00  0.00    +0.000 OA
ATOM     32  C   UNL     1      -4.483  11.620  16.814  0.00  0.00    +0.000 C 
ATOM     33  C   UNL     1      -4.075  11.049  18.190  0.00  0.00    +0.000 C 
ENDBRANCH  27  28
ENDBRANCH   6  27
TORSDOF 5
ENDMDL
MODEL 9
REMARK VINA RESULT:      -9.2      1.052      1.601
REMARK  Name = 
REMARK  5 active torsions:
REMARK  status: ('A' for Active; 'I' for Inactive)
REMARK    1  A    between atoms: C_5  and  C_6
REMARK    2  A    between atoms: C_9  and  C_10
REMARK    3  A    between atoms: C_13  and  C_14
REMARK    4  A    between atoms: C_19  and  C_20
REMARK    5  A    between atoms: C_20  and  N_21
REMARK                            x       y       z     vdW  Elec       q    Type
REMARK                         _______ _______ _______ _____ _____    ______ ____
ROOT
ATOM      1  C   UNL     1       3.211   6.790  17.800  0.00  0.00    +0.000 A 
ATOM      2  C   UNL     1       4.160   7.324  16.871  0.00  0.00    +0.000 A 
ATOM      3  C   UNL     1       5.007   6.558  16.035  0.00  0.00    +0.000 A 
ATOM      4  C   UNL     1       5.023   5.177  16.121  0.00  0.00    +0.000 A 
ATOM      5  C   UNL     1       4.158   4.605  17.048  0.00  0.00    +0.000 A 
ATOM      6  C   UNL     1       3.197   5.353  17.816  0.00  0.00    +0.000 A 
ENDROOT
BRANCH   1  10
ATOM      7  C   UNL     1       0.842   9.764  20.274  0.00  0.00    +0.000 A 
ATOM      8  C   UNL     1       1.362   8.578  20.801  0.00  0.00    +0.000 A 
ATOM      9  C   UNL     1       2.083   7.644  19.996  0.00  0.00    +0.000 A 
ATOM     10  C   UNL     1       2.336   7.799  18.603  0.00  0.00    +0.000 A 
ATOM     11  C   UNL     1       1.686   8.931  18.086  0.00  0.00    +0.000 A 
ATOM     12  C   UNL     1       0.992   9.882  18.891  0.00  0.00    +0.000 A 
ATOM     13  F   UNL     1       0.451  10.940  18.262  0.00  0.00    +0.000 F 
BRANCH   7  18
ATOM     14  N   UNL     1      -1.407  13.639  23.694  0.00  0.00    +0.000 N 
ATOM     15  C   UNL     1      -0.890  12.687  22.811  0.00  0.00    +0.000 A 
ATOM     16  C   UNL     1      -1.208  11.336  22.893  0.00  0.00    +0.000 A 
ATOM     17  N   UNL     1      -0.681  10.375  22.078  0.00  0.00    +0.000 NA
ATOM     18  C   UNL     1       0.203  10.796  21.133  0.00  0.00    +0.000 A 
ATOM     19  C   UNL     1       0.509  12.159  21.075  0.00  0.00    +0.000 A 
ATOM     20  N   UNL     1      -0.014  13.112  21.889  0.00  0.00    +0.000 NA
ATOM     21  H   UNL     1      -2.418  13.622  23.741  0.00  0.00    +0.000 HD
ATOM     22  H   UNL     1      -1.058  14.552  23.405  0.00  0.00    +0.000 HD
ENDBRANCH   7  18
ENDBRANCH   1  10
BRANCH   4  23
ATOM     23  C   UNL     1       5.844   4.298  15.207  0.00  0.00    +0.000 C 
ATOM     24  F   UNL     1       6.077   3.051  15.699  0.00  0.00    +0.000 F 
ATOM     25  F   UNL     1       5.265   4.118  13.986  0.00  0.00    +0.000 F 
ATOM     26  F   UNL     1       7.073   4.832  14.950  0.00  0.00    +0.000 F 
ENDBRANCH   4  23
BRANCH   6  27
ATOM     27  C   UNL     1       2.185   4.409  18.470  0.00  0.00    +0.000 C 
BRANCH  27  28
ATOM     28  N   UNL     1       2.065   4.570  19.928  0.00  0.00    +0.000 NA
ATOM     29  C   UNL     1       3.309   4.200  20.629  0.00  0.00    +0.000 C 
ATOM     30  C   UNL     1       3.445   2.708  20.972  0.00  0.00    +0.000 C 
ATOM     31  O   UNL     1       2.355   2.270  21.783  0.00  0.00    +0.000 OA
ATOM     32  C   UNL     1       1.105   2.474  21.126  0.00  0.00    +0.000 C 
ATOM     33  C   UNL     1       0.917   3.914  20.598  0.00  0.00    +0.000 C 
ENDBRANCH  27  28
ENDBRANCH   6  27
TORSDOF 5
ENDMDL
