MODEL 1
REMARK VINA RESULT:      -7.9      0.000      0.000
REMARK  Name = 
REMARK  7 active torsions:
REMARK  status: ('A' for Active; 'I' for Inactive)
REMARK    1  A    between atoms: C_2  and  C_3
REMARK    2  A    between atoms: N_13  and  C_14
REMARK    3  A    between atoms: C_17  and  O_18
REMARK    4  A    between atoms: O_18  and  C_19
REMARK    5  A    between atoms: C_19  and  C_20
REMARK    6  A    between atoms: C_20  and  C_21
REMARK    7  A    between atoms: C_21  and  N_22
REMARK                            x       y       z     vdW  Elec       q    Type
REMARK                         _______ _______ _______ _____ _____    ______ ____
ROOT
ATOM      1  O   UNL     1      -1.353  14.004  19.502  0.00  0.00    +0.000 OA
ATOM      2  C   UNL     1      -1.545  12.962  20.129  0.00  0.00    +0.000 C 
ATOM      3  N   UNL     1      -0.596  11.957  19.989  0.00  0.00    +0.000 N 
ATOM      4  C   UNL     1      -0.547  10.715  20.768  0.00  0.00    +0.000 C 
ATOM      5  C   UNL     1      -0.309   9.559  19.814  0.00  0.00    +0.000 C 
ATOM      6  N   UNL     1       0.982   9.753  19.175  0.00  0.00    +0.000 N 
ATOM      7  C   UNL     1       1.384  11.001  18.794  0.00  0.00    +0.000 C 
ATOM      8  O   UNL     1       2.446  11.158  18.205  0.00  0.00    +0.000 OA
ATOM      9  C   UNL     1       0.542  12.219  19.096  0.00  0.00    +0.000 C 
ENDROOT
BRANCH   2  10
ATOM     10  C   UNL     1      -2.763  12.974  21.026  0.00  0.00    +0.000 A 
ATOM     11  C   UNL     1      -4.116  12.947  20.605  0.00  0.00    +0.000 A 
ATOM     12  C   UNL     1      -5.158  12.920  21.541  0.00  0.00    +0.000 A 
ATOM     13  C   UNL     1      -4.884  12.945  22.909  0.00  0.00    +0.000 A 
ATOM     14 CL   UNL     1      -6.191  12.902  24.078  0.00  0.00    +0.000 Cl
ATOM     15  C   UNL     1      -3.564  13.017  23.345  0.00  0.00    +0.000 A 
ATOM     16  C   UNL     1      -2.521  13.038  22.419  0.00  0.00    +0.000 A 
ENDBRANCH   2  10
BRANCH   6  17
ATOM     17  C   UNL     1       1.819   8.629  18.945  0.00  0.00    +0.000 A 
ATOM     18  C   UNL     1       1.965   7.650  19.933  0.00  0.00    +0.000 A 
ATOM     19  C   UNL     1       2.786   6.545  19.705  0.00  0.00    +0.000 A 
ATOM     20  C   UNL     1       3.473   6.406  18.479  0.00  0.00    +0.000 A 
ATOM     21  C   UNL     1       3.322   7.395  17.498  0.00  0.00    +0.000 A 
ATOM     22  C   UNL     1       2.500   8.500  17.729  0.00  0.00    +0.000 A 
BRANCH  20  23
ATOM     23  O   UNL     1       4.271   5.339  18.209  0.00  0.00    +0.000 OA
BRANCH  23  24
ATOM     24  C   UNL     1       4.312   4.681  16.996  0.00  0.00    +0.000 C 
BRANCH  24  25
ATOM     25  C   UNL     1       3.168   3.676  16.914  0.00  0.00    +0.000 C 
BRANCH  25  26
ATOM     26  C   UNL     1       3.469   2.405  17.731  0.00  0.00    +0.000 C 
BRANCH  26  27
ATOM     27  N   UNL     1       2.703   2.310  18.998  0.00  0.00    +0.000 NA
ATOM     28  C   UNL     1       3.531   2.646  20.181  0.00  0.00    +0.000 C 
ATOM     29  C   UNL     1       2.712   2.532  21.473  0.00  0.00    +0.000 C 
ATOM     30  C   UNL     1       1.509   3.469  21.408  0.00  0.00    +0.000 C 
ATOM     31  C   UNL     1       0.667   3.117  20.182  0.00  0.00    +0.000 C 
ATOM     32  C   UNL     1       1.528   3.212  18.917  0.00  0.00    +0.000 C 
ENDBRANCH  26  27
ENDBRANCH  25  26
ENDBRANCH  24  25
ENDBRANCH  23  24
ENDBRANCH  20  23
ENDBRANCH   6  17
TORSDOF 7
ENDMDL
MODEL 2
REMARK VINA RESULT:      -7.4      1.688      2.296
REMARK  Name = 
REMARK  7 active torsions:
REMARK  status: ('A' for Active; 'I' for Inactive)
REMARK    1  A    between atoms: C_2  and  C_3
REMARK    2  A    between atoms: N_13  and  C_14
REMARK    3  A    between atoms: C_17  and  O_18
REMARK    4  A    between atoms: O_18  and  C_19
REMARK    5  A    between atoms: C_19  and  C_20
REMARK    6  A    between atoms: C_20  and  C_21
REMARK    7  A    between atoms: C_21  and  N_22
REMARK                            x       y       z     vdW  Elec       q    Type
REMARK                         _______ _______ _______ _____ _____    ______ ____
ROOT
ATOM      1  O   UNL     1      -1.420  15.131  22.803  0.00  0.00    +0.000 OA
ATOM      2  C   UNL     1      -1.985  14.064  22.570  0.00  0.00    +0.000 C 
ATOM      3  N   UNL     1      -1.210  13.041  22.037  0.00  0.00    +0.000 N 
ATOM      4  C   UNL     1      -1.643  11.654  21.844  0.00  0.00    +0.000 C 
ATOM      5  C   UNL     1      -1.221  11.208  20.456  0.00  0.00    +0.000 C 
ATOM      6  N   UNL     1       0.230  11.251  20.384  0.00  0.00    +0.000 N 
ATOM      7  C   UNL     1       0.921  12.269  20.977  0.00  0.00    +0.000 C 
ATOM      8  O   UNL     1       2.139  12.336  20.869  0.00  0.00    +0.000 OA
ATOM      9  C   UNL     1       0.210  13.328  21.787  0.00  0.00    +0.000 C 
ENDROOT
BRANCH   2  10
ATOM     10  C   UNL     1      -3.441  14.011  22.979  0.00  0.00    +0.000 A 
ATOM     11  C   UNL     1      -4.479  14.847  22.498  0.00  0.00    +0.000 A 
ATOM     12  C   UNL     1      -5.801  14.669  22.928  0.00  0.00    +0.000 A 
ATOM     13  C   UNL     1      -6.116  13.681  23.861  0.00  0.00    +0.000 A 
ATOM     14 CL   UNL     1      -7.774  13.456  24.390  0.00  0.00    +0.000 Cl
ATOM     15  C   UNL     1      -5.105  12.877  24.382  0.00  0.00    +0.000 A 
ATOM     16  C   UNL     1      -3.789  13.044  23.953  0.00  0.00    +0.000 A 
ENDBRANCH   2  10
BRANCH   6  17
ATOM     17  C   UNL     1       0.922  10.226  19.686  0.00  0.00    +0.000 A 
ATOM     18  C   UNL     1       1.221   9.020  20.328  0.00  0.00    +0.000 A 
ATOM     19  C   UNL     1       1.899   8.012  19.640  0.00  0.00    +0.000 A 
ATOM     20  C   UNL     1       2.286   8.201  18.295  0.00  0.00    +0.000 A 
ATOM     21  C   UNL     1       1.985   9.415  17.664  0.00  0.00    +0.000 A 
ATOM     22  C   UNL     1       1.307  10.422  18.355  0.00  0.00    +0.000 A 
BRANCH  20  23
ATOM     23  O   UNL     1       2.935   7.243  17.583  0.00  0.00    +0.000 OA
BRANCH  23  24
ATOM     24  C   UNL     1       4.302   7.048  17.600  0.00  0.00    +0.000 C 
BRANCH  24  25
ATOM     25  C   UNL     1       4.632   5.757  18.344  0.00  0.00    +0.000 C 
BRANCH  25  26
ATOM     26  C   UNL     1       3.824   4.566  17.797  0.00  0.00    +0.000 C 
BRANCH  26  27
ATOM     27  N   UNL     1       2.604   4.255  18.583  0.00  0.00    +0.000 NA
ATOM     28  C   UNL     1       2.142   2.862  18.376  0.00  0.00    +0.000 C 
ATOM     29  C   UNL     1       0.878   2.576  19.197  0.00  0.00    +0.000 C 
ATOM     30  C   UNL     1       1.160   2.806  20.679  0.00  0.00    +0.000 C 
ATOM     31  C   UNL     1       1.641   4.243  20.879  0.00  0.00    +0.000 C 
ATOM     32  C   UNL     1       2.886   4.498  20.019  0.00  0.00    +0.000 C 
ENDBRANCH  26  27
ENDBRANCH  25  26
ENDBRANCH  24  25
ENDBRANCH  23  24
ENDBRANCH  20  23
ENDBRANCH   6  17
TORSDOF 7
ENDMDL
MODEL 3
REMARK VINA RESULT:      -7.2      3.907     10.486
REMARK  Name = 
REMARK  7 active torsions:
REMARK  status: ('A' for Active; 'I' for Inactive)
REMARK    1  A    between atoms: C_2  and  C_3
REMARK    2  A    between atoms: N_13  and  C_14
REMARK    3  A    between atoms: C_17  and  O_18
REMARK    4  A    between atoms: O_18  and  C_19
REMARK    5  A    between atoms: C_19  and  C_20
REMARK    6  A    between atoms: C_20  and  C_21
REMARK    7  A    between atoms: C_21  and  N_22
REMARK                            x       y       z     vdW  Elec       q    Type
REMARK                         _______ _______ _______ _____ _____    ______ ____
ROOT
ATOM      1  O   UNL     1       2.671   5.426  19.881  0.00  0.00    +0.000 OA
ATOM      2  C   UNL     1       2.850   6.276  19.009  0.00  0.00    +0.000 C 
ATOM      3  N   UNL     1       2.343   7.547  19.251  0.00  0.00    +0.000 N 
ATOM      4  C   UNL     1       2.589   8.735  18.428  0.00  0.00    +0.000 C 
ATOM      5  C   UNL     1       1.267   9.448  18.207  0.00  0.00    +0.000 C 
ATOM      6  N   UNL     1       0.761   9.880  19.499  0.00  0.00    +0.000 N 
ATOM      7  C   UNL     1       0.889   9.077  20.596  0.00  0.00    +0.000 C 
ATOM      8  O   UNL     1       0.413   9.416  21.671  0.00  0.00    +0.000 OA
ATOM      9  C   UNL     1       1.628   7.761  20.518  0.00  0.00    +0.000 C 
ENDROOT
BRANCH   2  10
ATOM     10  C   UNL     1       3.675   5.813  17.827  0.00  0.00    +0.000 A 
ATOM     11  C   UNL     1       4.459   6.633  16.979  0.00  0.00    +0.000 A 
ATOM     12  C   UNL     1       5.213   6.074  15.938  0.00  0.00    +0.000 A 
ATOM     13  C   UNL     1       5.184   4.700  15.700  0.00  0.00    +0.000 A 
ATOM     14 CL   UNL     1       6.135   4.003  14.401  0.00  0.00    +0.000 Cl
ATOM     15  C   UNL     1       4.384   3.880  16.492  0.00  0.00    +0.000 A 
ATOM     16  C   UNL     1       3.637   4.429  17.534  0.00  0.00    +0.000 A 
ENDBRANCH   2  10
BRANCH   6  17
ATOM     17  C   UNL     1       0.125  11.145  19.608  0.00  0.00    +0.000 A 
ATOM     18  C   UNL     1      -1.263  11.247  19.468  0.00  0.00    +0.000 A 
ATOM     19  C   UNL     1      -1.887  12.490  19.578  0.00  0.00    +0.000 A 
ATOM     20  C   UNL     1      -1.125  13.652  19.831  0.00  0.00    +0.000 A 
ATOM     21  C   UNL     1       0.265  13.539  19.965  0.00  0.00    +0.000 A 
ATOM     22  C   UNL     1       0.887  12.293  19.854  0.00  0.00    +0.000 A 
BRANCH  20  23
ATOM     23  O   UNL     1      -1.692  14.881  19.960  0.00  0.00    +0.000 OA
BRANCH  23  24
ATOM     24  C   UNL     1      -1.263  15.850  20.844  0.00  0.00    +0.000 C 
BRANCH  24  25
ATOM     25  C   UNL     1      -2.351  16.125  21.878  0.00  0.00    +0.000 C 
BRANCH  25  26
ATOM     26  C   UNL     1      -2.155  15.275  23.147  0.00  0.00    +0.000 C 
BRANCH  26  27
ATOM     27  N   UNL     1      -3.040  14.087  23.217  0.00  0.00    +0.000 NA
ATOM     28  C   UNL     1      -3.459  13.780  24.606  0.00  0.00    +0.000 C 
ATOM     29  C   UNL     1      -4.367  12.544  24.645  0.00  0.00    +0.000 C 
ATOM     30  C   UNL     1      -5.602  12.782  23.779  0.00  0.00    +0.000 C 
ATOM     31  C   UNL     1      -5.157  13.103  22.352  0.00  0.00    +0.000 C 
ATOM     32  C   UNL     1      -4.228  14.323  22.360  0.00  0.00    +0.000 C 
ENDBRANCH  26  27
ENDBRANCH  25  26
ENDBRANCH  24  25
ENDBRANCH  23  24
ENDBRANCH  20  23
ENDBRANCH   6  17
TORSDOF 7
ENDMDL
MODEL 4
REMARK VINA RESULT:      -7.2      3.985     10.955
REMARK  Name = 
REMARK  7 active torsions:
REMARK  status: ('A' for Active; 'I' for Inactive)
REMARK    1  A    between atoms: C_2  and  C_3
REMARK    2  A    between atoms: N_13  and  C_14
REMARK    3  A    between atoms: C_17  and  O_18
REMARK    4  A    between atoms: O_18  and  C_19
REMARK    5  A    between atoms: C_19  and  C_20
REMARK    6  A    between atoms: C_20  and  C_21
REMARK    7  A    between atoms: C_21  and  N_22
REMARK                            x       y       z     vdW  Elec       q    Type
REMARK                         _______ _______ _______ _____ _____    ______ ____
ROOT
ATOM      1  O   UNL     1       3.154   5.163  19.568  0.00  0.00    +0.000 OA
ATOM      2  C   UNL     1       3.220   6.043  18.710  0.00  0.00    +0.000 C 
ATOM      3  N   UNL     1       2.628   7.264  19.009  0.00  0.00    +0.000 N 
ATOM      4  C   UNL     1       2.736   8.485  18.204  0.00  0.00    +0.000 C 
ATOM      5  C   UNL     1       1.353   9.094  18.069  0.00  0.00    +0.000 C 
ATOM      6  N   UNL     1       0.882   9.458  19.394  0.00  0.00    +0.000 N 
ATOM      7  C   UNL     1       1.130   8.644  20.463  0.00  0.00    +0.000 C 
ATOM      8  O   UNL     1       0.686   8.921  21.570  0.00  0.00    +0.000 OA
ATOM      9  C   UNL     1       1.965   7.393  20.315  0.00  0.00    +0.000 C 
ENDROOT
BRANCH   2  10
ATOM     10  C   UNL     1       4.016   5.672  17.477  0.00  0.00    +0.000 A 
ATOM     11  C   UNL     1       4.644   6.573  16.582  0.00  0.00    +0.000 A 
ATOM     12  C   UNL     1       5.390   6.100  15.494  0.00  0.00    +0.000 A 
ATOM     13  C   UNL     1       5.505   4.730  15.255  0.00  0.00    +0.000 A 
ATOM     14 CL   UNL     1       6.446   4.141  13.897  0.00  0.00    +0.000 Cl
ATOM     15  C   UNL     1       4.857   3.827  16.095  0.00  0.00    +0.000 A 
ATOM     16  C   UNL     1       4.119   4.291  17.184  0.00  0.00    +0.000 A 
ENDBRANCH   2  10
BRANCH   6  17
ATOM     17  C   UNL     1       0.156  10.665  19.567  0.00  0.00    +0.000 A 
ATOM     18  C   UNL     1      -1.183  10.741  19.171  0.00  0.00    +0.000 A 
ATOM     19  C   UNL     1      -1.897  11.928  19.343  0.00  0.00    +0.000 A 
ATOM     20  C   UNL     1      -1.276  13.058  19.919  0.00  0.00    +0.000 A 
ATOM     21  C   UNL     1       0.067  12.972  20.308  0.00  0.00    +0.000 A 
ATOM     22  C   UNL     1       0.780  11.784  20.133  0.00  0.00    +0.000 A 
BRANCH  20  23
ATOM     23  O   UNL     1      -1.936  14.229  20.118  0.00  0.00    +0.000 OA
BRANCH  23  24
ATOM     24  C   UNL     1      -2.159  14.800  21.355  0.00  0.00    +0.000 C 
BRANCH  24  25
ATOM     25  C   UNL     1      -3.172  13.967  22.135  0.00  0.00    +0.000 C 
BRANCH  25  26
ATOM     26  C   UNL     1      -3.499  14.604  23.499  0.00  0.00    +0.000 C 
BRANCH  26  27
ATOM     27  N   UNL     1      -4.912  14.432  23.919  0.00  0.00    +0.000 NA
ATOM     28  C   UNL     1      -5.818  15.389  23.239  0.00  0.00    +0.000 C 
ATOM     29  C   UNL     1      -7.268  15.190  23.699  0.00  0.00    +0.000 C 
ATOM     30  C   UNL     1      -7.715  13.761  23.400  0.00  0.00    +0.000 C 
ATOM     31  C   UNL     1      -6.770  12.785  24.101  0.00  0.00    +0.000 C 
ATOM     32  C   UNL     1      -5.329  13.037  23.638  0.00  0.00    +0.000 C 
ENDBRANCH  26  27
ENDBRANCH  25  26
ENDBRANCH  24  25
ENDBRANCH  23  24
ENDBRANCH  20  23
ENDBRANCH   6  17
TORSDOF 7
ENDMDL
MODEL 5
REMARK VINA RESULT:      -7.0      4.323     10.308
REMARK  Name = 
REMARK  7 active torsions:
REMARK  status: ('A' for Active; 'I' for Inactive)
REMARK    1  A    between atoms: C_2  and  C_3
REMARK    2  A    between atoms: N_13  and  C_14
REMARK    3  A    between atoms: C_17  and  O_18
REMARK    4  A    between atoms: O_18  and  C_19
REMARK    5  A    between atoms: C_19  and  C_20
REMARK    6  A    between atoms: C_20  and  C_21
REMARK    7  A    between atoms: C_21  and  N_22
REMARK                            x       y       z     vdW  Elec       q    Type
REMARK                         _______ _______ _______ _____ _____    ______ ____
ROOT
ATOM      1  O   UNL     1       4.327   2.739  17.858  0.00  0.00    +0.000 OA
ATOM      2  C   UNL     1       4.489   3.945  17.672  0.00  0.00    +0.000 C 
ATOM      3  N   UNL     1       3.885   4.810  18.576  0.00  0.00    +0.000 N 
ATOM      4  C   UNL     1       4.087   6.261  18.634  0.00  0.00    +0.000 C 
ATOM      5  C   UNL     1       2.732   6.930  18.771  0.00  0.00    +0.000 C 
ATOM      6  N   UNL     1       2.135   6.498  20.024  0.00  0.00    +0.000 N 
ATOM      7  C   UNL     1       2.265   5.205  20.442  0.00  0.00    +0.000 C 
ATOM      8  O   UNL     1       1.715   4.827  21.468  0.00  0.00    +0.000 OA
ATOM      9  C   UNL     1       3.096   4.212  19.662  0.00  0.00    +0.000 C 
ENDROOT
BRANCH   2  10
ATOM     10  C   UNL     1       5.400   4.295  16.515  0.00  0.00    +0.000 A 
ATOM     11  C   UNL     1       6.729   4.778  16.610  0.00  0.00    +0.000 A 
ATOM     12  C   UNL     1       7.485   5.028  15.457  0.00  0.00    +0.000 A 
ATOM     13  C   UNL     1       6.934   4.830  14.191  0.00  0.00    +0.000 A 
ATOM     14 CL   UNL     1       7.887   5.135  12.750  0.00  0.00    +0.000 Cl
ATOM     15  C   UNL     1       5.615   4.399  14.073  0.00  0.00    +0.000 A 
ATOM     16  C   UNL     1       4.859   4.142  15.216  0.00  0.00    +0.000 A 
ENDBRANCH   2  10
BRANCH   6  17
ATOM     17  C   UNL     1       1.409   7.434  20.806  0.00  0.00    +0.000 A 
ATOM     18  C   UNL     1       0.010   7.412  20.808  0.00  0.00    +0.000 A 
ATOM     19  C   UNL     1      -0.702   8.331  21.579  0.00  0.00    +0.000 A 
ATOM     20  C   UNL     1      -0.020   9.287  22.363  0.00  0.00    +0.000 A 
ATOM     21  C   UNL     1       1.381   9.303  22.351  0.00  0.00    +0.000 A 
ATOM     22  C   UNL     1       2.092   8.383  21.577  0.00  0.00    +0.000 A 
BRANCH  20  23
ATOM     23  O   UNL     1      -0.673  10.192  23.140  0.00  0.00    +0.000 OA
BRANCH  23  24
ATOM     24  C   UNL     1      -0.935  11.495  22.768  0.00  0.00    +0.000 C 
BRANCH  24  25
ATOM     25  C   UNL     1      -0.684  11.668  21.273  0.00  0.00    +0.000 C 
BRANCH  25  26
ATOM     26  C   UNL     1      -1.929  12.214  20.549  0.00  0.00    +0.000 C 
BRANCH  26  27
ATOM     27  N   UNL     1      -2.032  11.792  19.130  0.00  0.00    +0.000 NA
ATOM     28  C   UNL     1      -1.390  10.478  18.888  0.00  0.00    +0.000 C 
ATOM     29  C   UNL     1      -1.508  10.073  17.413  0.00  0.00    +0.000 C 
ATOM     30  C   UNL     1      -2.979  10.005  17.011  0.00  0.00    +0.000 C 
ATOM     31  C   UNL     1      -3.631  11.363  17.271  0.00  0.00    +0.000 C 
ATOM     32  C   UNL     1      -3.464  11.744  18.747  0.00  0.00    +0.000 C 
ENDBRANCH  26  27
ENDBRANCH  25  26
ENDBRANCH  24  25
ENDBRANCH  23  24
ENDBRANCH  20  23
ENDBRANCH   6  17
TORSDOF 7
ENDMDL
MODEL 6
REMARK VINA RESULT:      -7.0      3.881     10.426
REMARK  Name = 
REMARK  7 active torsions:
REMARK  status: ('A' for Active; 'I' for Inactive)
REMARK    1  A    between atoms: C_2  and  C_3
REMARK    2  A    between atoms: N_13  and  C_14
REMARK    3  A    between atoms: C_17  and  O_18
REMARK    4  A    between atoms: O_18  and  C_19
REMARK    5  A    between atoms: C_19  and  C_20
REMARK    6  A    between atoms: C_20  and  C_21
REMARK    7  A    between atoms: C_21  and  N_22
REMARK                            x       y       z     vdW  Elec       q    Type
REMARK                         _______ _______ _______ _____ _____    ______ ____
ROOT
ATOM      1  O   UNL     1       2.841   5.319  20.176  0.00  0.00    +0.000 OA
ATOM      2  C   UNL     1       2.924   6.151  19.272  0.00  0.00    +0.000 C 
ATOM      3  N   UNL     1       2.334   7.388  19.496  0.00  0.00    +0.000 N 
ATOM      4  C   UNL     1       2.460   8.564  18.629  0.00  0.00    +0.000 C 
ATOM      5  C   UNL     1       1.082   9.170  18.439  0.00  0.00    +0.000 C 
ATOM      6  N   UNL     1       0.593   9.607  19.736  0.00  0.00    +0.000 N 
ATOM      7  C   UNL     1       0.820   8.851  20.851  0.00  0.00    +0.000 C 
ATOM      8  O   UNL     1       0.361   9.189  21.934  0.00  0.00    +0.000 OA
ATOM      9  C   UNL     1       1.651   7.590  20.783  0.00  0.00    +0.000 C 
ENDROOT
BRANCH   2  10
ATOM     10  C   UNL     1       3.737   5.710  18.074  0.00  0.00    +0.000 A 
ATOM     11  C   UNL     1       3.837   4.391  17.567  0.00  0.00    +0.000 A 
ATOM     12  C   UNL     1       4.594   4.119  16.420  0.00  0.00    +0.000 A 
ATOM     13  C   UNL     1       5.286   5.140  15.769  0.00  0.00    +0.000 A 
ATOM     14 CL   UNL     1       6.226   4.797  14.327  0.00  0.00    +0.000 Cl
ATOM     15  C   UNL     1       5.239   6.436  16.275  0.00  0.00    +0.000 A 
ATOM     16  C   UNL     1       4.482   6.715  17.412  0.00  0.00    +0.000 A 
ENDBRANCH   2  10
BRANCH   6  17
ATOM     17  C   UNL     1      -0.130  10.824  19.832  0.00  0.00    +0.000 A 
ATOM     18  C   UNL     1      -1.415  10.922  19.287  0.00  0.00    +0.000 A 
ATOM     19  C   UNL     1      -2.126  12.119  19.385  0.00  0.00    +0.000 A 
ATOM     20  C   UNL     1      -1.557  13.237  20.033  0.00  0.00    +0.000 A 
ATOM     21  C   UNL     1      -0.268  13.129  20.572  0.00  0.00    +0.000 A 
ATOM     22  C   UNL     1       0.442  11.931  20.472  0.00  0.00    +0.000 A 
BRANCH  20  23
ATOM     23  O   UNL     1      -2.218  14.418  20.163  0.00  0.00    +0.000 OA
BRANCH  23  24
ATOM     24  C   UNL     1      -2.896  14.813  21.299  0.00  0.00    +0.000 C 
BRANCH  24  25
ATOM     25  C   UNL     1      -4.182  14.005  21.442  0.00  0.00    +0.000 C 
BRANCH  25  26
ATOM     26  C   UNL     1      -5.249  14.454  20.425  0.00  0.00    +0.000 C 
BRANCH  26  27
ATOM     27  N   UNL     1      -6.245  13.404  20.096  0.00  0.00    +0.000 NA
ATOM     28  C   UNL     1      -5.891  12.663  18.862  0.00  0.00    +0.000 C 
ATOM     29  C   UNL     1      -6.943  11.591  18.547  0.00  0.00    +0.000 C 
ATOM     30  C   UNL     1      -7.053  10.615  19.715  0.00  0.00    +0.000 C 
ATOM     31  C   UNL     1      -7.412  11.391  20.982  0.00  0.00    +0.000 C 
ATOM     32  C   UNL     1      -6.355  12.472  21.245  0.00  0.00    +0.000 C 
ENDBRANCH  26  27
ENDBRANCH  25  26
ENDBRANCH  24  25
ENDBRANCH  23  24
ENDBRANCH  20  23
ENDBRANCH   6  17
TORSDOF 7
ENDMDL
MODEL 7
REMARK VINA RESULT:      -7.0      1.877      2.398
REMARK  Name = 
REMARK  7 active torsions:
REMARK  status: ('A' for Active; 'I' for Inactive)
REMARK    1  A    between atoms: C_2  and  C_3
REMARK    2  A    between atoms: N_13  and  C_14
REMARK    3  A    between atoms: C_17  and  O_18
REMARK    4  A    between atoms: O_18  and  C_19
REMARK    5  A    between atoms: C_19  and  C_20
REMARK    6  A    between atoms: C_20  and  C_21
REMARK    7  A    between atoms: C_21  and  N_22
REMARK                            x       y       z     vdW  Elec       q    Type
REMARK                         _______ _______ _______ _____ _____    ______ ____
ROOT
ATOM      1  O   UNL     1      -2.998  12.574  20.169  0.00  0.00    +0.000 OA
ATOM      2  C   UNL     1      -1.881  12.567  20.684  0.00  0.00    +0.000 C 
ATOM      3  N   UNL     1      -0.923  11.744  20.106  0.00  0.00    +0.000 N 
ATOM      4  C   UNL     1       0.501  11.714  20.457  0.00  0.00    +0.000 C 
ATOM      5  C   UNL     1       0.929  10.265  20.599  0.00  0.00    +0.000 C 
ATOM      6  N   UNL     1       0.759   9.610  19.313  0.00  0.00    +0.000 N 
ATOM      7  C   UNL     1      -0.326   9.892  18.532  0.00  0.00    +0.000 C 
ATOM      8  O   UNL     1      -0.499   9.301  17.475  0.00  0.00    +0.000 OA
ATOM      9  C   UNL     1      -1.331  10.944  18.942  0.00  0.00    +0.000 C 
ENDROOT
BRANCH   2  10
ATOM     10  C   UNL     1      -1.706  13.532  21.837  0.00  0.00    +0.000 A 
ATOM     11  C   UNL     1      -1.771  13.212  23.216  0.00  0.00    +0.000 A 
ATOM     12  C   UNL     1      -1.550  14.194  24.191  0.00  0.00    +0.000 A 
ATOM     13  C   UNL     1      -1.286  15.513  23.822  0.00  0.00    +0.000 A 
ATOM     14 CL   UNL     1      -1.001  16.738  25.046  0.00  0.00    +0.000 Cl
ATOM     15  C   UNL     1      -1.262  15.860  22.474  0.00  0.00    +0.000 A 
ATOM     16  C   UNL     1      -1.475  14.887  21.498  0.00  0.00    +0.000 A 
ENDBRANCH   2  10
BRANCH   6  17
ATOM     17  C   UNL     1       1.729   8.670  18.878  0.00  0.00    +0.000 A 
ATOM     18  C   UNL     1       2.481   8.920  17.725  0.00  0.00    +0.000 A 
ATOM     19  C   UNL     1       3.436   7.995  17.300  0.00  0.00    +0.000 A 
ATOM     20  C   UNL     1       3.652   6.805  18.028  0.00  0.00    +0.000 A 
ATOM     21  C   UNL     1       2.890   6.563  19.179  0.00  0.00    +0.000 A 
ATOM     22  C   UNL     1       1.934   7.489  19.601  0.00  0.00    +0.000 A 
BRANCH  20  23
ATOM     23  O   UNL     1       4.581   5.884  17.658  0.00  0.00    +0.000 OA
BRANCH  23  24
ATOM     24  C   UNL     1       4.796   4.687  18.310  0.00  0.00    +0.000 C 
BRANCH  24  25
ATOM     25  C   UNL     1       4.290   3.531  17.453  0.00  0.00    +0.000 C 
BRANCH  25  26
ATOM     26  C   UNL     1       4.165   2.231  18.270  0.00  0.00    +0.000 C 
BRANCH  26  27
ATOM     27  N   UNL     1       2.956   2.175  19.128  0.00  0.00    +0.000 NA
ATOM     28  C   UNL     1       3.196   2.749  20.474  0.00  0.00    +0.000 C 
ATOM     29  C   UNL     1       1.929   2.670  21.336  0.00  0.00    +0.000 C 
ATOM     30  C   UNL     1       0.790   3.423  20.655  0.00  0.00    +0.000 C 
ATOM     31  C   UNL     1       0.557   2.827  19.267  0.00  0.00    +0.000 C 
ATOM     32  C   UNL     1       1.852   2.896  18.448  0.00  0.00    +0.000 C 
ENDBRANCH  26  27
ENDBRANCH  25  26
ENDBRANCH  24  25
ENDBRANCH  23  24
ENDBRANCH  20  23
ENDBRANCH   6  17
TORSDOF 7
ENDMDL
MODEL 8
REMARK VINA RESULT:      -7.0      3.962     10.718
REMARK  Name = 
REMARK  7 active torsions:
REMARK  status: ('A' for Active; 'I' for Inactive)
REMARK    1  A    between atoms: C_2  and  C_3
REMARK    2  A    between atoms: N_13  and  C_14
REMARK    3  A    between atoms: C_17  and  O_18
REMARK    4  A    between atoms: O_18  and  C_19
REMARK    5  A    between atoms: C_19  and  C_20
REMARK    6  A    between atoms: C_20  and  C_21
REMARK    7  A    between atoms: C_21  and  N_22
REMARK                            x       y       z     vdW  Elec       q    Type
REMARK                         _______ _______ _______ _____ _____    ______ ____
ROOT
ATOM      1  O   UNL     1       3.341   4.694  19.334  0.00  0.00    +0.000 OA
ATOM      2  C   UNL     1       3.454   5.601  18.509  0.00  0.00    +0.000 C 
ATOM      3  N   UNL     1       2.884   6.825  18.834  0.00  0.00    +0.000 N 
ATOM      4  C   UNL     1       3.046   8.070  18.075  0.00  0.00    +0.000 C 
ATOM      5  C   UNL     1       1.683   8.719  17.922  0.00  0.00    +0.000 C 
ATOM      6  N   UNL     1       1.182   9.049  19.245  0.00  0.00    +0.000 N 
ATOM      7  C   UNL     1       1.378   8.194  20.292  0.00  0.00    +0.000 C 
ATOM      8  O   UNL     1       0.909   8.444  21.394  0.00  0.00    +0.000 OA
ATOM      9  C   UNL     1       2.186   6.927  20.124  0.00  0.00    +0.000 C 
ENDROOT
BRANCH   2  10
ATOM     10  C   UNL     1       4.276   5.251  17.288  0.00  0.00    +0.000 A 
ATOM     11  C   UNL     1       4.559   3.947  16.812  0.00  0.00    +0.000 A 
ATOM     12  C   UNL     1       5.303   3.757  15.640  0.00  0.00    +0.000 A 
ATOM     13  C   UNL     1       5.802   4.850  14.931  0.00  0.00    +0.000 A 
ATOM     14 CL   UNL     1       6.725   4.609  13.459  0.00  0.00    +0.000 Cl
ATOM     15  C   UNL     1       5.575   6.140  15.405  0.00  0.00    +0.000 A 
ATOM     16  C   UNL     1       4.830   6.337  16.567  0.00  0.00    +0.000 A 
ENDBRANCH   2  10
BRANCH   6  17
ATOM     17  C   UNL     1       0.481  10.268  19.439  0.00  0.00    +0.000 A 
ATOM     18  C   UNL     1      -0.859  10.375  19.054  0.00  0.00    +0.000 A 
ATOM     19  C   UNL     1      -1.548  11.574  19.247  0.00  0.00    +0.000 A 
ATOM     20  C   UNL     1      -0.900  12.684  19.832  0.00  0.00    +0.000 A 
ATOM     21  C   UNL     1       0.444  12.567  20.210  0.00  0.00    +0.000 A 
ATOM     22  C   UNL     1       1.131  11.367  20.015  0.00  0.00    +0.000 A 
BRANCH  20  23
ATOM     23  O   UNL     1      -1.536  13.865  20.051  0.00  0.00    +0.000 OA
BRANCH  23  24
ATOM     24  C   UNL     1      -2.836  13.981  20.501  0.00  0.00    +0.000 C 
BRANCH  24  25
ATOM     25  C   UNL     1      -2.878  13.801  22.016  0.00  0.00    +0.000 C 
BRANCH  25  26
ATOM     26  C   UNL     1      -3.580  12.488  22.411  0.00  0.00    +0.000 C 
BRANCH  26  27
ATOM     27  N   UNL     1      -5.003  12.660  22.795  0.00  0.00    +0.000 NA
ATOM     28  C   UNL     1      -5.259  13.979  23.422  0.00  0.00    +0.000 C 
ATOM     29  C   UNL     1      -6.736  14.123  23.812  0.00  0.00    +0.000 C 
ATOM     30  C   UNL     1      -7.616  13.965  22.576  0.00  0.00    +0.000 C 
ATOM     31  C   UNL     1      -7.339  12.604  21.935  0.00  0.00    +0.000 C 
ATOM     32  C   UNL     1      -5.849  12.488  21.589  0.00  0.00    +0.000 C 
ENDBRANCH  26  27
ENDBRANCH  25  26
ENDBRANCH  24  25
ENDBRANCH  23  24
ENDBRANCH  20  23
ENDBRANCH   6  17
TORSDOF 7
ENDMDL
MODEL 9
REMARK VINA RESULT:      -7.0      4.092     10.303
REMARK  Name = 
REMARK  7 active torsions:
REMARK  status: ('A' for Active; 'I' for Inactive)
REMARK    1  A    between atoms: C_2  and  C_3
REMARK    2  A    between atoms: N_13  and  C_14
REMARK    3  A    between atoms: C_17  and  O_18
REMARK    4  A    between atoms: O_18  and  C_19
REMARK    5  A    between atoms: C_19  and  C_20
REMARK    6  A    between atoms: C_20  and  C_21
REMARK    7  A    between atoms: C_21  and  N_22
REMARK                            x       y       z     vdW  Elec       q    Type
REMARK                         _______ _______ _______ _____ _____    ______ ____
ROOT
ATOM      1  O   UNL     1       2.804   5.290  19.935  0.00  0.00    +0.000 OA
ATOM      2  C   UNL     1       2.899   6.177  19.086  0.00  0.00    +0.000 C 
ATOM      3  N   UNL     1       2.316   7.402  19.383  0.00  0.00    +0.000 N 
ATOM      4  C   UNL     1       2.456   8.628  18.592  0.00  0.00    +0.000 C 
ATOM      5  C   UNL     1       1.084   9.256  18.432  0.00  0.00    +0.000 C 
ATOM      6  N   UNL     1       0.588   9.614  19.750  0.00  0.00    +0.000 N 
ATOM      7  C   UNL     1       0.803   8.788  20.816  0.00  0.00    +0.000 C 
ATOM      8  O   UNL     1       0.338   9.061  21.915  0.00  0.00    +0.000 OA
ATOM      9  C   UNL     1       1.626   7.528  20.675  0.00  0.00    +0.000 C 
ENDROOT
BRANCH   2  10
ATOM     10  C   UNL     1       3.717   5.806  17.867  0.00  0.00    +0.000 A 
ATOM     11  C   UNL     1       4.455   6.698  17.051  0.00  0.00    +0.000 A 
ATOM     12  C   UNL     1       5.208   6.223  15.969  0.00  0.00    +0.000 A 
ATOM     13  C   UNL     1       5.224   4.863  15.659  0.00  0.00    +0.000 A 
ATOM     14 CL   UNL     1       6.176   4.270  14.309  0.00  0.00    +0.000 Cl
ATOM     15  C   UNL     1       4.470   3.974  16.420  0.00  0.00    +0.000 A 
ATOM     16  C   UNL     1       3.724   4.439  17.503  0.00  0.00    +0.000 A 
ENDBRANCH   2  10
BRANCH   6  17
ATOM     17  C   UNL     1      -0.127  10.828  19.917  0.00  0.00    +0.000 A 
ATOM     18  C   UNL     1      -1.154  11.166  19.030  0.00  0.00    +0.000 A 
ATOM     19  C   UNL     1      -1.858  12.359  19.197  0.00  0.00    +0.000 A 
ATOM     20  C   UNL     1      -1.542  13.232  20.261  0.00  0.00    +0.000 A 
ATOM     21  C   UNL     1      -0.509  12.886  21.141  0.00  0.00    +0.000 A 
ATOM     22  C   UNL     1       0.195  11.692  20.971  0.00  0.00    +0.000 A 
BRANCH  20  23
ATOM     23  O   UNL     1      -2.210  14.397  20.469  0.00  0.00    +0.000 OA
BRANCH  23  24
ATOM     24  C   UNL     1      -1.605  15.604  20.759  0.00  0.00    +0.000 C 
BRANCH  24  25
ATOM     25  C   UNL     1      -0.822  16.095  19.545  0.00  0.00    +0.000 C 
BRANCH  25  26
ATOM     26  C   UNL     1       0.608  16.522  19.928  0.00  0.00    +0.000 C 
BRANCH  26  27
ATOM     27  N   UNL     1       1.625  15.460  19.731  0.00  0.00    +0.000 NA
ATOM     28  C   UNL     1       1.310  14.590  18.572  0.00  0.00    +0.000 C 
ATOM     29  C   UNL     1       2.376  13.500  18.400  0.00  0.00    +0.000 C 
ATOM     30  C   UNL     1       3.746  14.142  18.199  0.00  0.00    +0.000 C 
ATOM     31  C   UNL     1       4.056  15.040  19.397  0.00  0.00    +0.000 C 
ATOM     32  C   UNL     1       2.953  16.095  19.554  0.00  0.00    +0.000 C 
ENDBRANCH  26  27
ENDBRANCH  25  26
ENDBRANCH  24  25
ENDBRANCH  23  24
ENDBRANCH  20  23
ENDBRANCH   6  17
TORSDOF 7
ENDMDL
