MODEL 1
REMARK VINA RESULT:      -8.1      0.000      0.000
REMARK  Name = 
REMARK  10 active torsions:
REMARK  status: ('A' for Active; 'I' for Inactive)
REMARK    1  A    between atoms: C_1  and  O_2
REMARK    2  A    between atoms: O_2  and  C_3
REMARK    3  A    between atoms: C_6  and  C_7
REMARK    4  A    between atoms: C_10  and  C_11
REMARK    5  A    between atoms: C_11  and  C_12
REMARK    6  A    between atoms: C_11  and  N_13
REMARK    7  A    between atoms: C_18  and  N_19
REMARK    8  A    between atoms: C_24  and  C_25
REMARK    9  A    between atoms: C_25  and  C_26
REMARK   10  A    between atoms: C_25  and  C_27
REMARK                            x       y       z     vdW  Elec       q    Type
REMARK                         _______ _______ _______ _____ _____    ______ ____
ROOT
ATOM      1  N   UNL     1      -1.363  11.018  19.155  0.00  0.00    +0.000 N 
ATOM      2  C   UNL     1      -2.481  11.326  18.404  0.00  0.00    +0.000 A 
ATOM      3  C   UNL     1      -2.559  11.260  17.011  0.00  0.00    +0.000 A 
ATOM      4  N   UNL     1      -3.700  11.435  16.301  0.00  0.00    +0.000 NA
ATOM      5  C   UNL     1      -4.802  11.619  17.055  0.00  0.00    +0.000 A 
ATOM      6  C   UNL     1      -4.759  11.716  18.444  0.00  0.00    +0.000 A 
ATOM      7  N   UNL     1      -3.587  11.621  19.124  0.00  0.00    +0.000 NA
ATOM      8  H   UNL     1      -1.538  11.247  20.127  0.00  0.00    +0.000 HD
ENDROOT
BRANCH   6   9
ATOM      9  N   UNL     1      -5.943  11.901  19.175  0.00  0.00    +0.000 N 
ATOM     10  C   UNL     1      -6.779  10.839  19.459  0.00  0.00    +0.000 C 
ATOM     11  O   UNL     1      -6.790   9.738  18.933  0.00  0.00    +0.000 OA
ATOM     12  O   UNL     1      -7.608  11.166  20.496  0.00  0.00    +0.000 OA
ATOM     13  C   UNL     1      -7.427  12.552  20.795  0.00  0.00    +0.000 C 
ATOM     14  C   UNL     1      -6.104  12.941  20.149  0.00  0.00    +0.000 C 
BRANCH  14  15
ATOM     15  C   UNL     1      -6.081  14.372  19.552  0.00  0.00    +0.000 C 
ATOM     16  C   UNL     1      -7.481  14.949  19.286  0.00  0.00    +0.000 C 
ATOM     17  C   UNL     1      -5.288  15.339  20.435  0.00  0.00    +0.000 C 
ENDBRANCH  14  15
ENDBRANCH   6   9
BRANCH   1  18
ATOM     18  C   UNL     1      -0.003  11.189  18.663  0.00  0.00    +0.000 C 
ATOM     19  C   UNL     1       0.636  12.412  19.324  0.00  0.00    +0.000 C 
BRANCH  18  23
ATOM     20  C   UNL     1       2.205   7.471  19.289  0.00  0.00    +0.000 A 
ATOM     21  C   UNL     1       2.158   8.113  18.042  0.00  0.00    +0.000 A 
ATOM     22  C   UNL     1       1.508   9.334  17.865  0.00  0.00    +0.000 A 
ATOM     23  C   UNL     1       0.827   9.941  18.925  0.00  0.00    +0.000 A 
ATOM     24  C   UNL     1       0.885   9.329  20.185  0.00  0.00    +0.000 A 
ATOM     25  C   UNL     1       1.573   8.121  20.365  0.00  0.00    +0.000 A 
BRANCH  20  29
ATOM     26  C   UNL     1       4.118   3.610  19.620  0.00  0.00    +0.000 A 
ATOM     27  C   UNL     1       4.778   4.681  19.026  0.00  0.00    +0.000 A 
ATOM     28  C   UNL     1       4.169   5.937  18.952  0.00  0.00    +0.000 A 
ATOM     29  C   UNL     1       2.867   6.153  19.437  0.00  0.00    +0.000 A 
ATOM     30  C   UNL     1       2.213   5.053  20.022  0.00  0.00    +0.000 A 
ATOM     31  C   UNL     1       2.831   3.796  20.117  0.00  0.00    +0.000 A 
BRANCH  26  33
ATOM     32  C   UNL     1       4.787   1.704  20.836  0.00  0.00    +0.000 C 
ATOM     33  O   UNL     1       4.798   2.425  19.609  0.00  0.00    +0.000 OA
ENDBRANCH  26  33
ENDBRANCH  20  29
ENDBRANCH  18  23
ENDBRANCH   1  18
TORSDOF 6
ENDMDL
MODEL 2
REMARK VINA RESULT:      -7.7      2.326      3.256
REMARK  Name = 
REMARK  10 active torsions:
REMARK  status: ('A' for Active; 'I' for Inactive)
REMARK    1  A    between atoms: C_1  and  O_2
REMARK    2  A    between atoms: O_2  and  C_3
REMARK    3  A    between atoms: C_6  and  C_7
REMARK    4  A    between atoms: C_10  and  C_11
REMARK    5  A    between atoms: C_11  and  C_12
REMARK    6  A    between atoms: C_11  and  N_13
REMARK    7  A    between atoms: C_18  and  N_19
REMARK    8  A    between atoms: C_24  and  C_25
REMARK    9  A    between atoms: C_25  and  C_26
REMARK   10  A    between atoms: C_25  and  C_27
REMARK                            x       y       z     vdW  Elec       q    Type
REMARK                         _______ _______ _______ _____ _____    ______ ____
ROOT
ATOM      1  N   UNL     1      -0.878  10.615  20.299  0.00  0.00    +0.000 N 
ATOM      2  C   UNL     1      -1.530  11.807  20.545  0.00  0.00    +0.000 A 
ATOM      3  C   UNL     1      -0.908  13.047  20.713  0.00  0.00    +0.000 A 
ATOM      4  N   UNL     1      -1.568  14.225  20.819  0.00  0.00    +0.000 NA
ATOM      5  C   UNL     1      -2.905  14.127  20.685  0.00  0.00    +0.000 A 
ATOM      6  C   UNL     1      -3.563  12.907  20.542  0.00  0.00    +0.000 A 
ATOM      7  N   UNL     1      -2.880  11.733  20.524  0.00  0.00    +0.000 NA
ATOM      8  H   UNL     1      -1.548   9.855  20.322  0.00  0.00    +0.000 HD
ENDROOT
BRANCH   6   9
ATOM      9  N   UNL     1      -4.959  12.871  20.399  0.00  0.00    +0.000 N 
ATOM     10  C   UNL     1      -5.544  12.531  19.195  0.00  0.00    +0.000 C 
ATOM     11  O   UNL     1      -5.018  12.499  18.095  0.00  0.00    +0.000 OA
ATOM     12  O   UNL     1      -6.845  12.163  19.400  0.00  0.00    +0.000 OA
ATOM     13  C   UNL     1      -7.178  12.431  20.764  0.00  0.00    +0.000 C 
ATOM     14  C   UNL     1      -5.848  12.584  21.488  0.00  0.00    +0.000 C 
BRANCH  14  15
ATOM     15  C   UNL     1      -5.848  13.662  22.602  0.00  0.00    +0.000 C 
ATOM     16  C   UNL     1      -6.872  14.784  22.372  0.00  0.00    +0.000 C 
ATOM     17  C   UNL     1      -6.068  13.044  23.986  0.00  0.00    +0.000 C 
ENDBRANCH  14  15
ENDBRANCH   6   9
BRANCH   1  18
ATOM     18  C   UNL     1       0.470  10.332  20.775  0.00  0.00    +0.000 C 
ATOM     19  C   UNL     1       0.415   9.848  22.226  0.00  0.00    +0.000 C 
BRANCH  18  23
ATOM     20  C   UNL     1       2.640   7.417  18.351  0.00  0.00    +0.000 A 
ATOM     21  C   UNL     1       2.315   7.179  19.695  0.00  0.00    +0.000 A 
ATOM     22  C   UNL     1       1.564   8.085  20.443  0.00  0.00    +0.000 A 
ATOM     23  C   UNL     1       1.149   9.300  19.889  0.00  0.00    +0.000 A 
ATOM     24  C   UNL     1       1.441   9.544  18.539  0.00  0.00    +0.000 A 
ATOM     25  C   UNL     1       2.163   8.612  17.781  0.00  0.00    +0.000 A 
BRANCH  20  29
ATOM     26  C   UNL     1       5.128   4.591  16.229  0.00  0.00    +0.000 A 
ATOM     27  C   UNL     1       4.093   4.151  17.047  0.00  0.00    +0.000 A 
ATOM     28  C   UNL     1       3.268   5.069  17.704  0.00  0.00    +0.000 A 
ATOM     29  C   UNL     1       3.476   6.455  17.593  0.00  0.00    +0.000 A 
ATOM     30  C   UNL     1       4.537   6.878  16.772  0.00  0.00    +0.000 A 
ATOM     31  C   UNL     1       5.352   5.958  16.093  0.00  0.00    +0.000 A 
BRANCH  26  33
ATOM     32  C   UNL     1       6.350   3.874  14.346  0.00  0.00    +0.000 C 
ATOM     33  O   UNL     1       5.885   3.605  15.663  0.00  0.00    +0.000 OA
ENDBRANCH  26  33
ENDBRANCH  20  29
ENDBRANCH  18  23
ENDBRANCH   1  18
TORSDOF 6
ENDMDL
MODEL 3
REMARK VINA RESULT:      -7.7      2.269      3.514
REMARK  Name = 
REMARK  10 active torsions:
REMARK  status: ('A' for Active; 'I' for Inactive)
REMARK    1  A    between atoms: C_1  and  O_2
REMARK    2  A    between atoms: O_2  and  C_3
REMARK    3  A    between atoms: C_6  and  C_7
REMARK    4  A    between atoms: C_10  and  C_11
REMARK    5  A    between atoms: C_11  and  C_12
REMARK    6  A    between atoms: C_11  and  N_13
REMARK    7  A    between atoms: C_18  and  N_19
REMARK    8  A    between atoms: C_24  and  C_25
REMARK    9  A    between atoms: C_25  and  C_26
REMARK   10  A    between atoms: C_25  and  C_27
REMARK                            x       y       z     vdW  Elec       q    Type
REMARK                         _______ _______ _______ _____ _____    ______ ____
ROOT
ATOM      1  N   UNL     1      -0.980  10.746  20.493  0.00  0.00    +0.000 N 
ATOM      2  C   UNL     1      -1.553  11.990  20.671  0.00  0.00    +0.000 A 
ATOM      3  C   UNL     1      -0.852  13.193  20.778  0.00  0.00    +0.000 A 
ATOM      4  N   UNL     1      -1.434  14.416  20.816  0.00  0.00    +0.000 NA
ATOM      5  C   UNL     1      -2.774  14.399  20.676  0.00  0.00    +0.000 A 
ATOM      6  C   UNL     1      -3.510  13.218  20.592  0.00  0.00    +0.000 A 
ATOM      7  N   UNL     1      -2.905  12.003  20.642  0.00  0.00    +0.000 NA
ATOM      8  H   UNL     1      -1.698  10.033  20.550  0.00  0.00    +0.000 HD
ENDROOT
BRANCH   6   9
ATOM      9  N   UNL     1      -4.905  13.266  20.439  0.00  0.00    +0.000 N 
ATOM     10  C   UNL     1      -5.688  14.026  21.286  0.00  0.00    +0.000 C 
ATOM     11  O   UNL     1      -5.378  14.493  22.369  0.00  0.00    +0.000 OA
ATOM     12  O   UNL     1      -6.909  14.250  20.711  0.00  0.00    +0.000 OA
ATOM     13  C   UNL     1      -6.992  13.469  19.517  0.00  0.00    +0.000 C 
ATOM     14  C   UNL     1      -5.558  13.088  19.175  0.00  0.00    +0.000 C 
BRANCH  14  15
ATOM     15  C   UNL     1      -5.400  11.665  18.580  0.00  0.00    +0.000 C 
ATOM     16  C   UNL     1      -6.729  10.909  18.434  0.00  0.00    +0.000 C 
ATOM     17  C   UNL     1      -4.678  11.696  17.230  0.00  0.00    +0.000 C 
ENDBRANCH  14  15
ENDBRANCH   6   9
BRANCH   1  18
ATOM     18  C   UNL     1       0.344  10.401  20.994  0.00  0.00    +0.000 C 
ATOM     19  C   UNL     1       0.234   9.884  22.431  0.00  0.00    +0.000 C 
BRANCH  18  23
ATOM     20  C   UNL     1       2.471   7.482  18.538  0.00  0.00    +0.000 A 
ATOM     21  C   UNL     1       2.189   7.256  19.893  0.00  0.00    +0.000 A 
ATOM     22  C   UNL     1       1.451   8.162  20.654  0.00  0.00    +0.000 A 
ATOM     23  C   UNL     1       1.007   9.367  20.100  0.00  0.00    +0.000 A 
ATOM     24  C   UNL     1       1.256   9.599  18.739  0.00  0.00    +0.000 A 
ATOM     25  C   UNL     1       1.965   8.666  17.969  0.00  0.00    +0.000 A 
BRANCH  20  29
ATOM     26  C   UNL     1       4.922   4.656  16.373  0.00  0.00    +0.000 A 
ATOM     27  C   UNL     1       3.885   4.217  17.189  0.00  0.00    +0.000 A 
ATOM     28  C   UNL     1       3.072   5.136  17.860  0.00  0.00    +0.000 A 
ATOM     29  C   UNL     1       3.294   6.521  17.766  0.00  0.00    +0.000 A 
ATOM     30  C   UNL     1       4.357   6.942  16.946  0.00  0.00    +0.000 A 
ATOM     31  C   UNL     1       5.161   6.022  16.254  0.00  0.00    +0.000 A 
BRANCH  26  33
ATOM     32  C   UNL     1       6.487   4.083  14.706  0.00  0.00    +0.000 C 
ATOM     33  O   UNL     1       5.667   3.669  15.792  0.00  0.00    +0.000 OA
ENDBRANCH  26  33
ENDBRANCH  20  29
ENDBRANCH  18  23
ENDBRANCH   1  18
TORSDOF 6
ENDMDL
MODEL 4
REMARK VINA RESULT:      -7.7      2.229      2.919
REMARK  Name = 
REMARK  10 active torsions:
REMARK  status: ('A' for Active; 'I' for Inactive)
REMARK    1  A    between atoms: C_1  and  O_2
REMARK    2  A    between atoms: O_2  and  C_3
REMARK    3  A    between atoms: C_6  and  C_7
REMARK    4  A    between atoms: C_10  and  C_11
REMARK    5  A    between atoms: C_11  and  C_12
REMARK    6  A    between atoms: C_11  and  N_13
REMARK    7  A    between atoms: C_18  and  N_19
REMARK    8  A    between atoms: C_24  and  C_25
REMARK    9  A    between atoms: C_25  and  C_26
REMARK   10  A    between atoms: C_25  and  C_27
REMARK                            x       y       z     vdW  Elec       q    Type
REMARK                         _______ _______ _______ _____ _____    ______ ____
ROOT
ATOM      1  N   UNL     1      -0.301  11.986  20.007  0.00  0.00    +0.000 N 
ATOM      2  C   UNL     1      -1.643  12.303  19.942  0.00  0.00    +0.000 A 
ATOM      3  C   UNL     1      -2.543  11.809  18.995  0.00  0.00    +0.000 A 
ATOM      4  N   UNL     1      -3.881  12.023  19.027  0.00  0.00    +0.000 NA
ATOM      5  C   UNL     1      -4.307  12.715  20.102  0.00  0.00    +0.000 A 
ATOM      6  C   UNL     1      -3.438  13.246  21.053  0.00  0.00    +0.000 A 
ATOM      7  N   UNL     1      -2.093  13.086  20.948  0.00  0.00    +0.000 NA
ATOM      8  H   UNL     1       0.145  12.556  20.717  0.00  0.00    +0.000 HD
ENDROOT
BRANCH   6   9
ATOM      9  N   UNL     1      -3.945  13.952  22.155  0.00  0.00    +0.000 N 
ATOM     10  C   UNL     1      -4.176  13.319  23.361  0.00  0.00    +0.000 C 
ATOM     11  O   UNL     1      -4.256  12.120  23.570  0.00  0.00    +0.000 OA
ATOM     12  O   UNL     1      -4.258  14.247  24.362  0.00  0.00    +0.000 OA
ATOM     13  C   UNL     1      -4.249  15.548  23.771  0.00  0.00    +0.000 C 
ATOM     14  C   UNL     1      -3.712  15.352  22.359  0.00  0.00    +0.000 C 
BRANCH  14  15
ATOM     15  C   UNL     1      -4.375  16.262  21.293  0.00  0.00    +0.000 C 
ATOM     16  C   UNL     1      -5.273  17.356  21.891  0.00  0.00    +0.000 C 
ATOM     17  C   UNL     1      -3.333  16.902  20.372  0.00  0.00    +0.000 C 
ENDBRANCH  14  15
ENDBRANCH   6   9
BRANCH   1  18
ATOM     18  C   UNL     1       0.492  11.638  18.836  0.00  0.00    +0.000 C 
ATOM     19  C   UNL     1       1.563  12.707  18.600  0.00  0.00    +0.000 C 
BRANCH  18  23
ATOM     20  C   UNL     1       2.142   7.607  19.159  0.00  0.00    +0.000 A 
ATOM     21  C   UNL     1       2.291   8.385  18.002  0.00  0.00    +0.000 A 
ATOM     22  C   UNL     1       1.820   9.696  17.929  0.00  0.00    +0.000 A 
ATOM     23  C   UNL     1       1.129  10.268  19.002  0.00  0.00    +0.000 A 
ATOM     24  C   UNL     1       0.994   9.515  20.178  0.00  0.00    +0.000 A 
ATOM     25  C   UNL     1       1.504   8.211  20.258  0.00  0.00    +0.000 A 
BRANCH  20  29
ATOM     26  C   UNL     1       3.591   3.538  19.327  0.00  0.00    +0.000 A 
ATOM     27  C   UNL     1       2.775   4.044  20.334  0.00  0.00    +0.000 A 
ATOM     28  C   UNL     1       2.281   5.349  20.259  0.00  0.00    +0.000 A 
ATOM     29  C   UNL     1       2.615   6.202  19.192  0.00  0.00    +0.000 A 
ATOM     30  C   UNL     1       3.452   5.675  18.192  0.00  0.00    +0.000 A 
ATOM     31  C   UNL     1       3.932   4.357  18.255  0.00  0.00    +0.000 A 
BRANCH  26  33
ATOM     32  C   UNL     1       3.660   1.324  18.522  0.00  0.00    +0.000 C 
ATOM     33  O   UNL     1       4.038   2.262  19.523  0.00  0.00    +0.000 OA
ENDBRANCH  26  33
ENDBRANCH  20  29
ENDBRANCH  18  23
ENDBRANCH   1  18
TORSDOF 6
ENDMDL
MODEL 5
REMARK VINA RESULT:      -7.7      2.573      3.299
REMARK  Name = 
REMARK  10 active torsions:
REMARK  status: ('A' for Active; 'I' for Inactive)
REMARK    1  A    between atoms: C_1  and  O_2
REMARK    2  A    between atoms: O_2  and  C_3
REMARK    3  A    between atoms: C_6  and  C_7
REMARK    4  A    between atoms: C_10  and  C_11
REMARK    5  A    between atoms: C_11  and  C_12
REMARK    6  A    between atoms: C_11  and  N_13
REMARK    7  A    between atoms: C_18  and  N_19
REMARK    8  A    between atoms: C_24  and  C_25
REMARK    9  A    between atoms: C_25  and  C_26
REMARK   10  A    between atoms: C_25  and  C_27
REMARK                            x       y       z     vdW  Elec       q    Type
REMARK                         _______ _______ _______ _____ _____    ______ ____
ROOT
ATOM      1  N   UNL     1      -0.024  12.074  20.242  0.00  0.00    +0.000 N 
ATOM      2  C   UNL     1      -1.356  12.438  20.271  0.00  0.00    +0.000 A 
ATOM      3  C   UNL     1      -2.314  12.069  19.323  0.00  0.00    +0.000 A 
ATOM      4  N   UNL     1      -3.640  12.322  19.439  0.00  0.00    +0.000 NA
ATOM      5  C   UNL     1      -3.994  12.917  20.595  0.00  0.00    +0.000 A 
ATOM      6  C   UNL     1      -3.065  13.322  21.552  0.00  0.00    +0.000 A 
ATOM      7  N   UNL     1      -1.733  13.131  21.369  0.00  0.00    +0.000 NA
ATOM      8  H   UNL     1       0.472  12.555  20.983  0.00  0.00    +0.000 HD
ENDROOT
BRANCH   6   9
ATOM      9  N   UNL     1      -3.498  13.930  22.741  0.00  0.00    +0.000 N 
ATOM     10  C   UNL     1      -3.657  13.197  23.899  0.00  0.00    +0.000 C 
ATOM     11  O   UNL     1      -3.732  11.984  24.009  0.00  0.00    +0.000 OA
ATOM     12  O   UNL     1      -3.670  14.035  24.980  0.00  0.00    +0.000 OA
ATOM     13  C   UNL     1      -3.690  15.382  24.504  0.00  0.00    +0.000 C 
ATOM     14  C   UNL     1      -3.244  15.308  23.050  0.00  0.00    +0.000 C 
BRANCH  14  15
ATOM     15  C   UNL     1      -3.966  16.307  22.109  0.00  0.00    +0.000 C 
ATOM     16  C   UNL     1      -5.478  16.408  22.364  0.00  0.00    +0.000 C 
ATOM     17  C   UNL     1      -3.340  17.703  22.182  0.00  0.00    +0.000 C 
ENDBRANCH  14  15
ENDBRANCH   6   9
BRANCH   1  18
ATOM     18  C   UNL     1       0.704  11.819  19.006  0.00  0.00    +0.000 C 
ATOM     19  C   UNL     1       1.902  12.768  18.907  0.00  0.00    +0.000 C 
BRANCH  18  23
ATOM     20  C   UNL     1       2.190   7.711  18.979  0.00  0.00    +0.000 A 
ATOM     21  C   UNL     1       1.444   8.230  20.048  0.00  0.00    +0.000 A 
ATOM     22  C   UNL     1       0.916   9.520  20.020  0.00  0.00    +0.000 A 
ATOM     23  C   UNL     1       1.159  10.370  18.936  0.00  0.00    +0.000 A 
ATOM     24  C   UNL     1       1.880   9.861  17.846  0.00  0.00    +0.000 A 
ATOM     25  C   UNL     1       2.375   8.549  17.863  0.00  0.00    +0.000 A 
BRANCH  20  29
ATOM     26  C   UNL     1       3.828   3.715  19.126  0.00  0.00    +0.000 A 
ATOM     27  C   UNL     1       4.128   4.566  18.068  0.00  0.00    +0.000 A 
ATOM     28  C   UNL     1       3.624   5.870  18.042  0.00  0.00    +0.000 A 
ATOM     29  C   UNL     1       2.775   6.352  19.054  0.00  0.00    +0.000 A 
ATOM     30  C   UNL     1       2.473   5.468  20.107  0.00  0.00    +0.000 A 
ATOM     31  C   UNL     1       2.996   4.166  20.146  0.00  0.00    +0.000 A 
BRANCH  26  33
ATOM     32  C   UNL     1       3.496   1.484  18.438  0.00  0.00    +0.000 C 
ATOM     33  O   UNL     1       4.351   2.456  19.030  0.00  0.00    +0.000 OA
ENDBRANCH  26  33
ENDBRANCH  20  29
ENDBRANCH  18  23
ENDBRANCH   1  18
TORSDOF 6
ENDMDL
MODEL 6
REMARK VINA RESULT:      -7.7      2.407      3.567
REMARK  Name = 
REMARK  10 active torsions:
REMARK  status: ('A' for Active; 'I' for Inactive)
REMARK    1  A    between atoms: C_1  and  O_2
REMARK    2  A    between atoms: O_2  and  C_3
REMARK    3  A    between atoms: C_6  and  C_7
REMARK    4  A    between atoms: C_10  and  C_11
REMARK    5  A    between atoms: C_11  and  C_12
REMARK    6  A    between atoms: C_11  and  N_13
REMARK    7  A    between atoms: C_18  and  N_19
REMARK    8  A    between atoms: C_24  and  C_25
REMARK    9  A    between atoms: C_25  and  C_26
REMARK   10  A    between atoms: C_25  and  C_27
REMARK                            x       y       z     vdW  Elec       q    Type
REMARK                         _______ _______ _______ _____ _____    ______ ____
ROOT
ATOM      1  N   UNL     1      -0.574  10.236  20.716  0.00  0.00    +0.000 N 
ATOM      2  C   UNL     1      -1.051  11.524  20.576  0.00  0.00    +0.000 A 
ATOM      3  C   UNL     1      -0.286  12.629  20.193  0.00  0.00    +0.000 A 
ATOM      4  N   UNL     1      -0.795  13.857  19.930  0.00  0.00    +0.000 NA
ATOM      5  C   UNL     1      -2.139  13.928  20.003  0.00  0.00    +0.000 A 
ATOM      6  C   UNL     1      -2.933  12.856  20.405  0.00  0.00    +0.000 A 
ATOM      7  N   UNL     1      -2.385  11.660  20.745  0.00  0.00    +0.000 NA
ATOM      8  H   UNL     1      -1.305   9.648  21.101  0.00  0.00    +0.000 HD
ENDROOT
BRANCH   6   9
ATOM      9  N   UNL     1      -4.329  12.991  20.454  0.00  0.00    +0.000 N 
ATOM     10  C   UNL     1      -4.943  13.684  21.478  0.00  0.00    +0.000 C 
ATOM     11  O   UNL     1      -4.462  14.006  22.552  0.00  0.00    +0.000 OA
ATOM     12  O   UNL     1      -6.211  14.035  21.105  0.00  0.00    +0.000 OA
ATOM     13  C   UNL     1      -6.503  13.404  19.857  0.00  0.00    +0.000 C 
ATOM     14  C   UNL     1      -5.154  12.995  19.280  0.00  0.00    +0.000 C 
BRANCH  14  15
ATOM     15  C   UNL     1      -5.169  11.645  18.517  0.00  0.00    +0.000 C 
ATOM     16  C   UNL     1      -6.560  10.995  18.446  0.00  0.00    +0.000 C 
ATOM     17  C   UNL     1      -4.599  11.789  17.104  0.00  0.00    +0.000 C 
ENDBRANCH  14  15
ENDBRANCH   6   9
BRANCH   1  18
ATOM     18  C   UNL     1       0.798   9.932  21.099  0.00  0.00    +0.000 C 
ATOM     19  C   UNL     1       0.824   9.357  22.518  0.00  0.00    +0.000 C 
BRANCH  18  23
ATOM     20  C   UNL     1       2.836   7.172  18.395  0.00  0.00    +0.000 A 
ATOM     21  C   UNL     1       2.496   6.818  19.709  0.00  0.00    +0.000 A 
ATOM     22  C   UNL     1       1.786   7.679  20.545  0.00  0.00    +0.000 A 
ATOM     23  C   UNL     1       1.431   8.962  20.114  0.00  0.00    +0.000 A 
ATOM     24  C   UNL     1       1.739   9.325  18.795  0.00  0.00    +0.000 A 
ATOM     25  C   UNL     1       2.419   8.439  17.947  0.00  0.00    +0.000 A 
BRANCH  20  29
ATOM     26  C   UNL     1       5.086   4.516  15.834  0.00  0.00    +0.000 A 
ATOM     27  C   UNL     1       5.277   5.892  15.773  0.00  0.00    +0.000 A 
ATOM     28  C   UNL     1       4.573   6.745  16.627  0.00  0.00    +0.000 A 
ATOM     29  C   UNL     1       3.628   6.252  17.545  0.00  0.00    +0.000 A 
ATOM     30  C   UNL     1       3.441   4.858  17.580  0.00  0.00    +0.000 A 
ATOM     31  C   UNL     1       4.163   3.998  16.738  0.00  0.00    +0.000 A 
BRANCH  26  33
ATOM     32  C   UNL     1       6.822   4.501  14.240  0.00  0.00    +0.000 C 
ATOM     33  O   UNL     1       5.806   3.784  14.932  0.00  0.00    +0.000 OA
ENDBRANCH  26  33
ENDBRANCH  20  29
ENDBRANCH  18  23
ENDBRANCH   1  18
TORSDOF 6
ENDMDL
MODEL 7
REMARK VINA RESULT:      -7.6      1.402      1.811
REMARK  Name = 
REMARK  10 active torsions:
REMARK  status: ('A' for Active; 'I' for Inactive)
REMARK    1  A    between atoms: C_1  and  O_2
REMARK    2  A    between atoms: O_2  and  C_3
REMARK    3  A    between atoms: C_6  and  C_7
REMARK    4  A    between atoms: C_10  and  C_11
REMARK    5  A    between atoms: C_11  and  C_12
REMARK    6  A    between atoms: C_11  and  N_13
REMARK    7  A    between atoms: C_18  and  N_19
REMARK    8  A    between atoms: C_24  and  C_25
REMARK    9  A    between atoms: C_25  and  C_26
REMARK   10  A    between atoms: C_25  and  C_27
REMARK                            x       y       z     vdW  Elec       q    Type
REMARK                         _______ _______ _______ _____ _____    ______ ____
ROOT
ATOM      1  N   UNL     1      -0.684  12.087  19.288  0.00  0.00    +0.000 N 
ATOM      2  C   UNL     1      -1.830  11.619  18.677  0.00  0.00    +0.000 A 
ATOM      3  C   UNL     1      -1.900  10.502  17.842  0.00  0.00    +0.000 A 
ATOM      4  N   UNL     1      -3.053   9.978  17.360  0.00  0.00    +0.000 NA
ATOM      5  C   UNL     1      -4.169  10.589  17.805  0.00  0.00    +0.000 A 
ATOM      6  C   UNL     1      -4.139  11.721  18.617  0.00  0.00    +0.000 A 
ATOM      7  N   UNL     1      -2.964  12.274  19.015  0.00  0.00    +0.000 NA
ATOM      8  H   UNL     1      -0.885  12.966  19.753  0.00  0.00    +0.000 HD
ENDROOT
BRANCH   6   9
ATOM      9  N   UNL     1      -5.337  12.307  19.054  0.00  0.00    +0.000 N 
ATOM     10  C   UNL     1      -6.361  12.580  18.168  0.00  0.00    +0.000 C 
ATOM     11  O   UNL     1      -6.298  12.633  16.951  0.00  0.00    +0.000 OA
ATOM     12  O   UNL     1      -7.534  12.745  18.852  0.00  0.00    +0.000 OA
ATOM     13  C   UNL     1      -7.241  12.747  20.251  0.00  0.00    +0.000 C 
ATOM     14  C   UNL     1      -5.854  12.132  20.380  0.00  0.00    +0.000 C 
BRANCH  14  15
ATOM     15  C   UNL     1      -4.974  12.766  21.488  0.00  0.00    +0.000 C 
ATOM     16  C   UNL     1      -4.590  14.227  21.206  0.00  0.00    +0.000 C 
ATOM     17  C   UNL     1      -5.641  12.669  22.863  0.00  0.00    +0.000 C 
ENDBRANCH  14  15
ENDBRANCH   6   9
BRANCH   1  18
ATOM     18  C   UNL     1       0.646  11.924  18.716  0.00  0.00    +0.000 C 
ATOM     19  C   UNL     1       1.600  12.957  19.322  0.00  0.00    +0.000 C 
BRANCH  18  23
ATOM     20  C   UNL     1       1.950   7.787  19.232  0.00  0.00    +0.000 A 
ATOM     21  C   UNL     1       2.168   8.497  18.042  0.00  0.00    +0.000 A 
ATOM     22  C   UNL     1       1.810   9.838  17.908  0.00  0.00    +0.000 A 
ATOM     23  C   UNL     1       1.165  10.514  18.949  0.00  0.00    +0.000 A 
ATOM     24  C   UNL     1       0.962   9.828  20.156  0.00  0.00    +0.000 A 
ATOM     25  C   UNL     1       1.360   8.491  20.298  0.00  0.00    +0.000 A 
BRANCH  20  29
ATOM     26  C   UNL     1       3.055   3.623  19.587  0.00  0.00    +0.000 A 
ATOM     27  C   UNL     1       2.350   4.260  20.603  0.00  0.00    +0.000 A 
ATOM     28  C   UNL     1       1.964   5.597  20.469  0.00  0.00    +0.000 A 
ATOM     29  C   UNL     1       2.302   6.350  19.331  0.00  0.00    +0.000 A 
ATOM     30  C   UNL     1       3.028   5.690  18.322  0.00  0.00    +0.000 A 
ATOM     31  C   UNL     1       3.397   4.342  18.444  0.00  0.00    +0.000 A 
BRANCH  26  33
ATOM     32  C   UNL     1       3.597   1.512  18.690  0.00  0.00    +0.000 C 
ATOM     33  O   UNL     1       3.403   2.327  19.840  0.00  0.00    +0.000 OA
ENDBRANCH  26  33
ENDBRANCH  20  29
ENDBRANCH  18  23
ENDBRANCH   1  18
TORSDOF 6
ENDMDL
MODEL 8
REMARK VINA RESULT:      -7.6      1.062      1.256
REMARK  Name = 
REMARK  10 active torsions:
REMARK  status: ('A' for Active; 'I' for Inactive)
REMARK    1  A    between atoms: C_1  and  O_2
REMARK    2  A    between atoms: O_2  and  C_3
REMARK    3  A    between atoms: C_6  and  C_7
REMARK    4  A    between atoms: C_10  and  C_11
REMARK    5  A    between atoms: C_11  and  C_12
REMARK    6  A    between atoms: C_11  and  N_13
REMARK    7  A    between atoms: C_18  and  N_19
REMARK    8  A    between atoms: C_24  and  C_25
REMARK    9  A    between atoms: C_25  and  C_26
REMARK   10  A    between atoms: C_25  and  C_27
REMARK                            x       y       z     vdW  Elec       q    Type
REMARK                         _______ _______ _______ _____ _____    ______ ____
ROOT
ATOM      1  N   UNL     1      -1.374  11.577  19.903  0.00  0.00    +0.000 N 
ATOM      2  C   UNL     1      -2.468  11.733  19.075  0.00  0.00    +0.000 A 
ATOM      3  C   UNL     1      -2.460  11.567  17.688  0.00  0.00    +0.000 A 
ATOM      4  N   UNL     1      -3.569  11.591  16.909  0.00  0.00    +0.000 NA
ATOM      5  C   UNL     1      -4.724  11.727  17.590  0.00  0.00    +0.000 A 
ATOM      6  C   UNL     1      -4.770  11.920  18.969  0.00  0.00    +0.000 A 
ATOM      7  N   UNL     1      -3.635  11.977  19.713  0.00  0.00    +0.000 NA
ATOM      8  H   UNL     1      -1.623  11.855  20.845  0.00  0.00    +0.000 HD
ENDROOT
BRANCH   6   9
ATOM      9  N   UNL     1      -6.006  12.048  19.622  0.00  0.00    +0.000 N 
ATOM     10  C   UNL     1      -6.878  10.981  19.714  0.00  0.00    +0.000 C 
ATOM     11  O   UNL     1      -6.863   9.950  19.062  0.00  0.00    +0.000 OA
ATOM     12  O   UNL     1      -7.782  11.206  20.714  0.00  0.00    +0.000 OA
ATOM     13  C   UNL     1      -7.605  12.543  21.187  0.00  0.00    +0.000 C 
ATOM     14  C   UNL     1      -6.229  12.972  20.697  0.00  0.00    +0.000 C 
BRANCH  14  15
ATOM     15  C   UNL     1      -6.137  14.462  20.276  0.00  0.00    +0.000 C 
ATOM     16  C   UNL     1      -4.752  15.083  20.516  0.00  0.00    +0.000 C 
ATOM     17  C   UNL     1      -6.541  14.660  18.813  0.00  0.00    +0.000 C 
ENDBRANCH  14  15
ENDBRANCH   6   9
BRANCH   1  18
ATOM     18  C   UNL     1      -0.007  11.835  19.471  0.00  0.00    +0.000 C 
ATOM     19  C   UNL     1       0.690  12.753  20.479  0.00  0.00    +0.000 C 
BRANCH  18  23
ATOM     20  C   UNL     1       2.012   8.010  18.857  0.00  0.00    +0.000 A 
ATOM     21  C   UNL     1       1.923   8.980  17.847  0.00  0.00    +0.000 A 
ATOM     22  C   UNL     1       1.336  10.225  18.070  0.00  0.00    +0.000 A 
ATOM     23  C   UNL     1       0.762  10.534  19.308  0.00  0.00    +0.000 A 
ATOM     24  C   UNL     1       0.865   9.588  20.338  0.00  0.00    +0.000 A 
ATOM     25  C   UNL     1       1.491   8.353  20.119  0.00  0.00    +0.000 A 
BRANCH  20  29
ATOM     26  C   UNL     1       3.686   4.129  17.954  0.00  0.00    +0.000 A 
ATOM     27  C   UNL     1       4.191   5.278  17.353  0.00  0.00    +0.000 A 
ATOM     28  C   UNL     1       3.670   6.535  17.674  0.00  0.00    +0.000 A 
ATOM     29  C   UNL     1       2.603   6.680  18.579  0.00  0.00    +0.000 A 
ATOM     30  C   UNL     1       2.099   5.504  19.164  0.00  0.00    +0.000 A 
ATOM     31  C   UNL     1       2.635   4.243  18.860  0.00  0.00    +0.000 A 
BRANCH  26  33
ATOM     32  C   UNL     1       3.690   1.777  18.106  0.00  0.00    +0.000 C 
ATOM     33  O   UNL     1       4.252   2.956  17.541  0.00  0.00    +0.000 OA
ENDBRANCH  26  33
ENDBRANCH  20  29
ENDBRANCH  18  23
ENDBRANCH   1  18
TORSDOF 6
ENDMDL
MODEL 9
REMARK VINA RESULT:      -7.6      4.387      6.664
REMARK  Name = 
REMARK  10 active torsions:
REMARK  status: ('A' for Active; 'I' for Inactive)
REMARK    1  A    between atoms: C_1  and  O_2
REMARK    2  A    between atoms: O_2  and  C_3
REMARK    3  A    between atoms: C_6  and  C_7
REMARK    4  A    between atoms: C_10  and  C_11
REMARK    5  A    between atoms: C_11  and  C_12
REMARK    6  A    between atoms: C_11  and  N_13
REMARK    7  A    between atoms: C_18  and  N_19
REMARK    8  A    between atoms: C_24  and  C_25
REMARK    9  A    between atoms: C_25  and  C_26
REMARK   10  A    between atoms: C_25  and  C_27
REMARK                            x       y       z     vdW  Elec       q    Type
REMARK                         _______ _______ _______ _____ _____    ______ ____
ROOT
ATOM      1  N   UNL     1       2.576   7.608  19.355  0.00  0.00    +0.000 N 
ATOM      2  C   UNL     1       1.596   8.231  20.101  0.00  0.00    +0.000 A 
ATOM      3  C   UNL     1       1.202   7.857  21.388  0.00  0.00    +0.000 A 
ATOM      4  N   UNL     1       0.336   8.560  22.158  0.00  0.00    +0.000 NA
ATOM      5  C   UNL     1      -0.087   9.715  21.605  0.00  0.00    +0.000 A 
ATOM      6  C   UNL     1       0.263  10.108  20.315  0.00  0.00    +0.000 A 
ATOM      7  N   UNL     1       1.067   9.339  19.535  0.00  0.00    +0.000 NA
ATOM      8  H   UNL     1       2.594   8.006  18.423  0.00  0.00    +0.000 HD
ENDROOT
BRANCH   6   9
ATOM      9  N   UNL     1      -0.204  11.327  19.798  0.00  0.00    +0.000 N 
ATOM     10  C   UNL     1       0.336  12.529  20.210  0.00  0.00    +0.000 C 
ATOM     11  O   UNL     1       1.023  12.738  21.196  0.00  0.00    +0.000 OA
ATOM     12  O   UNL     1       0.037  13.506  19.301  0.00  0.00    +0.000 OA
ATOM     13  C   UNL     1      -0.875  12.965  18.343  0.00  0.00    +0.000 C 
ATOM     14  C   UNL     1      -0.768  11.453  18.486  0.00  0.00    +0.000 C 
BRANCH  14  15
ATOM     15  C   UNL     1      -2.110  10.698  18.302  0.00  0.00    +0.000 C 
ATOM     16  C   UNL     1      -3.345  11.607  18.399  0.00  0.00    +0.000 C 
ATOM     17  C   UNL     1      -2.147   9.925  16.981  0.00  0.00    +0.000 C 
ENDBRANCH  14  15
ENDBRANCH   6   9
BRANCH   1  18
ATOM     18  C   UNL     1       2.892   6.191  19.481  0.00  0.00    +0.000 C 
ATOM     19  C   UNL     1       1.599   5.383  19.619  0.00  0.00    +0.000 C 
BRANCH  18  23
ATOM     20  C   UNL     1       5.042   4.917  15.898  0.00  0.00    +0.000 A 
ATOM     21  C   UNL     1       5.028   6.253  16.327  0.00  0.00    +0.000 A 
ATOM     22  C   UNL     1       4.396   6.641  17.508  0.00  0.00    +0.000 A 
ATOM     23  C   UNL     1       3.701   5.710  18.286  0.00  0.00    +0.000 A 
ATOM     24  C   UNL     1       3.726   4.366  17.888  0.00  0.00    +0.000 A 
ATOM     25  C   UNL     1       4.396   3.975  16.720  0.00  0.00    +0.000 A 
BRANCH  20  29
ATOM     26  C   UNL     1       6.939   3.727  12.202  0.00  0.00    +0.000 A 
ATOM     27  C   UNL     1       5.674   3.256  12.534  0.00  0.00    +0.000 A 
ATOM     28  C   UNL     1       5.049   3.671  13.713  0.00  0.00    +0.000 A 
ATOM     29  C   UNL     1       5.685   4.541  14.616  0.00  0.00    +0.000 A 
ATOM     30  C   UNL     1       6.970   4.994  14.267  0.00  0.00    +0.000 A 
ATOM     31  C   UNL     1       7.590   4.596  13.072  0.00  0.00    +0.000 A 
BRANCH  26  33
ATOM     32  C   UNL     1       7.383   1.817  10.893  0.00  0.00    +0.000 C 
ATOM     33  O   UNL     1       7.462   3.230  11.041  0.00  0.00    +0.000 OA
ENDBRANCH  26  33
ENDBRANCH  20  29
ENDBRANCH  18  23
ENDBRANCH   1  18
TORSDOF 6
ENDMDL
