MODEL 1
REMARK VINA RESULT:      -7.8      0.000      0.000
REMARK  Name = 
REMARK  14 active torsions:
REMARK  status: ('A' for Active; 'I' for Inactive)
REMARK    1  A    between atoms: C_1  and  C_2
REMARK    2  A    between atoms: C_2  and  O_3
REMARK    3  A    between atoms: O_3  and  C_4
REMARK    4  A    between atoms: C_4  and  C_6
REMARK    5  A    between atoms: C_6  and  C_7
REMARK    6  A    between atoms: C_7  and  C_8
REMARK    7  A    between atoms: C_8  and  N_9
REMARK    8  A    between atoms: C_8  and  C_30
REMARK    9  A    between atoms: C_10  and  C_12
REMARK   10  A    between atoms: C_12  and  C_13
REMARK   11  A    between atoms: C_12  and  N_14
REMARK   12  A    between atoms: C_15  and  C_17
REMARK   13  A    between atoms: C_17  and  N_18
REMARK   14  A    between atoms: C_19  and  C_21
REMARK                            x       y       z     vdW  Elec       q    Type
REMARK                         _______ _______ _______ _____ _____    ______ ____
ROOT
ATOM      1  C   UNL     1       2.402   6.979  18.780  0.00  0.00    +0.000 C 
ATOM      2  C   UNL     1       2.878   8.054  17.813  0.00  0.00    +0.000 C 
ENDROOT
BRANCH   1   4
ATOM      3  N   UNL     1       3.380   5.006  17.717  0.00  0.00    +0.000 N 
ATOM      4  C   UNL     1       3.406   5.814  18.833  0.00  0.00    +0.000 C 
ATOM      5  O   UNL     1       4.129   5.592  19.801  0.00  0.00    +0.000 OA
ATOM      6  H   UNL     1       2.528   5.031  17.153  0.00  0.00    +0.000 HD
BRANCH   3   7
ATOM      7  C   UNL     1       4.194   3.798  17.625  0.00  0.00    +0.000 C 
BRANCH   7   8
ATOM      8  C   UNL     1       3.267   2.576  17.766  0.00  0.00    +0.000 C 
ATOM      9  N   UNL     1       3.824   1.441  18.280  0.00  0.00    +0.000 N 
ATOM     10  O   UNL     1       2.077   2.587  17.457  0.00  0.00    +0.000 OA
ATOM     11  H   UNL     1       4.793   1.363  18.553  0.00  0.00    +0.000 HD
ATOM     12  H   UNL     1       3.225   0.633  18.381  0.00  0.00    +0.000 HD
ENDBRANCH   7   8
BRANCH   7  13
ATOM     13  C   UNL     1       4.975   3.774  16.307  0.00  0.00    +0.000 C 
BRANCH  13  14
ATOM     14  C   UNL     1       5.316   5.181  15.808  0.00  0.00    +0.000 C 
BRANCH  14  15
ATOM     15  C   UNL     1       6.709   5.239  15.232  0.00  0.00    +0.000 C 
ATOM     16  O   UNL     1       7.087   4.641  14.236  0.00  0.00    +0.000 OA
BRANCH  15  17
ATOM     17  O   UNL     1       7.500   5.979  16.060  0.00  0.00    +0.000 OA
BRANCH  17  19
ATOM     18  C   UNL     1       7.715   6.656  18.339  0.00  0.00    +0.000 C 
ATOM     19  C   UNL     1       6.810   6.657  17.118  0.00  0.00    +0.000 C 
ENDBRANCH  17  19
ENDBRANCH  15  17
ENDBRANCH  14  15
ENDBRANCH  13  14
ENDBRANCH   7  13
ENDBRANCH   3   7
ENDBRANCH   1   4
BRANCH   1  20
ATOM     20  N   UNL     1       2.255   7.515  20.124  0.00  0.00    +0.000 N 
ATOM     21  C   UNL     1       1.345   8.507  20.404  0.00  0.00    +0.000 C 
ATOM     22  O   UNL     1       0.700   9.082  19.528  0.00  0.00    +0.000 OA
ATOM     23  H   UNL     1       2.683   7.015  20.897  0.00  0.00    +0.000 HD
BRANCH  21  24
ATOM     24  C   UNL     1       1.298   8.924  21.870  0.00  0.00    +0.000 C 
BRANCH  24  25
ATOM     25  N   UNL     1       0.096   9.698  22.104  0.00  0.00    +0.000 N 
ATOM     26  C   UNL     1       0.053  11.061  21.936  0.00  0.00    +0.000 C 
ATOM     27  O   UNL     1       1.039  11.718  21.618  0.00  0.00    +0.000 OA
ATOM     28  H   UNL     1      -0.775   9.187  22.145  0.00  0.00    +0.000 HD
BRANCH  26  29
ATOM     29  C   UNL     1      -1.249  11.654  22.162  0.00  0.00    +0.000 A 
ATOM     30  C   UNL     1      -2.115  12.315  21.306  0.00  0.00    +0.000 A 
ATOM     31  C   UNL     1      -3.284  12.665  22.025  0.00  0.00    +0.000 A 
ATOM     32  C   UNL     1      -4.482  13.318  21.673  0.00  0.00    +0.000 A 
ATOM     33  C   UNL     1      -5.471  13.501  22.644  0.00  0.00    +0.000 A 
ATOM     34  C   UNL     1      -5.277  13.046  23.947  0.00  0.00    +0.000 A 
ATOM     35  C   UNL     1      -4.094  12.396  24.319  0.00  0.00    +0.000 A 
ATOM     36  C   UNL     1      -3.116  12.217  23.332  0.00  0.00    +0.000 A 
ATOM     37  N   UNL     1      -1.878  11.615  23.390  0.00  0.00    +0.000 N 
ATOM     38  H   UNL     1      -1.480  11.182  24.214  0.00  0.00    +0.000 HD
ENDBRANCH  26  29
ENDBRANCH  24  25
ENDBRANCH  21  24
ENDBRANCH   1  20
TORSDOF 12
ENDMDL
MODEL 2
REMARK VINA RESULT:      -7.7      3.019      4.284
REMARK  Name = 
REMARK  14 active torsions:
REMARK  status: ('A' for Active; 'I' for Inactive)
REMARK    1  A    between atoms: C_1  and  C_2
REMARK    2  A    between atoms: C_2  and  O_3
REMARK    3  A    between atoms: O_3  and  C_4
REMARK    4  A    between atoms: C_4  and  C_6
REMARK    5  A    between atoms: C_6  and  C_7
REMARK    6  A    between atoms: C_7  and  C_8
REMARK    7  A    between atoms: C_8  and  N_9
REMARK    8  A    between atoms: C_8  and  C_30
REMARK    9  A    between atoms: C_10  and  C_12
REMARK   10  A    between atoms: C_12  and  C_13
REMARK   11  A    between atoms: C_12  and  N_14
REMARK   12  A    between atoms: C_15  and  C_17
REMARK   13  A    between atoms: C_17  and  N_18
REMARK   14  A    between atoms: C_19  and  C_21
REMARK                            x       y       z     vdW  Elec       q    Type
REMARK                         _______ _______ _______ _____ _____    ______ ____
ROOT
ATOM      1  C   UNL     1       2.954   4.605  18.260  0.00  0.00    +0.000 C 
ATOM      2  C   UNL     1       1.711   3.842  17.826  0.00  0.00    +0.000 C 
ENDROOT
BRANCH   1   4
ATOM      3  N   UNL     1       5.260   4.803  17.473  0.00  0.00    +0.000 N 
ATOM      4  C   UNL     1       4.225   3.927  17.720  0.00  0.00    +0.000 C 
ATOM      5  O   UNL     1       4.297   2.724  17.481  0.00  0.00    +0.000 OA
ATOM      6  H   UNL     1       5.009   5.784  17.341  0.00  0.00    +0.000 HD
BRANCH   3   7
ATOM      7  C   UNL     1       6.514   4.359  16.871  0.00  0.00    +0.000 C 
BRANCH   7   8
ATOM      8  C   UNL     1       6.427   4.582  15.349  0.00  0.00    +0.000 C 
ATOM      9  N   UNL     1       5.287   4.159  14.732  0.00  0.00    +0.000 N 
ATOM     10  O   UNL     1       7.313   5.125  14.691  0.00  0.00    +0.000 OA
ATOM     11  H   UNL     1       4.522   3.705  15.212  0.00  0.00    +0.000 HD
ATOM     12  H   UNL     1       5.216   4.304  13.734  0.00  0.00    +0.000 HD
ENDBRANCH   7   8
BRANCH   7  13
ATOM     13  C   UNL     1       7.702   5.101  17.491  0.00  0.00    +0.000 C 
BRANCH  13  14
ATOM     14  C   UNL     1       7.266   6.341  18.276  0.00  0.00    +0.000 C 
BRANCH  14  15
ATOM     15  C   UNL     1       6.822   7.449  17.355  0.00  0.00    +0.000 C 
ATOM     16  O   UNL     1       5.850   7.406  16.615  0.00  0.00    +0.000 OA
BRANCH  15  17
ATOM     17  O   UNL     1       7.735   8.460  17.404  0.00  0.00    +0.000 OA
BRANCH  17  19
ATOM     18  C   UNL     1       9.063   9.904  18.765  0.00  0.00    +0.000 C 
ATOM     19  C   UNL     1       8.556   8.484  18.581  0.00  0.00    +0.000 C 
ENDBRANCH  17  19
ENDBRANCH  15  17
ENDBRANCH  14  15
ENDBRANCH  13  14
ENDBRANCH   7  13
ENDBRANCH   3   7
ENDBRANCH   1   4
BRANCH   1  20
ATOM     20  N   UNL     1       2.924   5.974  17.768  0.00  0.00    +0.000 N 
ATOM     21  C   UNL     1       2.665   7.032  18.607  0.00  0.00    +0.000 C 
ATOM     22  O   UNL     1       2.322   6.880  19.779  0.00  0.00    +0.000 OA
ATOM     23  H   UNL     1       3.295   6.166  16.842  0.00  0.00    +0.000 HD
BRANCH  21  24
ATOM     24  C   UNL     1       2.708   8.398  17.931  0.00  0.00    +0.000 C 
BRANCH  24  25
ATOM     25  N   UNL     1       1.360   8.914  17.819  0.00  0.00    +0.000 N 
ATOM     26  C   UNL     1       0.821   9.776  18.744  0.00  0.00    +0.000 C 
ATOM     27  O   UNL     1       1.431  10.132  19.747  0.00  0.00    +0.000 OA
ATOM     28  H   UNL     1       0.913   8.831  16.916  0.00  0.00    +0.000 HD
BRANCH  26  29
ATOM     29  C   UNL     1      -0.519  10.230  18.435  0.00  0.00    +0.000 A 
ATOM     30  C   UNL     1      -1.424  10.980  19.168  0.00  0.00    +0.000 A 
ATOM     31  C   UNL     1      -2.587  11.180  18.386  0.00  0.00    +0.000 A 
ATOM     32  C   UNL     1      -3.798  11.866  18.603  0.00  0.00    +0.000 A 
ATOM     33  C   UNL     1      -4.766  11.881  17.595  0.00  0.00    +0.000 A 
ATOM     34  C   UNL     1      -4.539  11.224  16.387  0.00  0.00    +0.000 A 
ATOM     35  C   UNL     1      -3.344  10.534  16.150  0.00  0.00    +0.000 A 
ATOM     36  C   UNL     1      -2.384  10.534  17.169  0.00  0.00    +0.000 A 
ATOM     37  N   UNL     1      -1.131   9.965  17.226  0.00  0.00    +0.000 N 
ATOM     38  H   UNL     1      -0.699   9.434  16.479  0.00  0.00    +0.000 HD
ENDBRANCH  26  29
ENDBRANCH  24  25
ENDBRANCH  21  24
ENDBRANCH   1  20
TORSDOF 12
ENDMDL
MODEL 3
REMARK VINA RESULT:      -7.7      2.537      3.247
REMARK  Name = 
REMARK  14 active torsions:
REMARK  status: ('A' for Active; 'I' for Inactive)
REMARK    1  A    between atoms: C_1  and  C_2
REMARK    2  A    between atoms: C_2  and  O_3
REMARK    3  A    between atoms: O_3  and  C_4
REMARK    4  A    between atoms: C_4  and  C_6
REMARK    5  A    between atoms: C_6  and  C_7
REMARK    6  A    between atoms: C_7  and  C_8
REMARK    7  A    between atoms: C_8  and  N_9
REMARK    8  A    between atoms: C_8  and  C_30
REMARK    9  A    between atoms: C_10  and  C_12
REMARK   10  A    between atoms: C_12  and  C_13
REMARK   11  A    between atoms: C_12  and  N_14
REMARK   12  A    between atoms: C_15  and  C_17
REMARK   13  A    between atoms: C_17  and  N_18
REMARK   14  A    between atoms: C_19  and  C_21
REMARK                            x       y       z     vdW  Elec       q    Type
REMARK                         _______ _______ _______ _____ _____    ______ ____
ROOT
ATOM      1  C   UNL     1       2.670   6.306  20.011  0.00  0.00    +0.000 C 
ATOM      2  C   UNL     1       1.426   5.541  20.437  0.00  0.00    +0.000 C 
ENDROOT
BRANCH   1   4
ATOM      3  N   UNL     1       3.263   4.329  18.700  0.00  0.00    +0.000 N 
ATOM      4  C   UNL     1       3.753   5.339  19.500  0.00  0.00    +0.000 C 
ATOM      5  O   UNL     1       4.937   5.428  19.813  0.00  0.00    +0.000 OA
ATOM      6  H   UNL     1       2.269   4.112  18.793  0.00  0.00    +0.000 HD
BRANCH   3   7
ATOM      7  C   UNL     1       4.125   3.264  18.197  0.00  0.00    +0.000 C 
BRANCH   7   8
ATOM      8  C   UNL     1       3.443   1.912  18.483  0.00  0.00    +0.000 C 
ATOM      9  N   UNL     1       4.230   0.800  18.403  0.00  0.00    +0.000 N 
ATOM     10  O   UNL     1       2.257   1.801  18.787  0.00  0.00    +0.000 OA
ATOM     11  H   UNL     1       5.210   0.821  18.158  0.00  0.00    +0.000 HD
ATOM     12  H   UNL     1       3.795  -0.092  18.593  0.00  0.00    +0.000 HD
ENDBRANCH   7   8
BRANCH   7  13
ATOM     13  C   UNL     1       4.404   3.458  16.703  0.00  0.00    +0.000 C 
BRANCH  13  14
ATOM     14  C   UNL     1       4.899   4.871  16.383  0.00  0.00    +0.000 C 
BRANCH  14  15
ATOM     15  C   UNL     1       6.359   4.870  16.003  0.00  0.00    +0.000 C 
ATOM     16  O   UNL     1       7.268   4.430  16.691  0.00  0.00    +0.000 OA
BRANCH  15  17
ATOM     17  O   UNL     1       6.510   5.531  14.820  0.00  0.00    +0.000 OA
BRANCH  17  19
ATOM     18  C   UNL     1       6.183   3.760  13.254  0.00  0.00    +0.000 C 
ATOM     19  C   UNL     1       7.168   4.788  13.786  0.00  0.00    +0.000 C 
ENDBRANCH  17  19
ENDBRANCH  15  17
ENDBRANCH  14  15
ENDBRANCH  13  14
ENDBRANCH   7  13
ENDBRANCH   3   7
ENDBRANCH   1   4
BRANCH   1  20
ATOM     20  N   UNL     1       2.364   7.250  18.948  0.00  0.00    +0.000 N 
ATOM     21  C   UNL     1       1.836   8.490  19.221  0.00  0.00    +0.000 C 
ATOM     22  O   UNL     1       1.478   8.824  20.349  0.00  0.00    +0.000 OA
ATOM     23  H   UNL     1       2.728   7.070  18.017  0.00  0.00    +0.000 HD
BRANCH  21  24
ATOM     24  C   UNL     1       1.611   9.364  17.992  0.00  0.00    +0.000 C 
BRANCH  24  25
ATOM     25  N   UNL     1       0.229   9.797  17.965  0.00  0.00    +0.000 N 
ATOM     26  C   UNL     1      -0.171  11.014  18.462  0.00  0.00    +0.000 C 
ATOM     27  O   UNL     1       0.607  11.796  18.999  0.00  0.00    +0.000 OA
ATOM     28  H   UNL     1      -0.393   9.298  17.345  0.00  0.00    +0.000 HD
BRANCH  26  29
ATOM     29  C   UNL     1      -1.582  11.296  18.297  0.00  0.00    +0.000 A 
ATOM     30  C   UNL     1      -2.434  11.107  17.221  0.00  0.00    +0.000 A 
ATOM     31  C   UNL     1      -3.737  11.518  17.596  0.00  0.00    +0.000 A 
ATOM     32  C   UNL     1      -4.979  11.536  16.932  0.00  0.00    +0.000 A 
ATOM     33  C   UNL     1      -6.109  12.007  17.607  0.00  0.00    +0.000 A 
ATOM     34  C   UNL     1      -6.010  12.456  18.923  0.00  0.00    +0.000 A 
ATOM     35  C   UNL     1      -4.786  12.448  19.602  0.00  0.00    +0.000 A 
ATOM     36  C   UNL     1      -3.666  11.969  18.912  0.00  0.00    +0.000 A 
ATOM     37  N   UNL     1      -2.354  11.829  19.309  0.00  0.00    +0.000 N 
ATOM     38  H   UNL     1      -1.997  12.066  20.227  0.00  0.00    +0.000 HD
ENDBRANCH  26  29
ENDBRANCH  24  25
ENDBRANCH  21  24
ENDBRANCH   1  20
TORSDOF 12
ENDMDL
MODEL 4
REMARK VINA RESULT:      -7.6      2.987      4.179
REMARK  Name = 
REMARK  14 active torsions:
REMARK  status: ('A' for Active; 'I' for Inactive)
REMARK    1  A    between atoms: C_1  and  C_2
REMARK    2  A    between atoms: C_2  and  O_3
REMARK    3  A    between atoms: O_3  and  C_4
REMARK    4  A    between atoms: C_4  and  C_6
REMARK    5  A    between atoms: C_6  and  C_7
REMARK    6  A    between atoms: C_7  and  C_8
REMARK    7  A    between atoms: C_8  and  N_9
REMARK    8  A    between atoms: C_8  and  C_30
REMARK    9  A    between atoms: C_10  and  C_12
REMARK   10  A    between atoms: C_12  and  C_13
REMARK   11  A    between atoms: C_12  and  N_14
REMARK   12  A    between atoms: C_15  and  C_17
REMARK   13  A    between atoms: C_17  and  N_18
REMARK   14  A    between atoms: C_19  and  C_21
REMARK                            x       y       z     vdW  Elec       q    Type
REMARK                         _______ _______ _______ _____ _____    ______ ____
ROOT
ATOM      1  C   UNL     1       2.705   5.660  18.521  0.00  0.00    +0.000 C 
ATOM      2  C   UNL     1       2.161   4.519  17.674  0.00  0.00    +0.000 C 
ENDROOT
BRANCH   1   4
ATOM      3  N   UNL     1       4.977   6.033  17.699  0.00  0.00    +0.000 N 
ATOM      4  C   UNL     1       4.223   5.509  18.727  0.00  0.00    +0.000 C 
ATOM      5  O   UNL     1       4.717   4.931  19.691  0.00  0.00    +0.000 OA
ATOM      6  H   UNL     1       4.508   6.149  16.799  0.00  0.00    +0.000 HD
BRANCH   3   7
ATOM      7  C   UNL     1       6.431   5.903  17.672  0.00  0.00    +0.000 C 
BRANCH   7   8
ATOM      8  C   UNL     1       6.798   4.773  16.691  0.00  0.00    +0.000 C 
ATOM      9  N   UNL     1       5.934   3.720  16.619  0.00  0.00    +0.000 N 
ATOM     10  O   UNL     1       7.801   4.791  15.980  0.00  0.00    +0.000 OA
ATOM     11  H   UNL     1       5.094   3.642  17.175  0.00  0.00    +0.000 HD
ATOM     12  H   UNL     1       6.162   2.974  15.976  0.00  0.00    +0.000 HD
ENDBRANCH   7   8
BRANCH   7  13
ATOM     13  C   UNL     1       7.083   7.233  17.283  0.00  0.00    +0.000 C 
BRANCH  13  14
ATOM     14  C   UNL     1       8.194   7.642  18.255  0.00  0.00    +0.000 C 
BRANCH  14  15
ATOM     15  C   UNL     1       8.369   9.140  18.292  0.00  0.00    +0.000 C 
ATOM     16  O   UNL     1       7.785   9.938  17.575  0.00  0.00    +0.000 OA
BRANCH  15  17
ATOM     17  O   UNL     1       9.358   9.448  19.179  0.00  0.00    +0.000 OA
BRANCH  17  19
ATOM     18  C   UNL     1      10.773  11.370  19.180  0.00  0.00    +0.000 C 
ATOM     19  C   UNL     1       9.412  10.825  19.578  0.00  0.00    +0.000 C 
ENDBRANCH  17  19
ENDBRANCH  15  17
ENDBRANCH  14  15
ENDBRANCH  13  14
ENDBRANCH   7  13
ENDBRANCH   3   7
ENDBRANCH   1   4
BRANCH   1  20
ATOM     20  N   UNL     1       2.457   6.945  17.886  0.00  0.00    +0.000 N 
ATOM     21  C   UNL     1       2.125   8.057  18.623  0.00  0.00    +0.000 C 
ATOM     22  O   UNL     1       1.896   8.008  19.830  0.00  0.00    +0.000 OA
ATOM     23  H   UNL     1       2.728   7.068  16.914  0.00  0.00    +0.000 HD
BRANCH  21  24
ATOM     24  C   UNL     1       1.937   9.327  17.799  0.00  0.00    +0.000 C 
BRANCH  24  25
ATOM     25  N   UNL     1       0.573   9.790  17.948  0.00  0.00    +0.000 N 
ATOM     26  C   UNL     1       0.240  10.862  18.739  0.00  0.00    +0.000 C 
ATOM     27  O   UNL     1       1.070  11.472  19.406  0.00  0.00    +0.000 OA
ATOM     28  H   UNL     1      -0.095   9.470  17.259  0.00  0.00    +0.000 HD
BRANCH  26  29
ATOM     29  C   UNL     1      -1.165  11.213  18.719  0.00  0.00    +0.000 A 
ATOM     30  C   UNL     1      -1.944  11.922  19.618  0.00  0.00    +0.000 A 
ATOM     31  C   UNL     1      -3.260  12.017  19.102  0.00  0.00    +0.000 A 
ATOM     32  C   UNL     1      -4.443  12.625  19.563  0.00  0.00    +0.000 A 
ATOM     33  C   UNL     1      -5.603  12.542  18.787  0.00  0.00    +0.000 A 
ATOM     34  C   UNL     1      -5.592  11.864  17.570  0.00  0.00    +0.000 A 
ATOM     35  C   UNL     1      -4.427  11.250  17.092  0.00  0.00    +0.000 A 
ATOM     36  C   UNL     1      -3.274  11.348  17.880  0.00  0.00    +0.000 A 
ATOM     37  N   UNL     1      -1.999  10.868  17.675  0.00  0.00    +0.000 N 
ATOM     38  H   UNL     1      -1.699  10.345  16.861  0.00  0.00    +0.000 HD
ENDBRANCH  26  29
ENDBRANCH  24  25
ENDBRANCH  21  24
ENDBRANCH   1  20
TORSDOF 12
ENDMDL
MODEL 5
REMARK VINA RESULT:      -7.6      2.144      3.178
REMARK  Name = 
REMARK  14 active torsions:
REMARK  status: ('A' for Active; 'I' for Inactive)
REMARK    1  A    between atoms: C_1  and  C_2
REMARK    2  A    between atoms: C_2  and  O_3
REMARK    3  A    between atoms: O_3  and  C_4
REMARK    4  A    between atoms: C_4  and  C_6
REMARK    5  A    between atoms: C_6  and  C_7
REMARK    6  A    between atoms: C_7  and  C_8
REMARK    7  A    between atoms: C_8  and  N_9
REMARK    8  A    between atoms: C_8  and  C_30
REMARK    9  A    between atoms: C_10  and  C_12
REMARK   10  A    between atoms: C_12  and  C_13
REMARK   11  A    between atoms: C_12  and  N_14
REMARK   12  A    between atoms: C_15  and  C_17
REMARK   13  A    between atoms: C_17  and  N_18
REMARK   14  A    between atoms: C_19  and  C_21
REMARK                            x       y       z     vdW  Elec       q    Type
REMARK                         _______ _______ _______ _____ _____    ______ ____
ROOT
ATOM      1  C   UNL     1       3.022   6.694  18.672  0.00  0.00    +0.000 C 
ATOM      2  C   UNL     1       2.078   5.502  18.732  0.00  0.00    +0.000 C 
ENDROOT
BRANCH   1   4
ATOM      3  N   UNL     1       4.923   5.376  17.881  0.00  0.00    +0.000 N 
ATOM      4  C   UNL     1       4.120   6.465  17.618  0.00  0.00    +0.000 C 
ATOM      5  O   UNL     1       4.299   7.211  16.659  0.00  0.00    +0.000 OA
ATOM      6  H   UNL     1       4.950   5.048  18.848  0.00  0.00    +0.000 HD
BRANCH   3   7
ATOM      7  C   UNL     1       6.074   5.053  17.045  0.00  0.00    +0.000 C 
BRANCH   7   8
ATOM      8  C   UNL     1       7.265   4.723  17.966  0.00  0.00    +0.000 C 
ATOM      9  N   UNL     1       7.150   5.096  19.273  0.00  0.00    +0.000 N 
ATOM     10  O   UNL     1       8.278   4.140  17.584  0.00  0.00    +0.000 OA
ATOM     11  H   UNL     1       6.346   5.578  19.652  0.00  0.00    +0.000 HD
ATOM     12  H   UNL     1       7.922   4.882  19.888  0.00  0.00    +0.000 HD
ENDBRANCH   7   8
BRANCH   7  13
ATOM     13  C   UNL     1       5.746   3.894  16.099  0.00  0.00    +0.000 C 
BRANCH  13  14
ATOM     14  C   UNL     1       5.521   4.365  14.659  0.00  0.00    +0.000 C 
BRANCH  14  15
ATOM     15  C   UNL     1       6.828   4.581  13.939  0.00  0.00    +0.000 C 
ATOM     16  O   UNL     1       7.718   5.336  14.301  0.00  0.00    +0.000 OA
BRANCH  15  17
ATOM     17  O   UNL     1       6.812   3.879  12.770  0.00  0.00    +0.000 OA
BRANCH  17  19
ATOM     18  C   UNL     1       5.680   2.160  11.562  0.00  0.00    +0.000 C 
ATOM     19  C   UNL     1       5.513   3.461  12.328  0.00  0.00    +0.000 C 
ENDBRANCH  17  19
ENDBRANCH  15  17
ENDBRANCH  14  15
ENDBRANCH  13  14
ENDBRANCH   7  13
ENDBRANCH   3   7
ENDBRANCH   1   4
BRANCH   1  20
ATOM     20  N   UNL     1       2.304   7.910  18.324  0.00  0.00    +0.000 N 
ATOM     21  C   UNL     1       1.702   8.688  19.285  0.00  0.00    +0.000 C 
ATOM     22  O   UNL     1       1.625   8.343  20.463  0.00  0.00    +0.000 OA
ATOM     23  H   UNL     1       2.419   8.293  17.390  0.00  0.00    +0.000 HD
BRANCH  21  24
ATOM     24  C   UNL     1       1.026   9.944  18.748  0.00  0.00    +0.000 C 
BRANCH  24  25
ATOM     25  N   UNL     1       0.190  10.513  19.786  0.00  0.00    +0.000 N 
ATOM     26  C   UNL     1       0.584  11.591  20.541  0.00  0.00    +0.000 C 
ATOM     27  O   UNL     1       1.686  12.116  20.417  0.00  0.00    +0.000 OA
ATOM     28  H   UNL     1      -0.789  10.264  19.770  0.00  0.00    +0.000 HD
BRANCH  26  29
ATOM     29  C   UNL     1      -0.406  12.055  21.491  0.00  0.00    +0.000 A 
ATOM     30  C   UNL     1      -1.567  11.466  21.965  0.00  0.00    +0.000 A 
ATOM     31  C   UNL     1      -2.158  12.330  22.918  0.00  0.00    +0.000 A 
ATOM     32  C   UNL     1      -3.312  12.247  23.721  0.00  0.00    +0.000 A 
ATOM     33  C   UNL     1      -3.617  13.298  24.591  0.00  0.00    +0.000 A 
ATOM     34  C   UNL     1      -2.790  14.418  24.665  0.00  0.00    +0.000 A 
ATOM     35  C   UNL     1      -1.639  14.522  23.875  0.00  0.00    +0.000 A 
ATOM     36  C   UNL     1      -1.347  13.459  23.013  0.00  0.00    +0.000 A 
ATOM     37  N   UNL     1      -0.299  13.269  22.138  0.00  0.00    +0.000 N 
ATOM     38  H   UNL     1       0.462  13.921  21.994  0.00  0.00    +0.000 HD
ENDBRANCH  26  29
ENDBRANCH  24  25
ENDBRANCH  21  24
ENDBRANCH   1  20
TORSDOF 12
ENDMDL
MODEL 6
REMARK VINA RESULT:      -7.5      5.382      9.404
REMARK  Name = 
REMARK  14 active torsions:
REMARK  status: ('A' for Active; 'I' for Inactive)
REMARK    1  A    between atoms: C_1  and  C_2
REMARK    2  A    between atoms: C_2  and  O_3
REMARK    3  A    between atoms: O_3  and  C_4
REMARK    4  A    between atoms: C_4  and  C_6
REMARK    5  A    between atoms: C_6  and  C_7
REMARK    6  A    between atoms: C_7  and  C_8
REMARK    7  A    between atoms: C_8  and  N_9
REMARK    8  A    between atoms: C_8  and  C_30
REMARK    9  A    between atoms: C_10  and  C_12
REMARK   10  A    between atoms: C_12  and  C_13
REMARK   11  A    between atoms: C_12  and  N_14
REMARK   12  A    between atoms: C_15  and  C_17
REMARK   13  A    between atoms: C_17  and  N_18
REMARK   14  A    between atoms: C_19  and  C_21
REMARK                            x       y       z     vdW  Elec       q    Type
REMARK                         _______ _______ _______ _____ _____    ______ ____
ROOT
ATOM      1  C   UNL     1       6.539   6.092  17.292  0.00  0.00    +0.000 C 
ATOM      2  C   UNL     1       7.127   4.918  16.524  0.00  0.00    +0.000 C 
ENDROOT
BRANCH   1   4
ATOM      3  N   UNL     1       4.156   5.831  17.775  0.00  0.00    +0.000 N 
ATOM      4  C   UNL     1       5.433   5.616  18.250  0.00  0.00    +0.000 C 
ATOM      5  O   UNL     1       5.661   5.136  19.357  0.00  0.00    +0.000 OA
ATOM      6  H   UNL     1       4.050   6.546  17.053  0.00  0.00    +0.000 HD
BRANCH   3   7
ATOM      7  C   UNL     1       2.978   5.530  18.582  0.00  0.00    +0.000 C 
BRANCH   7   8
ATOM      8  C   UNL     1       2.517   6.829  19.272  0.00  0.00    +0.000 C 
ATOM      9  N   UNL     1       2.128   6.724  20.576  0.00  0.00    +0.000 N 
ATOM     10  O   UNL     1       2.502   7.925  18.715  0.00  0.00    +0.000 OA
ATOM     11  H   UNL     1       2.116   5.856  21.092  0.00  0.00    +0.000 HD
ATOM     12  H   UNL     1       1.828   7.570  21.041  0.00  0.00    +0.000 HD
ENDBRANCH   7   8
BRANCH   7  13
ATOM     13  C   UNL     1       1.872   4.922  17.713  0.00  0.00    +0.000 C 
BRANCH  13  14
ATOM     14  C   UNL     1       1.652   3.435  18.009  0.00  0.00    +0.000 C 
BRANCH  14  15
ATOM     15  C   UNL     1       1.331   3.204  19.464  0.00  0.00    +0.000 C 
ATOM     16  O   UNL     1       0.583   3.894  20.140  0.00  0.00    +0.000 OA
BRANCH  15  17
ATOM     17  O   UNL     1       2.088   2.169  19.926  0.00  0.00    +0.000 OA
BRANCH  17  19
ATOM     18  C   UNL     1       4.459   2.051  20.179  0.00  0.00    +0.000 C 
ATOM     19  C   UNL     1       3.302   1.930  19.201  0.00  0.00    +0.000 C 
ENDBRANCH  17  19
ENDBRANCH  15  17
ENDBRANCH  14  15
ENDBRANCH  13  14
ENDBRANCH   7  13
ENDBRANCH   3   7
ENDBRANCH   1   4
BRANCH   1  20
ATOM     20  N   UNL     1       7.562   6.766  18.077  0.00  0.00    +0.000 N 
ATOM     21  C   UNL     1       7.781   8.119  17.959  0.00  0.00    +0.000 C 
ATOM     22  O   UNL     1       7.224   8.808  17.106  0.00  0.00    +0.000 OA
ATOM     23  H   UNL     1       7.978   6.272  18.861  0.00  0.00    +0.000 HD
BRANCH  21  24
ATOM     24  C   UNL     1       8.865   8.665  18.882  0.00  0.00    +0.000 C 
BRANCH  24  25
ATOM     25  N   UNL     1       9.155  10.035  18.513  0.00  0.00    +0.000 N 
ATOM     26  C   UNL     1       9.400  11.013  19.446  0.00  0.00    +0.000 C 
ATOM     27  O   UNL     1       9.349  10.801  20.654  0.00  0.00    +0.000 OA
ATOM     28  H   UNL     1       9.424  10.202  17.554  0.00  0.00    +0.000 HD
BRANCH  26  29
ATOM     29  C   UNL     1       9.727  12.309  18.888  0.00  0.00    +0.000 A 
ATOM     30  C   UNL     1      10.496  12.668  17.793  0.00  0.00    +0.000 A 
ATOM     31  C   UNL     1      10.461  14.077  17.656  0.00  0.00    +0.000 A 
ATOM     32  C   UNL     1      11.029  14.977  16.734  0.00  0.00    +0.000 A 
ATOM     33  C   UNL     1      10.786  16.346  16.876  0.00  0.00    +0.000 A 
ATOM     34  C   UNL     1       9.991  16.819  17.919  0.00  0.00    +0.000 A 
ATOM     35  C   UNL     1       9.417  15.942  18.849  0.00  0.00    +0.000 A 
ATOM     36  C   UNL     1       9.668  14.574  18.687  0.00  0.00    +0.000 A 
ATOM     37  N   UNL     1       9.241  13.487  19.419  0.00  0.00    +0.000 N 
ATOM     38  H   UNL     1       8.637  13.535  20.231  0.00  0.00    +0.000 HD
ENDBRANCH  26  29
ENDBRANCH  24  25
ENDBRANCH  21  24
ENDBRANCH   1  20
TORSDOF 12
ENDMDL
MODEL 7
REMARK VINA RESULT:      -7.5      3.809      5.092
REMARK  Name = 
REMARK  14 active torsions:
REMARK  status: ('A' for Active; 'I' for Inactive)
REMARK    1  A    between atoms: C_1  and  C_2
REMARK    2  A    between atoms: C_2  and  O_3
REMARK    3  A    between atoms: O_3  and  C_4
REMARK    4  A    between atoms: C_4  and  C_6
REMARK    5  A    between atoms: C_6  and  C_7
REMARK    6  A    between atoms: C_7  and  C_8
REMARK    7  A    between atoms: C_8  and  N_9
REMARK    8  A    between atoms: C_8  and  C_30
REMARK    9  A    between atoms: C_10  and  C_12
REMARK   10  A    between atoms: C_12  and  C_13
REMARK   11  A    between atoms: C_12  and  N_14
REMARK   12  A    between atoms: C_15  and  C_17
REMARK   13  A    between atoms: C_17  and  N_18
REMARK   14  A    between atoms: C_19  and  C_21
REMARK                            x       y       z     vdW  Elec       q    Type
REMARK                         _______ _______ _______ _____ _____    ______ ____
ROOT
ATOM      1  C   UNL     1       2.774   6.267  19.951  0.00  0.00    +0.000 C 
ATOM      2  C   UNL     1       1.605   5.444  20.469  0.00  0.00    +0.000 C 
ENDROOT
BRANCH   1   4
ATOM      3  N   UNL     1       3.421   4.380  18.538  0.00  0.00    +0.000 N 
ATOM      4  C   UNL     1       3.882   5.352  19.400  0.00  0.00    +0.000 C 
ATOM      5  O   UNL     1       5.060   5.443  19.734  0.00  0.00    +0.000 OA
ATOM      6  H   UNL     1       2.431   4.140  18.604  0.00  0.00    +0.000 HD
BRANCH   3   7
ATOM      7  C   UNL     1       4.309   3.361  17.986  0.00  0.00    +0.000 C 
BRANCH   7   8
ATOM      8  C   UNL     1       3.549   2.021  17.954  0.00  0.00    +0.000 C 
ATOM      9  N   UNL     1       4.222   0.925  18.411  0.00  0.00    +0.000 N 
ATOM     10  O   UNL     1       2.390   1.907  17.560  0.00  0.00    +0.000 OA
ATOM     11  H   UNL     1       5.174   0.948  18.748  0.00  0.00    +0.000 HD
ATOM     12  H   UNL     1       3.733   0.040  18.399  0.00  0.00    +0.000 HD
ENDBRANCH   7   8
BRANCH   7  13
ATOM     13  C   UNL     1       4.801   3.771  16.595  0.00  0.00    +0.000 C 
BRANCH  13  14
ATOM     14  C   UNL     1       6.273   4.196  16.600  0.00  0.00    +0.000 C 
BRANCH  14  15
ATOM     15  C   UNL     1       6.790   4.411  15.200  0.00  0.00    +0.000 C 
ATOM     16  O   UNL     1       7.487   5.348  14.841  0.00  0.00    +0.000 OA
BRANCH  15  17
ATOM     17  O   UNL     1       6.269   3.452  14.383  0.00  0.00    +0.000 OA
BRANCH  17  19
ATOM     18  C   UNL     1       6.731   3.552  12.043  0.00  0.00    +0.000 C 
ATOM     19  C   UNL     1       5.746   3.932  13.136  0.00  0.00    +0.000 C 
ENDBRANCH  17  19
ENDBRANCH  15  17
ENDBRANCH  14  15
ENDBRANCH  13  14
ENDBRANCH   7  13
ENDBRANCH   3   7
ENDBRANCH   1   4
BRANCH   1  20
ATOM     20  N   UNL     1       2.351   7.161  18.884  0.00  0.00    +0.000 N 
ATOM     21  C   UNL     1       1.744   8.365  19.156  0.00  0.00    +0.000 C 
ATOM     22  O   UNL     1       1.413   8.698  20.293  0.00  0.00    +0.000 OA
ATOM     23  H   UNL     1       2.686   6.987  17.941  0.00  0.00    +0.000 HD
BRANCH  21  24
ATOM     24  C   UNL     1       1.400   9.191  17.921  0.00  0.00    +0.000 C 
BRANCH  24  25
ATOM     25  N   UNL     1       1.905  10.537  18.096  0.00  0.00    +0.000 N 
ATOM     26  C   UNL     1       1.117  11.568  18.546  0.00  0.00    +0.000 C 
ATOM     27  O   UNL     1      -0.078  11.427  18.790  0.00  0.00    +0.000 OA
ATOM     28  H   UNL     1       2.910  10.646  18.124  0.00  0.00    +0.000 HD
BRANCH  26  29
ATOM     29  C   UNL     1       1.810  12.828  18.711  0.00  0.00    +0.000 A 
ATOM     30  C   UNL     1       1.569  13.903  19.550  0.00  0.00    +0.000 A 
ATOM     31  C   UNL     1       2.575  14.878  19.341  0.00  0.00    +0.000 A 
ATOM     32  C   UNL     1       2.842  16.137  19.914  0.00  0.00    +0.000 A 
ATOM     33  C   UNL     1       3.955  16.863  19.479  0.00  0.00    +0.000 A 
ATOM     34  C   UNL     1       4.792  16.350  18.490  0.00  0.00    +0.000 A 
ATOM     35  C   UNL     1       4.545  15.102  17.906  0.00  0.00    +0.000 A 
ATOM     36  C   UNL     1       3.428  14.387  18.356  0.00  0.00    +0.000 A 
ATOM     37  N   UNL     1       2.942  13.151  17.990  0.00  0.00    +0.000 N 
ATOM     38  H   UNL     1       3.362  12.544  17.296  0.00  0.00    +0.000 HD
ENDBRANCH  26  29
ENDBRANCH  24  25
ENDBRANCH  21  24
ENDBRANCH   1  20
TORSDOF 12
ENDMDL
MODEL 8
REMARK VINA RESULT:      -7.4      2.156      3.138
REMARK  Name = 
REMARK  14 active torsions:
REMARK  status: ('A' for Active; 'I' for Inactive)
REMARK    1  A    between atoms: C_1  and  C_2
REMARK    2  A    between atoms: C_2  and  O_3
REMARK    3  A    between atoms: O_3  and  C_4
REMARK    4  A    between atoms: C_4  and  C_6
REMARK    5  A    between atoms: C_6  and  C_7
REMARK    6  A    between atoms: C_7  and  C_8
REMARK    7  A    between atoms: C_8  and  N_9
REMARK    8  A    between atoms: C_8  and  C_30
REMARK    9  A    between atoms: C_10  and  C_12
REMARK   10  A    between atoms: C_12  and  C_13
REMARK   11  A    between atoms: C_12  and  N_14
REMARK   12  A    between atoms: C_15  and  C_17
REMARK   13  A    between atoms: C_17  and  N_18
REMARK   14  A    between atoms: C_19  and  C_21
REMARK                            x       y       z     vdW  Elec       q    Type
REMARK                         _______ _______ _______ _____ _____    ______ ____
ROOT
ATOM      1  C   UNL     1       2.836   6.759  18.751  0.00  0.00    +0.000 C 
ATOM      2  C   UNL     1       1.933   5.536  18.692  0.00  0.00    +0.000 C 
ENDROOT
BRANCH   1   4
ATOM      3  N   UNL     1       4.829   5.516  18.069  0.00  0.00    +0.000 N 
ATOM      4  C   UNL     1       4.027   6.602  17.789  0.00  0.00    +0.000 C 
ATOM      5  O   UNL     1       4.272   7.397  16.885  0.00  0.00    +0.000 OA
ATOM      6  H   UNL     1       4.779   5.143  19.019  0.00  0.00    +0.000 HD
BRANCH   3   7
ATOM      7  C   UNL     1       6.056   5.257  17.323  0.00  0.00    +0.000 C 
BRANCH   7   8
ATOM      8  C   UNL     1       7.163   4.879  18.327  0.00  0.00    +0.000 C 
ATOM      9  N   UNL     1       8.231   4.191  17.829  0.00  0.00    +0.000 N 
ATOM     10  O   UNL     1       7.129   5.178  19.519  0.00  0.00    +0.000 OA
ATOM     11  H   UNL     1       8.322   3.914  16.862  0.00  0.00    +0.000 HD
ATOM     12  H   UNL     1       8.966   3.941  18.477  0.00  0.00    +0.000 HD
ENDBRANCH   7   8
BRANCH   7  13
ATOM     13  C   UNL     1       5.831   4.157  16.281  0.00  0.00    +0.000 C 
BRANCH  13  14
ATOM     14  C   UNL     1       5.565   4.726  14.884  0.00  0.00    +0.000 C 
BRANCH  14  15
ATOM     15  C   UNL     1       6.818   4.736  14.046  0.00  0.00    +0.000 C 
ATOM     16  O   UNL     1       7.818   5.400  14.277  0.00  0.00    +0.000 OA
BRANCH  15  17
ATOM     17  O   UNL     1       6.617   3.969  12.937  0.00  0.00    +0.000 OA
BRANCH  17  19
ATOM     18  C   UNL     1       5.168   2.838  11.413  0.00  0.00    +0.000 C 
ATOM     19  C   UNL     1       5.304   3.404  12.817  0.00  0.00    +0.000 C 
ENDBRANCH  17  19
ENDBRANCH  15  17
ENDBRANCH  14  15
ENDBRANCH  13  14
ENDBRANCH   7  13
ENDBRANCH   3   7
ENDBRANCH   1   4
BRANCH   1  20
ATOM     20  N   UNL     1       2.109   7.963  18.383  0.00  0.00    +0.000 N 
ATOM     21  C   UNL     1       1.568   8.794  19.336  0.00  0.00    +0.000 C 
ATOM     22  O   UNL     1       1.556   8.510  20.532  0.00  0.00    +0.000 OA
ATOM     23  H   UNL     1       2.173   8.297  17.426  0.00  0.00    +0.000 HD
BRANCH  21  24
ATOM     24  C   UNL     1       0.872  10.029  18.774  0.00  0.00    +0.000 C 
BRANCH  24  25
ATOM     25  N   UNL     1      -0.091  10.511  19.743  0.00  0.00    +0.000 N 
ATOM     26  C   UNL     1      -0.740  11.714  19.601  0.00  0.00    +0.000 C 
ATOM     27  O   UNL     1      -0.515  12.478  18.668  0.00  0.00    +0.000 OA
ATOM     28  H   UNL     1      -0.465   9.832  20.391  0.00  0.00    +0.000 HD
BRANCH  26  29
ATOM     29  C   UNL     1      -1.707  12.002  20.639  0.00  0.00    +0.000 A 
ATOM     30  C   UNL     1      -1.634  11.885  22.018  0.00  0.00    +0.000 A 
ATOM     31  C   UNL     1      -2.853  12.340  22.577  0.00  0.00    +0.000 A 
ATOM     32  C   UNL     1      -3.328  12.467  23.897  0.00  0.00    +0.000 A 
ATOM     33  C   UNL     1      -4.612  12.977  24.116  0.00  0.00    +0.000 A 
ATOM     34  C   UNL     1      -5.415  13.355  23.042  0.00  0.00    +0.000 A 
ATOM     35  C   UNL     1      -4.963  13.237  21.721  0.00  0.00    +0.000 A 
ATOM     36  C   UNL     1      -3.674  12.728  21.522  0.00  0.00    +0.000 A 
ATOM     37  N   UNL     1      -2.961  12.510  20.363  0.00  0.00    +0.000 N 
ATOM     38  H   UNL     1      -3.296  12.709  19.428  0.00  0.00    +0.000 HD
ENDBRANCH  26  29
ENDBRANCH  24  25
ENDBRANCH  21  24
ENDBRANCH   1  20
TORSDOF 12
ENDMDL
MODEL 9
REMARK VINA RESULT:      -7.4      2.426      3.116
REMARK  Name = 
REMARK  14 active torsions:
REMARK  status: ('A' for Active; 'I' for Inactive)
REMARK    1  A    between atoms: C_1  and  C_2
REMARK    2  A    between atoms: C_2  and  O_3
REMARK    3  A    between atoms: O_3  and  C_4
REMARK    4  A    between atoms: C_4  and  C_6
REMARK    5  A    between atoms: C_6  and  C_7
REMARK    6  A    between atoms: C_7  and  C_8
REMARK    7  A    between atoms: C_8  and  N_9
REMARK    8  A    between atoms: C_8  and  C_30
REMARK    9  A    between atoms: C_10  and  C_12
REMARK   10  A    between atoms: C_12  and  C_13
REMARK   11  A    between atoms: C_12  and  N_14
REMARK   12  A    between atoms: C_15  and  C_17
REMARK   13  A    between atoms: C_17  and  N_18
REMARK   14  A    between atoms: C_19  and  C_21
REMARK                            x       y       z     vdW  Elec       q    Type
REMARK                         _______ _______ _______ _____ _____    ______ ____
ROOT
ATOM      1  C   UNL     1       2.146   7.399  18.477  0.00  0.00    +0.000 C 
ATOM      2  C   UNL     1       3.395   7.759  17.687  0.00  0.00    +0.000 C 
ENDROOT
BRANCH   1   4
ATOM      3  N   UNL     1       3.036   5.128  18.648  0.00  0.00    +0.000 N 
ATOM      4  C   UNL     1       2.385   6.136  19.325  0.00  0.00    +0.000 C 
ATOM      5  O   UNL     1       1.988   6.017  20.481  0.00  0.00    +0.000 OA
ATOM      6  H   UNL     1       2.995   5.159  17.627  0.00  0.00    +0.000 HD
BRANCH   3   7
ATOM      7  C   UNL     1       3.270   3.822  19.257  0.00  0.00    +0.000 C 
BRANCH   7   8
ATOM      8  C   UNL     1       2.433   2.775  18.496  0.00  0.00    +0.000 C 
ATOM      9  N   UNL     1       2.927   1.503  18.464  0.00  0.00    +0.000 N 
ATOM     10  O   UNL     1       1.364   3.030  17.946  0.00  0.00    +0.000 OA
ATOM     11  H   UNL     1       3.798   1.226  18.894  0.00  0.00    +0.000 HD
ATOM     12  H   UNL     1       2.385   0.806  17.971  0.00  0.00    +0.000 HD
ENDBRANCH   7   8
BRANCH   7  13
ATOM     13  C   UNL     1       4.763   3.480  19.243  0.00  0.00    +0.000 C 
BRANCH  13  14
ATOM     14  C   UNL     1       5.546   4.339  18.246  0.00  0.00    +0.000 C 
BRANCH  14  15
ATOM     15  C   UNL     1       6.494   5.276  18.950  0.00  0.00    +0.000 C 
ATOM     16  O   UNL     1       7.058   5.046  20.010  0.00  0.00    +0.000 OA
BRANCH  15  17
ATOM     17  O   UNL     1       6.538   6.457  18.270  0.00  0.00    +0.000 OA
BRANCH  17  19
ATOM     18  C   UNL     1       7.774   8.412  17.681  0.00  0.00    +0.000 C 
ATOM     19  C   UNL     1       7.854   6.915  17.928  0.00  0.00    +0.000 C 
ENDBRANCH  17  19
ENDBRANCH  15  17
ENDBRANCH  14  15
ENDBRANCH  13  14
ENDBRANCH   7  13
ENDBRANCH   3   7
ENDBRANCH   1   4
BRANCH   1  20
ATOM     20  N   UNL     1       1.764   8.481  19.370  0.00  0.00    +0.000 N 
ATOM     21  C   UNL     1       1.042   9.561  18.920  0.00  0.00    +0.000 C 
ATOM     22  O   UNL     1       0.789   9.739  17.729  0.00  0.00    +0.000 OA
ATOM     23  H   UNL     1       1.856   8.341  20.372  0.00  0.00    +0.000 HD
BRANCH  21  24
ATOM     24  C   UNL     1       0.697  10.583  19.997  0.00  0.00    +0.000 C 
BRANCH  24  25
ATOM     25  N   UNL     1      -0.720  10.880  19.932  0.00  0.00    +0.000 N 
ATOM     26  C   UNL     1      -1.202  12.062  19.423  0.00  0.00    +0.000 C 
ATOM     27  O   UNL     1      -0.464  12.960  19.029  0.00  0.00    +0.000 OA
ATOM     28  H   UNL     1      -1.354  10.100  20.032  0.00  0.00    +0.000 HD
BRANCH  26  29
ATOM     29  C   UNL     1      -2.646  12.156  19.387  0.00  0.00    +0.000 A 
ATOM     30  C   UNL     1      -3.558  12.604  20.329  0.00  0.00    +0.000 A 
ATOM     31  C   UNL     1      -4.859  12.524  19.775  0.00  0.00    +0.000 A 
ATOM     32  C   UNL     1      -6.142  12.853  20.256  0.00  0.00    +0.000 A 
ATOM     33  C   UNL     1      -7.253  12.657  19.430  0.00  0.00    +0.000 A 
ATOM     34  C   UNL     1      -7.096  12.141  18.145  0.00  0.00    +0.000 A 
ATOM     35  C   UNL     1      -5.831  11.806  17.647  0.00  0.00    +0.000 A 
ATOM     36  C   UNL     1      -4.730  12.013  18.486  0.00  0.00    +0.000 A 
ATOM     37  N   UNL     1      -3.385  11.796  18.278  0.00  0.00    +0.000 N 
ATOM     38  H   UNL     1      -2.980  11.435  17.423  0.00  0.00    +0.000 HD
ENDBRANCH  26  29
ENDBRANCH  24  25
ENDBRANCH  21  24
ENDBRANCH   1  20
TORSDOF 12
ENDMDL
