MODEL 1
REMARK VINA RESULT:      -5.7      0.000      0.000
REMARK  Name = 
REMARK  21 active torsions:
REMARK  status: ('A' for Active; 'I' for Inactive)
REMARK    1  A    between atoms: C_1  and  C_2
REMARK    2  A    between atoms: C_2  and  C_3
REMARK    3  A    between atoms: C_3  and  C_4
REMARK    4  A    between atoms: C_4  and  C_5
REMARK    5  A    between atoms: C_5  and  C_6
REMARK    6  A    between atoms: C_6  and  C_7
REMARK    7  A    between atoms: C_7  and  C_8
REMARK    8  A    between atoms: C_9  and  C_10
REMARK    9  A    between atoms: C_10  and  C_11
REMARK   10  A    between atoms: C_11  and  C_12
REMARK   11  A    between atoms: C_12  and  C_13
REMARK   12  A    between atoms: C_13  and  C_14
REMARK   13  A    between atoms: C_14  and  C_15
REMARK   14  A    between atoms: C_15  and  C_16
REMARK   15  A    between atoms: C_16  and  C_17
REMARK   16  A    between atoms: C_17  and  C_18
REMARK   17  A    between atoms: C_21  and  C_22
REMARK   18  A    between atoms: C_22  and  O_23
REMARK   19  A    between atoms: O_23  and  P_24
REMARK   20  A    between atoms: P_24  and  O_26
REMARK   21  A    between atoms: P_24  and  O_27
REMARK                            x       y       z     vdW  Elec       q    Type
REMARK                         _______ _______ _______ _____ _____    ______ ____
ROOT
ATOM      1  C   UNL     1       1.296   3.478  21.076  0.00  0.00    +0.000 C 
ENDROOT
BRANCH   1   2
ATOM      2  C   UNL     1       1.594   2.272  20.181  0.00  0.00    +0.000 C 
BRANCH   2   3
ATOM      3  C   UNL     1       1.033   2.425  18.767  0.00  0.00    +0.000 C 
BRANCH   3   4
ATOM      4  C   UNL     1       2.085   2.166  17.696  0.00  0.00    +0.000 C 
ATOM      5  O   UNL     1       3.268   1.601  18.275  0.00  0.00    +0.000 OA
ATOM      6  C   UNL     1       4.258   2.627  18.168  0.00  0.00    +0.000 C 
ATOM      7  C   UNL     1       3.823   3.395  16.947  0.00  0.00    +0.000 C 
ATOM      8  O   UNL     1       2.404   3.414  17.058  0.00  0.00    +0.000 OA
BRANCH   7   9
ATOM      9  C   UNL     1       4.350   4.808  16.907  0.00  0.00    +0.000 C 
BRANCH   9  10
ATOM     10  O   UNL     1       5.534   4.910  17.682  0.00  0.00    +0.000 OA
BRANCH  10  11
ATOM     11  P   UNL     1       6.369   6.397  17.392  0.00  0.00    +0.000 P 
ATOM     12  O   UNL     1       7.634   5.679  16.921  0.00  0.00    +0.000 OA
BRANCH  11  13
ATOM     13  O   UNL     1       7.205   7.883  17.103  0.00  0.00    +0.000 OA
ATOM     14  H   UNL     1       7.109   8.408  17.931  0.00  0.00    +0.000 HD
ENDBRANCH  11  13
BRANCH  11  15
ATOM     15  O   UNL     1       5.484   6.615  16.033  0.00  0.00    +0.000 OA
ATOM     16  H   UNL     1       5.990   6.229  15.299  0.00  0.00    +0.000 HD
ENDBRANCH  11  15
ENDBRANCH  10  11
ENDBRANCH   9  10
ENDBRANCH   7   9
ENDBRANCH   3   4
ENDBRANCH   2   3
ENDBRANCH   1   2
BRANCH   1  17
ATOM     17  C   UNL     1       1.213   4.783  20.288  0.00  0.00    +0.000 C 
BRANCH  17  18
ATOM     18  C   UNL     1       2.587   5.404  20.058  0.00  0.00    +0.000 C 
BRANCH  18  19
ATOM     19  C   UNL     1       2.451   6.918  19.921  0.00  0.00    +0.000 C 
BRANCH  19  20
ATOM     20  C   UNL     1       2.305   7.339  18.465  0.00  0.00    +0.000 C 
BRANCH  20  21
ATOM     21  C   UNL     1       1.709   8.743  18.374  0.00  0.00    +0.000 C 
BRANCH  21  23
ATOM     22  C   UNL     1       0.162   9.742  20.063  0.00  0.00    +0.000 C 
ATOM     23  C   UNL     1       1.363   9.254  19.743  0.00  0.00    +0.000 C 
BRANCH  22  24
ATOM     24  C   UNL     1      -0.178  10.268  21.425  0.00  0.00    +0.000 C 
BRANCH  24  25
ATOM     25  C   UNL     1      -0.499  11.761  21.367  0.00  0.00    +0.000 C 
BRANCH  25  26
ATOM     26  C   UNL     1      -1.706  12.025  20.473  0.00  0.00    +0.000 C 
BRANCH  26  27
ATOM     27  C   UNL     1      -1.393  13.069  19.412  0.00  0.00    +0.000 C 
BRANCH  27  28
ATOM     28  C   UNL     1      -1.117  12.411  18.062  0.00  0.00    +0.000 C 
BRANCH  28  30
ATOM     29  C   UNL     1      -1.930  10.189  17.202  0.00  0.00    +0.000 C 
ATOM     30  C   UNL     1      -2.322  11.605  17.581  0.00  0.00    +0.000 C 
ENDBRANCH  28  30
ENDBRANCH  27  28
ENDBRANCH  26  27
ENDBRANCH  25  26
ENDBRANCH  24  25
ENDBRANCH  22  24
ENDBRANCH  21  23
ENDBRANCH  20  21
ENDBRANCH  19  20
ENDBRANCH  18  19
ENDBRANCH  17  18
ENDBRANCH   1  17
TORSDOF 20
ENDMDL
MODEL 2
REMARK VINA RESULT:      -5.7      6.064      9.203
REMARK  Name = 
REMARK  21 active torsions:
REMARK  status: ('A' for Active; 'I' for Inactive)
REMARK    1  A    between atoms: C_1  and  C_2
REMARK    2  A    between atoms: C_2  and  C_3
REMARK    3  A    between atoms: C_3  and  C_4
REMARK    4  A    between atoms: C_4  and  C_5
REMARK    5  A    between atoms: C_5  and  C_6
REMARK    6  A    between atoms: C_6  and  C_7
REMARK    7  A    between atoms: C_7  and  C_8
REMARK    8  A    between atoms: C_9  and  C_10
REMARK    9  A    between atoms: C_10  and  C_11
REMARK   10  A    between atoms: C_11  and  C_12
REMARK   11  A    between atoms: C_12  and  C_13
REMARK   12  A    between atoms: C_13  and  C_14
REMARK   13  A    between atoms: C_14  and  C_15
REMARK   14  A    between atoms: C_15  and  C_16
REMARK   15  A    between atoms: C_16  and  C_17
REMARK   16  A    between atoms: C_17  and  C_18
REMARK   17  A    between atoms: C_21  and  C_22
REMARK   18  A    between atoms: C_22  and  O_23
REMARK   19  A    between atoms: O_23  and  P_24
REMARK   20  A    between atoms: P_24  and  O_26
REMARK   21  A    between atoms: P_24  and  O_27
REMARK                            x       y       z     vdW  Elec       q    Type
REMARK                         _______ _______ _______ _____ _____    ______ ____
ROOT
ATOM      1  C   UNL     1       7.950   7.472  18.667  0.00  0.00    +0.000 C 
ENDROOT
BRANCH   1   2
ATOM      2  C   UNL     1       8.379   8.555  17.673  0.00  0.00    +0.000 C 
BRANCH   2   3
ATOM      3  C   UNL     1       8.182   9.972  18.213  0.00  0.00    +0.000 C 
BRANCH   3   4
ATOM      4  C   UNL     1       9.459  10.544  18.816  0.00  0.00    +0.000 C 
ATOM      5  O   UNL     1       9.413  10.485  20.247  0.00  0.00    +0.000 OA
ATOM      6  C   UNL     1       9.302  11.847  20.669  0.00  0.00    +0.000 C 
ATOM      7  C   UNL     1       9.994  12.604  19.565  0.00  0.00    +0.000 C 
ATOM      8  O   UNL     1       9.594  11.910  18.388  0.00  0.00    +0.000 OA
BRANCH   7   9
ATOM      9  C   UNL     1       9.571  14.049  19.472  0.00  0.00    +0.000 C 
BRANCH   9  10
ATOM     10  O   UNL     1      10.697  14.872  19.211  0.00  0.00    +0.000 OA
BRANCH  10  11
ATOM     11  P   UNL     1      10.702  15.462  17.585  0.00  0.00    +0.000 P 
ATOM     12  O   UNL     1      11.613  14.334  17.101  0.00  0.00    +0.000 OA
BRANCH  11  13
ATOM     13  O   UNL     1      10.709  16.052  15.959  0.00  0.00    +0.000 OA
ATOM     14  H   UNL     1      10.278  15.350  15.419  0.00  0.00    +0.000 HD
ENDBRANCH  11  13
BRANCH  11  15
ATOM     15  O   UNL     1       9.184  14.886  17.384  0.00  0.00    +0.000 OA
ATOM     16  H   UNL     1       9.236  14.171  16.727  0.00  0.00    +0.000 HD
ENDBRANCH  11  15
ENDBRANCH  10  11
ENDBRANCH   9  10
ENDBRANCH   7   9
ENDBRANCH   3   4
ENDBRANCH   2   3
ENDBRANCH   1   2
BRANCH   1  17
ATOM     17  C   UNL     1       7.565   6.165  17.977  0.00  0.00    +0.000 C 
BRANCH  17  18
ATOM     18  C   UNL     1       7.270   6.365  16.494  0.00  0.00    +0.000 C 
BRANCH  18  19
ATOM     19  C   UNL     1       5.760   6.384  16.268  0.00  0.00    +0.000 C 
BRANCH  19  20
ATOM     20  C   UNL     1       5.381   5.712  14.955  0.00  0.00    +0.000 C 
BRANCH  20  21
ATOM     21  C   UNL     1       5.287   4.198  15.140  0.00  0.00    +0.000 C 
BRANCH  21  23
ATOM     22  C   UNL     1       4.005   3.317  17.097  0.00  0.00    +0.000 C 
ATOM     23  C   UNL     1       5.118   3.858  16.593  0.00  0.00    +0.000 C 
BRANCH  22  24
ATOM     24  C   UNL     1       3.831   2.995  18.549  0.00  0.00    +0.000 C 
BRANCH  24  25
ATOM     25  C   UNL     1       4.515   4.044  19.425  0.00  0.00    +0.000 C 
BRANCH  25  26
ATOM     26  C   UNL     1       3.604   5.247  19.649  0.00  0.00    +0.000 C 
BRANCH  26  27
ATOM     27  C   UNL     1       2.575   4.968  20.734  0.00  0.00    +0.000 C 
BRANCH  27  28
ATOM     28  C   UNL     1       1.321   4.325  20.145  0.00  0.00    +0.000 C 
BRANCH  28  30
ATOM     29  C   UNL     1       2.070   2.558  21.775  0.00  0.00    +0.000 C 
ATOM     30  C   UNL     1       0.925   3.070  20.920  0.00  0.00    +0.000 C 
ENDBRANCH  28  30
ENDBRANCH  27  28
ENDBRANCH  26  27
ENDBRANCH  25  26
ENDBRANCH  24  25
ENDBRANCH  22  24
ENDBRANCH  21  23
ENDBRANCH  20  21
ENDBRANCH  19  20
ENDBRANCH  18  19
ENDBRANCH  17  18
ENDBRANCH   1  17
TORSDOF 20
ENDMDL
MODEL 3
REMARK VINA RESULT:      -5.6      1.623      2.634
REMARK  Name = 
REMARK  21 active torsions:
REMARK  status: ('A' for Active; 'I' for Inactive)
REMARK    1  A    between atoms: C_1  and  C_2
REMARK    2  A    between atoms: C_2  and  C_3
REMARK    3  A    between atoms: C_3  and  C_4
REMARK    4  A    between atoms: C_4  and  C_5
REMARK    5  A    between atoms: C_5  and  C_6
REMARK    6  A    between atoms: C_6  and  C_7
REMARK    7  A    between atoms: C_7  and  C_8
REMARK    8  A    between atoms: C_9  and  C_10
REMARK    9  A    between atoms: C_10  and  C_11
REMARK   10  A    between atoms: C_11  and  C_12
REMARK   11  A    between atoms: C_12  and  C_13
REMARK   12  A    between atoms: C_13  and  C_14
REMARK   13  A    between atoms: C_14  and  C_15
REMARK   14  A    between atoms: C_15  and  C_16
REMARK   15  A    between atoms: C_16  and  C_17
REMARK   16  A    between atoms: C_17  and  C_18
REMARK   17  A    between atoms: C_21  and  C_22
REMARK   18  A    between atoms: C_22  and  O_23
REMARK   19  A    between atoms: O_23  and  P_24
REMARK   20  A    between atoms: P_24  and  O_26
REMARK   21  A    between atoms: P_24  and  O_27
REMARK                            x       y       z     vdW  Elec       q    Type
REMARK                         _______ _______ _______ _____ _____    ______ ____
ROOT
ATOM      1  C   UNL     1       2.829   4.974  20.289  0.00  0.00    +0.000 C 
ENDROOT
BRANCH   1   2
ATOM      2  C   UNL     1       1.333   4.802  20.014  0.00  0.00    +0.000 C 
BRANCH   2   3
ATOM      3  C   UNL     1       0.865   3.351  20.145  0.00  0.00    +0.000 C 
BRANCH   3   4
ATOM      4  C   UNL     1       1.147   2.538  18.888  0.00  0.00    +0.000 C 
ATOM      5  O   UNL     1       2.146   1.543  19.142  0.00  0.00    +0.000 OA
ATOM      6  C   UNL     1       3.295   1.977  18.410  0.00  0.00    +0.000 C 
ATOM      7  C   UNL     1       2.697   2.746  17.260  0.00  0.00    +0.000 C 
ATOM      8  O   UNL     1       1.602   3.432  17.858  0.00  0.00    +0.000 OA
BRANCH   7   9
ATOM      9  C   UNL     1       3.647   3.743  16.646  0.00  0.00    +0.000 C 
BRANCH   9  10
ATOM     10  O   UNL     1       4.989   3.323  16.841  0.00  0.00    +0.000 OA
BRANCH  10  11
ATOM     11  P   UNL     1       6.116   4.387  16.072  0.00  0.00    +0.000 P 
ATOM     12  O   UNL     1       5.279   5.625  16.391  0.00  0.00    +0.000 OA
BRANCH  11  13
ATOM     13  O   UNL     1       7.243   5.449  15.302  0.00  0.00    +0.000 OA
ATOM     14  H   UNL     1       6.738   6.272  15.101  0.00  0.00    +0.000 HD
ENDBRANCH  11  13
BRANCH  11  15
ATOM     15  O   UNL     1       7.123   4.224  17.351  0.00  0.00    +0.000 OA
ATOM     16  H   UNL     1       8.026   4.169  16.996  0.00  0.00    +0.000 HD
ENDBRANCH  11  15
ENDBRANCH  10  11
ENDBRANCH   9  10
ENDBRANCH   7   9
ENDBRANCH   3   4
ENDBRANCH   2   3
ENDBRANCH   1   2
BRANCH   1  17
ATOM     17  C   UNL     1       3.452   6.089  19.451  0.00  0.00    +0.000 C 
BRANCH  17  18
ATOM     18  C   UNL     1       2.499   6.600  18.375  0.00  0.00    +0.000 C 
BRANCH  18  19
ATOM     19  C   UNL     1       2.958   7.972  17.891  0.00  0.00    +0.000 C 
BRANCH  19  20
ATOM     20  C   UNL     1       1.865   9.019  18.055  0.00  0.00    +0.000 C 
BRANCH  20  21
ATOM     21  C   UNL     1       1.306   8.988  19.477  0.00  0.00    +0.000 C 
BRANCH  21  23
ATOM     22  C   UNL     1      -0.522  10.622  19.961  0.00  0.00    +0.000 C 
ATOM     23  C   UNL     1       0.780  10.340  19.862  0.00  0.00    +0.000 C 
BRANCH  22  24
ATOM     24  C   UNL     1      -1.046  11.976  20.328  0.00  0.00    +0.000 C 
BRANCH  24  25
ATOM     25  C   UNL     1      -1.574  12.708  19.094  0.00  0.00    +0.000 C 
BRANCH  25  26
ATOM     26  C   UNL     1      -0.433  13.339  18.304  0.00  0.00    +0.000 C 
BRANCH  26  27
ATOM     27  C   UNL     1       0.008  14.657  18.923  0.00  0.00    +0.000 C 
BRANCH  27  28
ATOM     28  C   UNL     1       1.517  14.846  18.787  0.00  0.00    +0.000 C 
BRANCH  28  30
ATOM     29  C   UNL     1       2.384  13.638  20.818  0.00  0.00    +0.000 C 
ATOM     30  C   UNL     1       2.278  13.627  19.304  0.00  0.00    +0.000 C 
ENDBRANCH  28  30
ENDBRANCH  27  28
ENDBRANCH  26  27
ENDBRANCH  25  26
ENDBRANCH  24  25
ENDBRANCH  22  24
ENDBRANCH  21  23
ENDBRANCH  20  21
ENDBRANCH  19  20
ENDBRANCH  18  19
ENDBRANCH  17  18
ENDBRANCH   1  17
TORSDOF 20
ENDMDL
MODEL 4
REMARK VINA RESULT:      -5.6      4.730      8.695
REMARK  Name = 
REMARK  21 active torsions:
REMARK  status: ('A' for Active; 'I' for Inactive)
REMARK    1  A    between atoms: C_1  and  C_2
REMARK    2  A    between atoms: C_2  and  C_3
REMARK    3  A    between atoms: C_3  and  C_4
REMARK    4  A    between atoms: C_4  and  C_5
REMARK    5  A    between atoms: C_5  and  C_6
REMARK    6  A    between atoms: C_6  and  C_7
REMARK    7  A    between atoms: C_7  and  C_8
REMARK    8  A    between atoms: C_9  and  C_10
REMARK    9  A    between atoms: C_10  and  C_11
REMARK   10  A    between atoms: C_11  and  C_12
REMARK   11  A    between atoms: C_12  and  C_13
REMARK   12  A    between atoms: C_13  and  C_14
REMARK   13  A    between atoms: C_14  and  C_15
REMARK   14  A    between atoms: C_15  and  C_16
REMARK   15  A    between atoms: C_16  and  C_17
REMARK   16  A    between atoms: C_17  and  C_18
REMARK   17  A    between atoms: C_21  and  C_22
REMARK   18  A    between atoms: C_22  and  O_23
REMARK   19  A    between atoms: O_23  and  P_24
REMARK   20  A    between atoms: P_24  and  O_26
REMARK   21  A    between atoms: P_24  and  O_27
REMARK                            x       y       z     vdW  Elec       q    Type
REMARK                         _______ _______ _______ _____ _____    ______ ____
ROOT
ATOM      1  C   UNL     1       2.672   7.579  17.545  0.00  0.00    +0.000 C 
ENDROOT
BRANCH   1   2
ATOM      2  C   UNL     1       2.025   8.466  18.612  0.00  0.00    +0.000 C 
BRANCH   2   3
ATOM      3  C   UNL     1       1.508   9.792  18.052  0.00  0.00    +0.000 C 
BRANCH   3   4
ATOM      4  C   UNL     1       1.199  10.802  19.150  0.00  0.00    +0.000 C 
ATOM      5  O   UNL     1       0.672  10.145  20.309  0.00  0.00    +0.000 OA
ATOM      6  C   UNL     1      -0.700  10.543  20.368  0.00  0.00    +0.000 C 
ATOM      7  C   UNL     1      -0.690  11.901  19.714  0.00  0.00    +0.000 C 
ATOM      8  O   UNL     1       0.238  11.745  18.645  0.00  0.00    +0.000 OA
BRANCH   7   9
ATOM      9  C   UNL     1      -2.033  12.314  19.166  0.00  0.00    +0.000 C 
BRANCH   9  10
ATOM     10  O   UNL     1      -2.729  11.180  18.673  0.00  0.00    +0.000 OA
BRANCH  10  11
ATOM     11  P   UNL     1      -2.956  11.256  16.960  0.00  0.00    +0.000 P 
ATOM     12  O   UNL     1      -2.214   9.940  16.730  0.00  0.00    +0.000 OA
BRANCH  11  13
ATOM     13  O   UNL     1      -3.181  11.332  15.246  0.00  0.00    +0.000 OA
ATOM     14  H   UNL     1      -3.336  10.403  14.957  0.00  0.00    +0.000 HD
ENDBRANCH  11  13
BRANCH  11  15
ATOM     15  O   UNL     1      -4.521  10.822  17.160  0.00  0.00    +0.000 OA
ATOM     16  H   UNL     1      -5.027  11.641  17.294  0.00  0.00    +0.000 HD
ENDBRANCH  11  15
ENDBRANCH  10  11
ENDBRANCH   9  10
ENDBRANCH   7   9
ENDBRANCH   3   4
ENDBRANCH   2   3
ENDBRANCH   1   2
BRANCH   1  17
ATOM     17  C   UNL     1       3.940   6.891  18.048  0.00  0.00    +0.000 C 
BRANCH  17  18
ATOM     18  C   UNL     1       5.121   7.104  17.108  0.00  0.00    +0.000 C 
BRANCH  18  19
ATOM     19  C   UNL     1       5.062   6.089  15.970  0.00  0.00    +0.000 C 
BRANCH  19  20
ATOM     20  C   UNL     1       6.429   5.479  15.691  0.00  0.00    +0.000 C 
BRANCH  20  21
ATOM     21  C   UNL     1       6.916   4.687  16.904  0.00  0.00    +0.000 C 
BRANCH  21  23
ATOM     22  C   UNL     1       5.312   3.846  18.625  0.00  0.00    +0.000 C 
ATOM     23  C   UNL     1       5.834   3.771  17.399  0.00  0.00    +0.000 C 
BRANCH  22  24
ATOM     24  C   UNL     1       4.245   2.920  19.124  0.00  0.00    +0.000 C 
BRANCH  24  25
ATOM     25  C   UNL     1       3.464   2.313  17.960  0.00  0.00    +0.000 C 
BRANCH  25  26
ATOM     26  C   UNL     1       2.671   3.383  17.217  0.00  0.00    +0.000 C 
BRANCH  26  27
ATOM     27  C   UNL     1       1.552   3.945  18.081  0.00  0.00    +0.000 C 
BRANCH  27  28
ATOM     28  C   UNL     1       0.922   2.849  18.938  0.00  0.00    +0.000 C 
BRANCH  28  30
ATOM     29  C   UNL     1       1.284   4.705  20.600  0.00  0.00    +0.000 C 
ATOM     30  C   UNL     1       0.860   3.261  20.408  0.00  0.00    +0.000 C 
ENDBRANCH  28  30
ENDBRANCH  27  28
ENDBRANCH  26  27
ENDBRANCH  25  26
ENDBRANCH  24  25
ENDBRANCH  22  24
ENDBRANCH  21  23
ENDBRANCH  20  21
ENDBRANCH  19  20
ENDBRANCH  18  19
ENDBRANCH  17  18
ENDBRANCH   1  17
TORSDOF 20
ENDMDL
MODEL 5
REMARK VINA RESULT:      -5.5      2.015      3.770
REMARK  Name = 
REMARK  21 active torsions:
REMARK  status: ('A' for Active; 'I' for Inactive)
REMARK    1  A    between atoms: C_1  and  C_2
REMARK    2  A    between atoms: C_2  and  C_3
REMARK    3  A    between atoms: C_3  and  C_4
REMARK    4  A    between atoms: C_4  and  C_5
REMARK    5  A    between atoms: C_5  and  C_6
REMARK    6  A    between atoms: C_6  and  C_7
REMARK    7  A    between atoms: C_7  and  C_8
REMARK    8  A    between atoms: C_9  and  C_10
REMARK    9  A    between atoms: C_10  and  C_11
REMARK   10  A    between atoms: C_11  and  C_12
REMARK   11  A    between atoms: C_12  and  C_13
REMARK   12  A    between atoms: C_13  and  C_14
REMARK   13  A    between atoms: C_14  and  C_15
REMARK   14  A    between atoms: C_15  and  C_16
REMARK   15  A    between atoms: C_16  and  C_17
REMARK   16  A    between atoms: C_17  and  C_18
REMARK   17  A    between atoms: C_21  and  C_22
REMARK   18  A    between atoms: C_22  and  O_23
REMARK   19  A    between atoms: O_23  and  P_24
REMARK   20  A    between atoms: P_24  and  O_26
REMARK   21  A    between atoms: P_24  and  O_27
REMARK                            x       y       z     vdW  Elec       q    Type
REMARK                         _______ _______ _______ _____ _____    ______ ____
ROOT
ATOM      1  C   UNL     1       2.755   3.172  17.177  0.00  0.00    +0.000 C 
ENDROOT
BRANCH   1   2
ATOM      2  C   UNL     1       3.725   4.097  17.917  0.00  0.00    +0.000 C 
BRANCH   2   3
ATOM      3  C   UNL     1       4.672   3.343  18.852  0.00  0.00    +0.000 C 
BRANCH   3   4
ATOM      4  C   UNL     1       5.917   4.153  19.191  0.00  0.00    +0.000 C 
ATOM      5  O   UNL     1       5.560   5.471  19.625  0.00  0.00    +0.000 OA
ATOM      6  C   UNL     1       5.998   6.337  18.574  0.00  0.00    +0.000 C 
ATOM      7  C   UNL     1       7.166   5.593  17.982  0.00  0.00    +0.000 C 
ATOM      8  O   UNL     1       6.743   4.234  18.016  0.00  0.00    +0.000 OA
BRANCH   7   9
ATOM      9  C   UNL     1       7.477   5.994  16.562  0.00  0.00    +0.000 C 
BRANCH   9  10
ATOM     10  O   UNL     1       7.643   4.840  15.753  0.00  0.00    +0.000 OA
BRANCH  10  11
ATOM     11  P   UNL     1       6.250   4.533  14.773  0.00  0.00    +0.000 P 
ATOM     12  O   UNL     1       7.093   4.296  13.521  0.00  0.00    +0.000 OA
BRANCH  11  13
ATOM     13  O   UNL     1       4.858   4.227  13.794  0.00  0.00    +0.000 OA
ATOM     14  H   UNL     1       5.154   3.591  13.102  0.00  0.00    +0.000 HD
ENDBRANCH  11  13
BRANCH  11  15
ATOM     15  O   UNL     1       6.106   3.056  15.464  0.00  0.00    +0.000 OA
ATOM     16  H   UNL     1       5.548   3.165  16.252  0.00  0.00    +0.000 HD
ENDBRANCH  11  15
ENDBRANCH  10  11
ENDBRANCH   9  10
ENDBRANCH   7   9
ENDBRANCH   3   4
ENDBRANCH   2   3
ENDBRANCH   1   2
BRANCH   1  17
ATOM     17  C   UNL     1       1.310   3.354  17.635  0.00  0.00    +0.000 C 
BRANCH  17  18
ATOM     18  C   UNL     1       1.009   2.574  18.910  0.00  0.00    +0.000 C 
BRANCH  18  19
ATOM     19  C   UNL     1       0.625   3.541  20.027  0.00  0.00    +0.000 C 
BRANCH  19  20
ATOM     20  C   UNL     1       1.618   3.489  21.179  0.00  0.00    +0.000 C 
BRANCH  20  21
ATOM     21  C   UNL     1       2.338   4.830  21.323  0.00  0.00    +0.000 C 
BRANCH  21  23
ATOM     22  C   UNL     1       2.495   6.814  19.811  0.00  0.00    +0.000 C 
ATOM     23  C   UNL     1       1.773   5.832  20.358  0.00  0.00    +0.000 C 
BRANCH  22  24
ATOM     24  C   UNL     1       1.926   7.824  18.862  0.00  0.00    +0.000 C 
BRANCH  24  25
ATOM     25  C   UNL     1       1.274   8.978  19.622  0.00  0.00    +0.000 C 
BRANCH  25  26
ATOM     26  C   UNL     1       0.932  10.128  18.680  0.00  0.00    +0.000 C 
BRANCH  26  27
ATOM     27  C   UNL     1      -0.438   9.940  18.049  0.00  0.00    +0.000 C 
BRANCH  27  28
ATOM     28  C   UNL     1      -1.312  11.174  18.263  0.00  0.00    +0.000 C 
BRANCH  28  30
ATOM     29  C   UNL     1      -2.486   9.990  16.377  0.00  0.00    +0.000 C 
ATOM     30  C   UNL     1      -2.441  11.239  17.237  0.00  0.00    +0.000 C 
ENDBRANCH  28  30
ENDBRANCH  27  28
ENDBRANCH  26  27
ENDBRANCH  25  26
ENDBRANCH  24  25
ENDBRANCH  22  24
ENDBRANCH  21  23
ENDBRANCH  20  21
ENDBRANCH  19  20
ENDBRANCH  18  19
ENDBRANCH  17  18
ENDBRANCH   1  17
TORSDOF 20
ENDMDL
MODEL 6
REMARK VINA RESULT:      -5.4      6.328     10.092
REMARK  Name = 
REMARK  21 active torsions:
REMARK  status: ('A' for Active; 'I' for Inactive)
REMARK    1  A    between atoms: C_1  and  C_2
REMARK    2  A    between atoms: C_2  and  C_3
REMARK    3  A    between atoms: C_3  and  C_4
REMARK    4  A    between atoms: C_4  and  C_5
REMARK    5  A    between atoms: C_5  and  C_6
REMARK    6  A    between atoms: C_6  and  C_7
REMARK    7  A    between atoms: C_7  and  C_8
REMARK    8  A    between atoms: C_9  and  C_10
REMARK    9  A    between atoms: C_10  and  C_11
REMARK   10  A    between atoms: C_11  and  C_12
REMARK   11  A    between atoms: C_12  and  C_13
REMARK   12  A    between atoms: C_13  and  C_14
REMARK   13  A    between atoms: C_14  and  C_15
REMARK   14  A    between atoms: C_15  and  C_16
REMARK   15  A    between atoms: C_16  and  C_17
REMARK   16  A    between atoms: C_17  and  C_18
REMARK   17  A    between atoms: C_21  and  C_22
REMARK   18  A    between atoms: C_22  and  O_23
REMARK   19  A    between atoms: O_23  and  P_24
REMARK   20  A    between atoms: P_24  and  O_26
REMARK   21  A    between atoms: P_24  and  O_27
REMARK                            x       y       z     vdW  Elec       q    Type
REMARK                         _______ _______ _______ _____ _____    ______ ____
ROOT
ATOM      1  C   UNL     1       2.099   8.556  18.007  0.00  0.00    +0.000 C 
ENDROOT
BRANCH   1   2
ATOM      2  C   UNL     1       1.238   9.324  19.013  0.00  0.00    +0.000 C 
BRANCH   2   3
ATOM      3  C   UNL     1       0.963  10.766  18.584  0.00  0.00    +0.000 C 
BRANCH   3   4
ATOM      4  C   UNL     1      -0.507  11.140  18.726  0.00  0.00    +0.000 C 
ATOM      5  O   UNL     1      -0.714  12.517  18.385  0.00  0.00    +0.000 OA
ATOM      6  C   UNL     1      -1.037  13.159  19.622  0.00  0.00    +0.000 C 
ATOM      7  C   UNL     1      -1.684  12.056  20.420  0.00  0.00    +0.000 C 
ATOM      8  O   UNL     1      -0.908  10.910  20.088  0.00  0.00    +0.000 OA
BRANCH   7   9
ATOM      9  C   UNL     1      -1.638  12.288  21.910  0.00  0.00    +0.000 C 
BRANCH   9  10
ATOM     10  O   UNL     1      -2.685  13.162  22.301  0.00  0.00    +0.000 OA
BRANCH  10  11
ATOM     11  P   UNL     1      -3.625  12.505  23.596  0.00  0.00    +0.000 P 
ATOM     12  O   UNL     1      -3.263  13.652  24.539  0.00  0.00    +0.000 OA
BRANCH  11  13
ATOM     13  O   UNL     1      -4.564  11.847  24.891  0.00  0.00    +0.000 OA
ATOM     14  H   UNL     1      -5.489  12.141  24.725  0.00  0.00    +0.000 HD
ENDBRANCH  11  13
BRANCH  11  15
ATOM     15  O   UNL     1      -4.989  13.001  22.841  0.00  0.00    +0.000 OA
ATOM     16  H   UNL     1      -4.719  13.631  22.152  0.00  0.00    +0.000 HD
ENDBRANCH  11  15
ENDBRANCH  10  11
ENDBRANCH   9  10
ENDBRANCH   7   9
ENDBRANCH   3   4
ENDBRANCH   2   3
ENDBRANCH   1   2
BRANCH   1  17
ATOM     17  C   UNL     1       2.386   7.125  18.457  0.00  0.00    +0.000 C 
BRANCH  17  18
ATOM     18  C   UNL     1       2.278   6.966  19.970  0.00  0.00    +0.000 C 
BRANCH  18  19
ATOM     19  C   UNL     1       2.404   5.491  20.343  0.00  0.00    +0.000 C 
BRANCH  19  20
ATOM     20  C   UNL     1       1.043   4.812  20.412  0.00  0.00    +0.000 C 
BRANCH  20  21
ATOM     21  C   UNL     1       1.110   3.418  19.788  0.00  0.00    +0.000 C 
BRANCH  21  23
ATOM     22  C   UNL     1       2.640   3.278  17.817  0.00  0.00    +0.000 C 
ATOM     23  C   UNL     1       2.445   3.202  19.136  0.00  0.00    +0.000 C 
BRANCH  22  24
ATOM     24  C   UNL     1       3.969   3.044  17.166  0.00  0.00    +0.000 C 
BRANCH  24  25
ATOM     25  C   UNL     1       4.883   4.255  17.345  0.00  0.00    +0.000 C 
BRANCH  25  26
ATOM     26  C   UNL     1       5.260   4.858  15.996  0.00  0.00    +0.000 C 
BRANCH  26  27
ATOM     27  C   UNL     1       5.924   3.828  15.094  0.00  0.00    +0.000 C 
BRANCH  27  28
ATOM     28  C   UNL     1       6.257   4.430  13.731  0.00  0.00    +0.000 C 
BRANCH  28  30
ATOM     29  C   UNL     1       4.826   3.430  11.917  0.00  0.00    +0.000 C 
ATOM     30  C   UNL     1       6.168   3.381  12.625  0.00  0.00    +0.000 C 
ENDBRANCH  28  30
ENDBRANCH  27  28
ENDBRANCH  26  27
ENDBRANCH  25  26
ENDBRANCH  24  25
ENDBRANCH  22  24
ENDBRANCH  21  23
ENDBRANCH  20  21
ENDBRANCH  19  20
ENDBRANCH  18  19
ENDBRANCH  17  18
ENDBRANCH   1  17
TORSDOF 20
ENDMDL
MODEL 7
REMARK VINA RESULT:      -5.4      7.295      9.137
REMARK  Name = 
REMARK  21 active torsions:
REMARK  status: ('A' for Active; 'I' for Inactive)
REMARK    1  A    between atoms: C_1  and  C_2
REMARK    2  A    between atoms: C_2  and  C_3
REMARK    3  A    between atoms: C_3  and  C_4
REMARK    4  A    between atoms: C_4  and  C_5
REMARK    5  A    between atoms: C_5  and  C_6
REMARK    6  A    between atoms: C_6  and  C_7
REMARK    7  A    between atoms: C_7  and  C_8
REMARK    8  A    between atoms: C_9  and  C_10
REMARK    9  A    between atoms: C_10  and  C_11
REMARK   10  A    between atoms: C_11  and  C_12
REMARK   11  A    between atoms: C_12  and  C_13
REMARK   12  A    between atoms: C_13  and  C_14
REMARK   13  A    between atoms: C_14  and  C_15
REMARK   14  A    between atoms: C_15  and  C_16
REMARK   15  A    between atoms: C_16  and  C_17
REMARK   16  A    between atoms: C_17  and  C_18
REMARK   17  A    between atoms: C_21  and  C_22
REMARK   18  A    between atoms: C_22  and  O_23
REMARK   19  A    between atoms: O_23  and  P_24
REMARK   20  A    between atoms: P_24  and  O_26
REMARK   21  A    between atoms: P_24  and  O_27
REMARK                            x       y       z     vdW  Elec       q    Type
REMARK                         _______ _______ _______ _____ _____    ______ ____
ROOT
ATOM      1  C   UNL     1       9.253  10.938  18.741  0.00  0.00    +0.000 C 
ENDROOT
BRANCH   1   2
ATOM      2  C   UNL     1       8.817   9.503  19.045  0.00  0.00    +0.000 C 
BRANCH   2   3
ATOM      3  C   UNL     1       7.919   8.909  17.958  0.00  0.00    +0.000 C 
BRANCH   3   4
ATOM      4  C   UNL     1       8.203   7.432  17.717  0.00  0.00    +0.000 C 
ATOM      5  O   UNL     1       7.591   6.991  16.499  0.00  0.00    +0.000 OA
ATOM      6  C   UNL     1       6.536   6.118  16.910  0.00  0.00    +0.000 C 
ATOM      7  C   UNL     1       7.042   5.562  18.216  0.00  0.00    +0.000 C 
ATOM      8  O   UNL     1       7.679   6.680  18.825  0.00  0.00    +0.000 OA
BRANCH   7   9
ATOM      9  C   UNL     1       5.945   5.049  19.115  0.00  0.00    +0.000 C 
BRANCH   9  10
ATOM     10  O   UNL     1       5.590   3.726  18.746  0.00  0.00    +0.000 OA
BRANCH  10  11
ATOM     11  P   UNL     1       4.218   3.155  19.633  0.00  0.00    +0.000 P 
ATOM     12  O   UNL     1       3.453   2.795  18.360  0.00  0.00    +0.000 OA
BRANCH  11  13
ATOM     13  O   UNL     1       2.846   2.585  20.519  0.00  0.00    +0.000 OA
ATOM     14  H   UNL     1       2.151   3.274  20.405  0.00  0.00    +0.000 HD
ENDBRANCH  11  13
BRANCH  11  15
ATOM     15  O   UNL     1       5.048   1.797  20.018  0.00  0.00    +0.000 OA
ATOM     16  H   UNL     1       4.494   1.292  20.637  0.00  0.00    +0.000 HD
ENDBRANCH  11  15
ENDBRANCH  10  11
ENDBRANCH   9  10
ENDBRANCH   7   9
ENDBRANCH   3   4
ENDBRANCH   2   3
ENDBRANCH   1   2
BRANCH   1  17
ATOM     17  C   UNL     1      10.716  11.192  19.096  0.00  0.00    +0.000 C 
BRANCH  17  18
ATOM     18  C   UNL     1      11.464  11.907  17.977  0.00  0.00    +0.000 C 
BRANCH  18  19
ATOM     19  C   UNL     1      10.537  12.911  17.297  0.00  0.00    +0.000 C 
BRANCH  19  20
ATOM     20  C   UNL     1      11.017  14.342  17.495  0.00  0.00    +0.000 C 
BRANCH  20  21
ATOM     21  C   UNL     1       9.848  15.247  17.884  0.00  0.00    +0.000 C 
BRANCH  21  23
ATOM     22  C   UNL     1      10.264  14.540  20.244  0.00  0.00    +0.000 C 
ATOM     23  C   UNL     1       9.811  15.444  19.372  0.00  0.00    +0.000 C 
BRANCH  22  24
ATOM     24  C   UNL     1      10.211  14.730  21.729  0.00  0.00    +0.000 C 
BRANCH  24  25
ATOM     25  C   UNL     1       8.772  14.639  22.238  0.00  0.00    +0.000 C 
BRANCH  25  26
ATOM     26  C   UNL     1       8.128  13.321  21.821  0.00  0.00    +0.000 C 
BRANCH  26  27
ATOM     27  C   UNL     1       8.779  12.139  22.523  0.00  0.00    +0.000 C 
BRANCH  27  28
ATOM     28  C   UNL     1       8.381  12.093  23.997  0.00  0.00    +0.000 C 
BRANCH  28  30
ATOM     29  C   UNL     1       6.321  12.155  25.443  0.00  0.00    +0.000 C 
ATOM     30  C   UNL     1       6.941  11.614  24.168  0.00  0.00    +0.000 C 
ENDBRANCH  28  30
ENDBRANCH  27  28
ENDBRANCH  26  27
ENDBRANCH  25  26
ENDBRANCH  24  25
ENDBRANCH  22  24
ENDBRANCH  21  23
ENDBRANCH  20  21
ENDBRANCH  19  20
ENDBRANCH  18  19
ENDBRANCH  17  18
ENDBRANCH   1  17
TORSDOF 20
ENDMDL
MODEL 8
REMARK VINA RESULT:      -5.4      2.351      3.324
REMARK  Name = 
REMARK  21 active torsions:
REMARK  status: ('A' for Active; 'I' for Inactive)
REMARK    1  A    between atoms: C_1  and  C_2
REMARK    2  A    between atoms: C_2  and  C_3
REMARK    3  A    between atoms: C_3  and  C_4
REMARK    4  A    between atoms: C_4  and  C_5
REMARK    5  A    between atoms: C_5  and  C_6
REMARK    6  A    between atoms: C_6  and  C_7
REMARK    7  A    between atoms: C_7  and  C_8
REMARK    8  A    between atoms: C_9  and  C_10
REMARK    9  A    between atoms: C_10  and  C_11
REMARK   10  A    between atoms: C_11  and  C_12
REMARK   11  A    between atoms: C_12  and  C_13
REMARK   12  A    between atoms: C_13  and  C_14
REMARK   13  A    between atoms: C_14  and  C_15
REMARK   14  A    between atoms: C_15  and  C_16
REMARK   15  A    between atoms: C_16  and  C_17
REMARK   16  A    between atoms: C_17  and  C_18
REMARK   17  A    between atoms: C_21  and  C_22
REMARK   18  A    between atoms: C_22  and  O_23
REMARK   19  A    between atoms: O_23  and  P_24
REMARK   20  A    between atoms: P_24  and  O_26
REMARK   21  A    between atoms: P_24  and  O_27
REMARK                            x       y       z     vdW  Elec       q    Type
REMARK                         _______ _______ _______ _____ _____    ______ ____
ROOT
ATOM      1  C   UNL     1       0.840   3.713  20.125  0.00  0.00    +0.000 C 
ENDROOT
BRANCH   1   2
ATOM      2  C   UNL     1       1.037   3.265  18.674  0.00  0.00    +0.000 C 
BRANCH   2   3
ATOM      3  C   UNL     1       1.662   1.873  18.560  0.00  0.00    +0.000 C 
BRANCH   3   4
ATOM      4  C   UNL     1       3.101   1.924  18.065  0.00  0.00    +0.000 C 
ATOM      5  O   UNL     1       4.017   1.765  19.155  0.00  0.00    +0.000 OA
ATOM      6  C   UNL     1       4.641   3.043  19.303  0.00  0.00    +0.000 C 
ATOM      7  C   UNL     1       4.594   3.610  17.908  0.00  0.00    +0.000 C 
ATOM      8  O   UNL     1       3.320   3.194  17.427  0.00  0.00    +0.000 OA
BRANCH   7   9
ATOM      9  C   UNL     1       4.686   5.115  17.868  0.00  0.00    +0.000 C 
BRANCH   9  10
ATOM     10  O   UNL     1       5.896   5.514  17.243  0.00  0.00    +0.000 OA
BRANCH  10  11
ATOM     11  P   UNL     1       6.225   4.584  15.821  0.00  0.00    +0.000 P 
ATOM     12  O   UNL     1       6.234   5.822  14.925  0.00  0.00    +0.000 OA
BRANCH  11  13
ATOM     13  O   UNL     1       6.552   3.654  14.400  0.00  0.00    +0.000 OA
ATOM     14  H   UNL     1       6.525   2.712  14.686  0.00  0.00    +0.000 HD
ENDBRANCH  11  13
BRANCH  11  15
ATOM     15  O   UNL     1       7.777   4.411  16.308  0.00  0.00    +0.000 OA
ATOM     16  H   UNL     1       8.092   5.293  16.570  0.00  0.00    +0.000 HD
ENDBRANCH  11  15
ENDBRANCH  10  11
ENDBRANCH   9  10
ENDBRANCH   7   9
ENDBRANCH   3   4
ENDBRANCH   2   3
ENDBRANCH   1   2
BRANCH   1  17
ATOM     17  C   UNL     1       1.988   4.585  20.627  0.00  0.00    +0.000 C 
BRANCH  17  18
ATOM     18  C   UNL     1       1.551   6.025  20.875  0.00  0.00    +0.000 C 
BRANCH  18  19
ATOM     19  C   UNL     1       2.208   6.946  19.851  0.00  0.00    +0.000 C 
BRANCH  19  20
ATOM     20  C   UNL     1       1.643   8.358  19.923  0.00  0.00    +0.000 C 
BRANCH  20  21
ATOM     21  C   UNL     1       1.299   8.721  21.367  0.00  0.00    +0.000 C 
BRANCH  21  23
ATOM     22  C   UNL     1       0.042  10.861  21.081  0.00  0.00    +0.000 C 
ATOM     23  C   UNL     1       0.060   9.568  21.412  0.00  0.00    +0.000 C 
BRANCH  22  24
ATOM     24  C   UNL     1      -1.191  11.710  21.143  0.00  0.00    +0.000 C 
BRANCH  24  25
ATOM     25  C   UNL     1      -1.756  11.746  22.563  0.00  0.00    +0.000 C 
BRANCH  25  26
ATOM     26  C   UNL     1      -2.974  12.660  22.643  0.00  0.00    +0.000 C 
BRANCH  26  27
ATOM     27  C   UNL     1      -3.666  12.546  23.992  0.00  0.00    +0.000 C 
BRANCH  27  28
ATOM     28  C   UNL     1      -3.796  13.914  24.657  0.00  0.00    +0.000 C 
BRANCH  28  30
ATOM     29  C   UNL     1      -5.886  14.927  23.688  0.00  0.00    +0.000 C 
ATOM     30  C   UNL     1      -4.369  14.949  23.691  0.00  0.00    +0.000 C 
ENDBRANCH  28  30
ENDBRANCH  27  28
ENDBRANCH  26  27
ENDBRANCH  25  26
ENDBRANCH  24  25
ENDBRANCH  22  24
ENDBRANCH  21  23
ENDBRANCH  20  21
ENDBRANCH  19  20
ENDBRANCH  18  19
ENDBRANCH  17  18
ENDBRANCH   1  17
TORSDOF 20
ENDMDL
MODEL 9
REMARK VINA RESULT:      -5.4      1.286      1.959
REMARK  Name = 
REMARK  21 active torsions:
REMARK  status: ('A' for Active; 'I' for Inactive)
REMARK    1  A    between atoms: C_1  and  C_2
REMARK    2  A    between atoms: C_2  and  C_3
REMARK    3  A    between atoms: C_3  and  C_4
REMARK    4  A    between atoms: C_4  and  C_5
REMARK    5  A    between atoms: C_5  and  C_6
REMARK    6  A    between atoms: C_6  and  C_7
REMARK    7  A    between atoms: C_7  and  C_8
REMARK    8  A    between atoms: C_9  and  C_10
REMARK    9  A    between atoms: C_10  and  C_11
REMARK   10  A    between atoms: C_11  and  C_12
REMARK   11  A    between atoms: C_12  and  C_13
REMARK   12  A    between atoms: C_13  and  C_14
REMARK   13  A    between atoms: C_14  and  C_15
REMARK   14  A    between atoms: C_15  and  C_16
REMARK   15  A    between atoms: C_16  and  C_17
REMARK   16  A    between atoms: C_17  and  C_18
REMARK   17  A    between atoms: C_21  and  C_22
REMARK   18  A    between atoms: C_22  and  O_23
REMARK   19  A    between atoms: O_23  and  P_24
REMARK   20  A    between atoms: P_24  and  O_26
REMARK   21  A    between atoms: P_24  and  O_27
REMARK                            x       y       z     vdW  Elec       q    Type
REMARK                         _______ _______ _______ _____ _____    ______ ____
ROOT
ATOM      1  C   UNL     1       1.792   4.137  20.956  0.00  0.00    +0.000 C 
ENDROOT
BRANCH   1   2
ATOM      2  C   UNL     1       0.960   3.757  19.729  0.00  0.00    +0.000 C 
BRANCH   2   3
ATOM      3  C   UNL     1       1.196   2.317  19.271  0.00  0.00    +0.000 C 
BRANCH   3   4
ATOM      4  C   UNL     1       2.284   2.219  18.208  0.00  0.00    +0.000 C 
ATOM      5  O   UNL     1       3.532   1.833  18.796  0.00  0.00    +0.000 OA
ATOM      6  C   UNL     1       4.361   2.995  18.699  0.00  0.00    +0.000 C 
ATOM      7  C   UNL     1       3.827   3.694  17.476  0.00  0.00    +0.000 C 
ATOM      8  O   UNL     1       2.419   3.503  17.575  0.00  0.00    +0.000 OA
BRANCH   7   9
ATOM      9  C   UNL     1       4.139   5.169  17.443  0.00  0.00    +0.000 C 
BRANCH   9  10
ATOM     10  O   UNL     1       5.049   5.454  16.392  0.00  0.00    +0.000 OA
BRANCH  10  11
ATOM     11  P   UNL     1       6.237   6.619  16.865  0.00  0.00    +0.000 P 
ATOM     12  O   UNL     1       6.521   5.904  18.185  0.00  0.00    +0.000 OA
BRANCH  11  13
ATOM     13  O   UNL     1       7.424   7.785  17.337  0.00  0.00    +0.000 OA
ATOM     14  H   UNL     1       8.090   7.796  16.611  0.00  0.00    +0.000 HD
ENDBRANCH  11  13
BRANCH  11  15
ATOM     15  O   UNL     1       7.290   5.959  15.799  0.00  0.00    +0.000 OA
ATOM     16  H   UNL     1       6.852   5.183  15.411  0.00  0.00    +0.000 HD
ENDBRANCH  11  15
ENDBRANCH  10  11
ENDBRANCH   9  10
ENDBRANCH   7   9
ENDBRANCH   3   4
ENDBRANCH   2   3
ENDBRANCH   1   2
BRANCH   1  17
ATOM     17  C   UNL     1       2.361   5.551  20.860  0.00  0.00    +0.000 C 
BRANCH  17  18
ATOM     18  C   UNL     1       1.282   6.586  20.563  0.00  0.00    +0.000 C 
BRANCH  18  19
ATOM     19  C   UNL     1       1.826   7.988  20.828  0.00  0.00    +0.000 C 
BRANCH  19  20
ATOM     20  C   UNL     1       0.713   8.963  21.186  0.00  0.00    +0.000 C 
BRANCH  20  21
ATOM     21  C   UNL     1       0.665   9.185  22.697  0.00  0.00    +0.000 C 
BRANCH  21  23
ATOM     22  C   UNL     1      -0.856  11.168  22.695  0.00  0.00    +0.000 C 
ATOM     23  C   UNL     1      -0.589   9.917  23.079  0.00  0.00    +0.000 C 
BRANCH  22  24
ATOM     24  C   UNL     1      -2.100  11.903  23.091  0.00  0.00    +0.000 C 
BRANCH  24  25
ATOM     25  C   UNL     1      -2.071  13.340  22.570  0.00  0.00    +0.000 C 
BRANCH  25  26
ATOM     26  C   UNL     1      -1.691  13.377  21.094  0.00  0.00    +0.000 C 
BRANCH  26  27
ATOM     27  C   UNL     1      -2.795  12.799  20.222  0.00  0.00    +0.000 C 
BRANCH  27  28
ATOM     28  C   UNL     1      -2.232  11.786  19.227  0.00  0.00    +0.000 C 
BRANCH  28  30
ATOM     29  C   UNL     1      -2.641  11.139  16.829  0.00  0.00    +0.000 C 
ATOM     30  C   UNL     1      -3.275  11.394  18.184  0.00  0.00    +0.000 C 
ENDBRANCH  28  30
ENDBRANCH  27  28
ENDBRANCH  26  27
ENDBRANCH  25  26
ENDBRANCH  24  25
ENDBRANCH  22  24
ENDBRANCH  21  23
ENDBRANCH  20  21
ENDBRANCH  19  20
ENDBRANCH  18  19
ENDBRANCH  17  18
ENDBRANCH   1  17
TORSDOF 20
ENDMDL
