MODEL 1
REMARK VINA RESULT:      -7.2      0.000      0.000
REMARK  Name = 
REMARK  12 active torsions:
REMARK  status: ('A' for Active; 'I' for Inactive)
REMARK    1  A    between atoms: C_1  and  O_2
REMARK    2  A    between atoms: O_2  and  C_3
REMARK    3  A    between atoms: C_3  and  C_5
REMARK    4  A    between atoms: C_6  and  C_7
REMARK    5  A    between atoms: C_10  and  O_11
REMARK    6  A    between atoms: C_14  and  C_15
REMARK    7  A    between atoms: C_18  and  O_19
REMARK    8  A    between atoms: N_23  and  C_24
REMARK    9  A    between atoms: C_24  and  C_25
REMARK   10  A    between atoms: C_25  and  C_27
REMARK   11  A    between atoms: C_30  and  O_31
REMARK   12  A    between atoms: O_31  and  C_32
REMARK                            x       y       z     vdW  Elec       q    Type
REMARK                         _______ _______ _______ _____ _____    ______ ____
ROOT
ATOM      1  C   UNL     1       4.800   5.891  17.873  0.00  0.00    +0.000 A 
ATOM      2  C   UNL     1       3.482   6.145  18.288  0.00  0.00    +0.000 A 
ATOM      3  C   UNL     1       3.278   7.574  18.234  0.00  0.00    +0.000 A 
ATOM      4  C   UNL     1       4.458   8.122  17.770  0.00  0.00    +0.000 A 
ATOM      5  N   UNL     1       5.367   7.122  17.555  0.00  0.00    +0.000 N 
ENDROOT
BRANCH   2   6
ATOM      6  C   UNL     1       2.530   5.098  18.696  0.00  0.00    +0.000 A 
ATOM      7  C   UNL     1       1.915   4.259  17.754  0.00  0.00    +0.000 A 
ATOM      8  C   UNL     1       1.014   3.265  18.150  0.00  0.00    +0.000 A 
ATOM      9  C   UNL     1       0.773   3.060  19.503  0.00  0.00    +0.000 A 
ATOM     10  C   UNL     1       1.399   3.847  20.458  0.00  0.00    +0.000 A 
ATOM     11  C   UNL     1       2.247   4.883  20.054  0.00  0.00    +0.000 A 
BRANCH   9  12
ATOM     12  O   UNL     1      -0.081   2.089  19.932  0.00  0.00    +0.000 OA
ATOM     13  H   UNL     1      -0.638   2.460  20.636  0.00  0.00    +0.000 HD
ENDBRANCH   9  12
ENDBRANCH   2   6
BRANCH   3  14
ATOM     14  C   UNL     1       2.127   8.418  18.574  0.00  0.00    +0.000 A 
ATOM     15  C   UNL     1       1.691   8.540  19.902  0.00  0.00    +0.000 A 
ATOM     16  C   UNL     1       0.561   9.298  20.225  0.00  0.00    +0.000 A 
ATOM     17  C   UNL     1      -0.113   9.982  19.222  0.00  0.00    +0.000 A 
ATOM     18  C   UNL     1       0.318   9.910  17.905  0.00  0.00    +0.000 A 
ATOM     19  C   UNL     1       1.427   9.123  17.580  0.00  0.00    +0.000 A 
BRANCH  17  20
ATOM     20  O   UNL     1      -1.212  10.741  19.495  0.00  0.00    +0.000 OA
ATOM     21  H   UNL     1      -0.918  11.641  19.712  0.00  0.00    +0.000 HD
ENDBRANCH  17  20
ENDBRANCH   3  14
BRANCH   1  22
ATOM     22  C   UNL     1       5.486   4.614  17.733  0.00  0.00    +0.000 C 
ATOM     23  O   UNL     1       6.305   4.134  18.503  0.00  0.00    +0.000 OA
BRANCH  22  25
ATOM     24  C   UNL     1       6.135   4.015  15.548  0.00  0.00    +0.000 C 
ATOM     25  O   UNL     1       5.120   4.030  16.553  0.00  0.00    +0.000 OA
ENDBRANCH  22  25
ENDBRANCH   1  22
BRANCH   5  26
ATOM     26  C   UNL     1       6.713   7.302  17.007  0.00  0.00    +0.000 C 
BRANCH  26  27
ATOM     27  C   UNL     1       7.784   7.647  18.010  0.00  0.00    +0.000 C 
ATOM     28  O   UNL     1       8.277   6.787  18.741  0.00  0.00    +0.000 OA
BRANCH  27  29
ATOM     29  C   UNL     1       8.244   9.066  18.142  0.00  0.00    +0.000 A 
ATOM     30  C   UNL     1       7.750  10.098  17.331  0.00  0.00    +0.000 A 
ATOM     31  C   UNL     1       8.185  11.416  17.517  0.00  0.00    +0.000 A 
ATOM     32  C   UNL     1       9.126  11.717  18.503  0.00  0.00    +0.000 A 
ATOM     33  C   UNL     1       9.631  10.687  19.298  0.00  0.00    +0.000 A 
ATOM     34  C   UNL     1       9.192   9.371  19.122  0.00  0.00    +0.000 A 
BRANCH  32  35
ATOM     35  O   UNL     1       9.625  12.958  18.781  0.00  0.00    +0.000 OA
ATOM     36  C   UNL     1      10.676  13.428  17.945  0.00  0.00    +0.000 C 
ENDBRANCH  32  35
ENDBRANCH  27  29
ENDBRANCH  26  27
ENDBRANCH   5  26
TORSDOF 10
ENDMDL
MODEL 2
REMARK VINA RESULT:      -7.2      4.264      8.947
REMARK  Name = 
REMARK  12 active torsions:
REMARK  status: ('A' for Active; 'I' for Inactive)
REMARK    1  A    between atoms: C_1  and  O_2
REMARK    2  A    between atoms: O_2  and  C_3
REMARK    3  A    between atoms: C_3  and  C_5
REMARK    4  A    between atoms: C_6  and  C_7
REMARK    5  A    between atoms: C_10  and  O_11
REMARK    6  A    between atoms: C_14  and  C_15
REMARK    7  A    between atoms: C_18  and  O_19
REMARK    8  A    between atoms: N_23  and  C_24
REMARK    9  A    between atoms: C_24  and  C_25
REMARK   10  A    between atoms: C_25  and  C_27
REMARK   11  A    between atoms: C_30  and  O_31
REMARK   12  A    between atoms: O_31  and  C_32
REMARK                            x       y       z     vdW  Elec       q    Type
REMARK                         _______ _______ _______ _____ _____    ______ ____
ROOT
ATOM      1  C   UNL     1       0.449  11.947  19.644  0.00  0.00    +0.000 A 
ATOM      2  C   UNL     1      -0.748  12.632  19.376  0.00  0.00    +0.000 A 
ATOM      3  C   UNL     1      -1.729  11.651  18.974  0.00  0.00    +0.000 A 
ATOM      4  C   UNL     1      -1.104  10.421  19.037  0.00  0.00    +0.000 A 
ATOM      5  N   UNL     1       0.194  10.593  19.436  0.00  0.00    +0.000 N 
ENDROOT
BRANCH   2   6
ATOM      6  C   UNL     1      -0.907  14.091  19.498  0.00  0.00    +0.000 A 
ATOM      7  C   UNL     1      -1.629  14.663  20.556  0.00  0.00    +0.000 A 
ATOM      8  C   UNL     1      -1.773  16.051  20.666  0.00  0.00    +0.000 A 
ATOM      9  C   UNL     1      -1.137  16.880  19.751  0.00  0.00    +0.000 A 
ATOM     10  C   UNL     1      -0.382  16.342  18.719  0.00  0.00    +0.000 A 
ATOM     11  C   UNL     1      -0.296  14.953  18.574  0.00  0.00    +0.000 A 
BRANCH   9  12
ATOM     12  O   UNL     1      -1.234  18.236  19.835  0.00  0.00    +0.000 OA
ATOM     13  H   UNL     1      -0.447  18.572  20.294  0.00  0.00    +0.000 HD
ENDBRANCH   9  12
ENDBRANCH   2   6
BRANCH   3  14
ATOM     14  C   UNL     1      -3.128  11.774  18.549  0.00  0.00    +0.000 A 
ATOM     15  C   UNL     1      -4.117  12.212  19.444  0.00  0.00    +0.000 A 
ATOM     16  C   UNL     1      -5.460  12.276  19.061  0.00  0.00    +0.000 A 
ATOM     17  C   UNL     1      -5.817  11.949  17.759  0.00  0.00    +0.000 A 
ATOM     18  C   UNL     1      -4.855  11.550  16.842  0.00  0.00    +0.000 A 
ATOM     19  C   UNL     1      -3.517  11.451  17.238  0.00  0.00    +0.000 A 
BRANCH  17  20
ATOM     20  O   UNL     1      -7.113  12.009  17.340  0.00  0.00    +0.000 OA
ATOM     21  H   UNL     1      -7.679  11.645  18.039  0.00  0.00    +0.000 HD
ENDBRANCH  17  20
ENDBRANCH   3  14
BRANCH   1  22
ATOM     22  C   UNL     1       1.725  12.477  20.101  0.00  0.00    +0.000 C 
ATOM     23  O   UNL     1       2.060  12.687  21.258  0.00  0.00    +0.000 OA
BRANCH  22  25
ATOM     24  C   UNL     1       3.190  14.025  19.095  0.00  0.00    +0.000 C 
ATOM     25  O   UNL     1       2.506  12.773  19.020  0.00  0.00    +0.000 OA
ENDBRANCH  22  25
ENDBRANCH   1  22
BRANCH   5  26
ATOM     26  C   UNL     1       1.158   9.518  19.677  0.00  0.00    +0.000 C 
BRANCH  26  27
ATOM     27  C   UNL     1       1.895   9.018  18.459  0.00  0.00    +0.000 C 
ATOM     28  O   UNL     1       1.890   9.653  17.404  0.00  0.00    +0.000 OA
BRANCH  27  29
ATOM     29  C   UNL     1       2.626   7.714  18.522  0.00  0.00    +0.000 A 
ATOM     30  C   UNL     1       3.576   7.333  17.564  0.00  0.00    +0.000 A 
ATOM     31  C   UNL     1       4.260   6.118  17.687  0.00  0.00    +0.000 A 
ATOM     32  C   UNL     1       3.995   5.263  18.757  0.00  0.00    +0.000 A 
ATOM     33  C   UNL     1       3.036   5.633  19.701  0.00  0.00    +0.000 A 
ATOM     34  C   UNL     1       2.357   6.851  19.589  0.00  0.00    +0.000 A 
BRANCH  32  35
ATOM     35  O   UNL     1       4.594   4.056  18.986  0.00  0.00    +0.000 OA
ATOM     36  C   UNL     1       3.770   3.021  19.510  0.00  0.00    +0.000 C 
ENDBRANCH  32  35
ENDBRANCH  27  29
ENDBRANCH  26  27
ENDBRANCH   5  26
TORSDOF 10
ENDMDL
MODEL 3
REMARK VINA RESULT:      -7.2      0.416      1.242
REMARK  Name = 
REMARK  12 active torsions:
REMARK  status: ('A' for Active; 'I' for Inactive)
REMARK    1  A    between atoms: C_1  and  O_2
REMARK    2  A    between atoms: O_2  and  C_3
REMARK    3  A    between atoms: C_3  and  C_5
REMARK    4  A    between atoms: C_6  and  C_7
REMARK    5  A    between atoms: C_10  and  O_11
REMARK    6  A    between atoms: C_14  and  C_15
REMARK    7  A    between atoms: C_18  and  O_19
REMARK    8  A    between atoms: N_23  and  C_24
REMARK    9  A    between atoms: C_24  and  C_25
REMARK   10  A    between atoms: C_25  and  C_27
REMARK   11  A    between atoms: C_30  and  O_31
REMARK   12  A    between atoms: O_31  and  C_32
REMARK                            x       y       z     vdW  Elec       q    Type
REMARK                         _______ _______ _______ _____ _____    ______ ____
ROOT
ATOM      1  C   UNL     1       4.806   5.899  17.869  0.00  0.00    +0.000 A 
ATOM      2  C   UNL     1       3.485   6.144  18.280  0.00  0.00    +0.000 A 
ATOM      3  C   UNL     1       3.273   7.572  18.232  0.00  0.00    +0.000 A 
ATOM      4  C   UNL     1       4.451   8.129  17.775  0.00  0.00    +0.000 A 
ATOM      5  N   UNL     1       5.367   7.135  17.558  0.00  0.00    +0.000 N 
ENDROOT
BRANCH   2   6
ATOM      6  C   UNL     1       2.538   5.090  18.680  0.00  0.00    +0.000 A 
ATOM      7  C   UNL     1       1.950   4.235  17.735  0.00  0.00    +0.000 A 
ATOM      8  C   UNL     1       1.053   3.234  18.124  0.00  0.00    +0.000 A 
ATOM      9  C   UNL     1       0.789   3.038  19.474  0.00  0.00    +0.000 A 
ATOM     10  C   UNL     1       1.389   3.842  20.433  0.00  0.00    +0.000 A 
ATOM     11  C   UNL     1       2.232   4.884  20.035  0.00  0.00    +0.000 A 
BRANCH   9  12
ATOM     12  O   UNL     1      -0.061   2.062  19.896  0.00  0.00    +0.000 OA
ATOM     13  H   UNL     1      -0.968   2.329  19.676  0.00  0.00    +0.000 HD
ENDBRANCH   9  12
ENDBRANCH   2   6
BRANCH   3  14
ATOM     14  C   UNL     1       2.116   8.408  18.572  0.00  0.00    +0.000 A 
ATOM     15  C   UNL     1       1.424   9.118  17.580  0.00  0.00    +0.000 A 
ATOM     16  C   UNL     1       0.357   9.961  17.906  0.00  0.00    +0.000 A 
ATOM     17  C   UNL     1      -0.058  10.060  19.228  0.00  0.00    +0.000 A 
ATOM     18  C   UNL     1       0.584   9.339  20.225  0.00  0.00    +0.000 A 
ATOM     19  C   UNL     1       1.674   8.525  19.901  0.00  0.00    +0.000 A 
BRANCH  17  20
ATOM     20  O   UNL     1      -1.101  10.860  19.588  0.00  0.00    +0.000 OA
ATOM     21  H   UNL     1      -1.831  10.714  18.964  0.00  0.00    +0.000 HD
ENDBRANCH  17  20
ENDBRANCH   3  14
BRANCH   1  22
ATOM     22  C   UNL     1       5.499   4.627  17.725  0.00  0.00    +0.000 C 
ATOM     23  O   UNL     1       6.297   4.135  18.510  0.00  0.00    +0.000 OA
BRANCH  22  25
ATOM     24  C   UNL     1       6.232   4.019  15.570  0.00  0.00    +0.000 C 
ATOM     25  O   UNL     1       5.171   4.065  16.525  0.00  0.00    +0.000 OA
ENDBRANCH  22  25
ENDBRANCH   1  22
BRANCH   5  26
ATOM     26  C   UNL     1       6.713   7.326  17.015  0.00  0.00    +0.000 C 
BRANCH  26  27
ATOM     27  C   UNL     1       7.788   7.630  18.029  0.00  0.00    +0.000 C 
ATOM     28  O   UNL     1       8.272   6.743  18.733  0.00  0.00    +0.000 OA
BRANCH  27  29
ATOM     29  C   UNL     1       8.260   9.040  18.204  0.00  0.00    +0.000 A 
ATOM     30  C   UNL     1       9.217   9.403  19.162  0.00  0.00    +0.000 A 
ATOM     31  C   UNL     1       9.653  10.730  19.262  0.00  0.00    +0.000 A 
ATOM     32  C   UNL     1       9.130  11.710  18.419  0.00  0.00    +0.000 A 
ATOM     33  C   UNL     1       8.164  11.353  17.477  0.00  0.00    +0.000 A 
ATOM     34  C   UNL     1       7.733  10.027  17.366  0.00  0.00    +0.000 A 
BRANCH  32  35
ATOM     35  O   UNL     1       9.474  13.033  18.419  0.00  0.00    +0.000 OA
ATOM     36  C   UNL     1       8.408  13.973  18.481  0.00  0.00    +0.000 C 
ENDBRANCH  32  35
ENDBRANCH  27  29
ENDBRANCH  26  27
ENDBRANCH   5  26
TORSDOF 10
ENDMDL
MODEL 4
REMARK VINA RESULT:      -7.1      4.252      8.948
REMARK  Name = 
REMARK  12 active torsions:
REMARK  status: ('A' for Active; 'I' for Inactive)
REMARK    1  A    between atoms: C_1  and  O_2
REMARK    2  A    between atoms: O_2  and  C_3
REMARK    3  A    between atoms: C_3  and  C_5
REMARK    4  A    between atoms: C_6  and  C_7
REMARK    5  A    between atoms: C_10  and  O_11
REMARK    6  A    between atoms: C_14  and  C_15
REMARK    7  A    between atoms: C_18  and  O_19
REMARK    8  A    between atoms: N_23  and  C_24
REMARK    9  A    between atoms: C_24  and  C_25
REMARK   10  A    between atoms: C_25  and  C_27
REMARK   11  A    between atoms: C_30  and  O_31
REMARK   12  A    between atoms: O_31  and  C_32
REMARK                            x       y       z     vdW  Elec       q    Type
REMARK                         _______ _______ _______ _____ _____    ______ ____
ROOT
ATOM      1  C   UNL     1       0.449  11.928  19.706  0.00  0.00    +0.000 A 
ATOM      2  C   UNL     1      -0.743  12.613  19.420  0.00  0.00    +0.000 A 
ATOM      3  C   UNL     1      -1.713  11.635  18.986  0.00  0.00    +0.000 A 
ATOM      4  C   UNL     1      -1.086  10.406  19.048  0.00  0.00    +0.000 A 
ATOM      5  N   UNL     1       0.202  10.577  19.476  0.00  0.00    +0.000 N 
ENDROOT
BRANCH   2   6
ATOM      6  C   UNL     1      -0.909  14.070  19.556  0.00  0.00    +0.000 A 
ATOM      7  C   UNL     1      -0.403  14.959  18.595  0.00  0.00    +0.000 A 
ATOM      8  C   UNL     1      -0.568  16.342  18.730  0.00  0.00    +0.000 A 
ATOM      9  C   UNL     1      -1.302  16.842  19.797  0.00  0.00    +0.000 A 
ATOM     10  C   UNL     1      -1.850  15.984  20.740  0.00  0.00    +0.000 A 
ATOM     11  C   UNL     1      -1.625  14.608  20.637  0.00  0.00    +0.000 A 
BRANCH   9  12
ATOM     12  O   UNL     1      -1.504  18.180  19.955  0.00  0.00    +0.000 OA
ATOM     13  H   UNL     1      -0.958  18.651  19.304  0.00  0.00    +0.000 HD
ENDBRANCH   9  12
ENDBRANCH   2   6
BRANCH   3  14
ATOM     14  C   UNL     1      -3.103  11.759  18.533  0.00  0.00    +0.000 A 
ATOM     15  C   UNL     1      -3.472  11.393  17.230  0.00  0.00    +0.000 A 
ATOM     16  C   UNL     1      -4.783  11.562  16.775  0.00  0.00    +0.000 A 
ATOM     17  C   UNL     1      -5.750  12.056  17.642  0.00  0.00    +0.000 A 
ATOM     18  C   UNL     1      -5.422  12.391  18.948  0.00  0.00    +0.000 A 
ATOM     19  C   UNL     1      -4.102  12.254  19.389  0.00  0.00    +0.000 A 
BRANCH  17  20
ATOM     20  O   UNL     1      -7.042  12.227  17.244  0.00  0.00    +0.000 OA
ATOM     21  H   UNL     1      -7.351  11.399  16.840  0.00  0.00    +0.000 HD
ENDBRANCH  17  20
ENDBRANCH   3  14
BRANCH   1  22
ATOM     22  C   UNL     1       1.714  12.456  20.195  0.00  0.00    +0.000 C 
ATOM     23  O   UNL     1       2.008  12.695  21.358  0.00  0.00    +0.000 OA
BRANCH  22  25
ATOM     24  C   UNL     1       3.013  14.057  19.054  0.00  0.00    +0.000 C 
ATOM     25  O   UNL     1       2.538  12.712  19.137  0.00  0.00    +0.000 OA
ENDBRANCH  22  25
ENDBRANCH   1  22
BRANCH   5  26
ATOM     26  C   UNL     1       1.164   9.501  19.725  0.00  0.00    +0.000 C 
BRANCH  26  27
ATOM     27  C   UNL     1       1.894   8.985  18.510  0.00  0.00    +0.000 C 
ATOM     28  O   UNL     1       1.892   9.612  17.450  0.00  0.00    +0.000 OA
BRANCH  27  29
ATOM     29  C   UNL     1       2.615   7.676  18.582  0.00  0.00    +0.000 A 
ATOM     30  C   UNL     1       2.379   6.739  19.598  0.00  0.00    +0.000 A 
ATOM     31  C   UNL     1       3.054   5.511  19.602  0.00  0.00    +0.000 A 
ATOM     32  C   UNL     1       3.979   5.211  18.602  0.00  0.00    +0.000 A 
ATOM     33  C   UNL     1       4.227   6.151  17.601  0.00  0.00    +0.000 A 
ATOM     34  C   UNL     1       3.549   7.374  17.587  0.00  0.00    +0.000 A 
BRANCH  32  35
ATOM     35  O   UNL     1       4.697   4.053  18.496  0.00  0.00    +0.000 OA
ATOM     36  C   UNL     1       4.454   3.056  19.481  0.00  0.00    +0.000 C 
ENDBRANCH  32  35
ENDBRANCH  27  29
ENDBRANCH  26  27
ENDBRANCH   5  26
TORSDOF 10
ENDMDL
MODEL 5
REMARK VINA RESULT:      -7.1      0.279      1.201
REMARK  Name = 
REMARK  12 active torsions:
REMARK  status: ('A' for Active; 'I' for Inactive)
REMARK    1  A    between atoms: C_1  and  O_2
REMARK    2  A    between atoms: O_2  and  C_3
REMARK    3  A    between atoms: C_3  and  C_5
REMARK    4  A    between atoms: C_6  and  C_7
REMARK    5  A    between atoms: C_10  and  O_11
REMARK    6  A    between atoms: C_14  and  C_15
REMARK    7  A    between atoms: C_18  and  O_19
REMARK    8  A    between atoms: N_23  and  C_24
REMARK    9  A    between atoms: C_24  and  C_25
REMARK   10  A    between atoms: C_25  and  C_27
REMARK   11  A    between atoms: C_30  and  O_31
REMARK   12  A    between atoms: O_31  and  C_32
REMARK                            x       y       z     vdW  Elec       q    Type
REMARK                         _______ _______ _______ _____ _____    ______ ____
ROOT
ATOM      1  C   UNL     1       4.903   5.886  17.889  0.00  0.00    +0.000 A 
ATOM      2  C   UNL     1       3.581   6.109  18.305  0.00  0.00    +0.000 A 
ATOM      3  C   UNL     1       3.347   7.534  18.267  0.00  0.00    +0.000 A 
ATOM      4  C   UNL     1       4.516   8.111  17.812  0.00  0.00    +0.000 A 
ATOM      5  N   UNL     1       5.446   7.132  17.586  0.00  0.00    +0.000 N 
ENDROOT
BRANCH   2   6
ATOM      6  C   UNL     1       2.649   5.039  18.700  0.00  0.00    +0.000 A 
ATOM      7  C   UNL     1       2.362   4.776  20.048  0.00  0.00    +0.000 A 
ATOM      8  C   UNL     1       1.473   3.759  20.414  0.00  0.00    +0.000 A 
ATOM      9  C   UNL     1       0.813   3.040  19.426  0.00  0.00    +0.000 A 
ATOM     10  C   UNL     1       1.045   3.306  18.085  0.00  0.00    +0.000 A 
ATOM     11  C   UNL     1       1.985   4.278  17.724  0.00  0.00    +0.000 A 
BRANCH   9  12
ATOM     12  O   UNL     1      -0.076   2.056  19.739  0.00  0.00    +0.000 OA
ATOM     13  H   UNL     1       0.373   1.406  20.305  0.00  0.00    +0.000 HD
ENDBRANCH   9  12
ENDBRANCH   2   6
BRANCH   3  14
ATOM     14  C   UNL     1       2.179   8.351  18.615  0.00  0.00    +0.000 A 
ATOM     15  C   UNL     1       1.488   9.076  17.632  0.00  0.00    +0.000 A 
ATOM     16  C   UNL     1       0.410   9.901  17.968  0.00  0.00    +0.000 A 
ATOM     17  C   UNL     1      -0.017   9.966  19.288  0.00  0.00    +0.000 A 
ATOM     18  C   UNL     1       0.623   9.230  20.274  0.00  0.00    +0.000 A 
ATOM     19  C   UNL     1       1.724   8.434  19.942  0.00  0.00    +0.000 A 
BRANCH  17  20
ATOM     20  O   UNL     1      -1.071  10.748  19.656  0.00  0.00    +0.000 OA
ATOM     21  H   UNL     1      -0.725  11.570  20.040  0.00  0.00    +0.000 HD
ENDBRANCH  17  20
ENDBRANCH   3  14
BRANCH   1  22
ATOM     22  C   UNL     1       5.615   4.626  17.736  0.00  0.00    +0.000 C 
ATOM     23  O   UNL     1       6.537   4.215  18.427  0.00  0.00    +0.000 OA
BRANCH  22  25
ATOM     24  C   UNL     1       5.491   4.544  15.384  0.00  0.00    +0.000 C 
ATOM     25  O   UNL     1       5.136   3.965  16.641  0.00  0.00    +0.000 OA
ENDBRANCH  22  25
ENDBRANCH   1  22
BRANCH   5  26
ATOM     26  C   UNL     1       6.789   7.346  17.042  0.00  0.00    +0.000 C 
BRANCH  26  27
ATOM     27  C   UNL     1       7.857   7.675  18.054  0.00  0.00    +0.000 C 
ATOM     28  O   UNL     1       8.352   6.801  18.768  0.00  0.00    +0.000 OA
BRANCH  27  29
ATOM     29  C   UNL     1       8.311   9.092  18.215  0.00  0.00    +0.000 A 
ATOM     30  C   UNL     1       7.885  10.123  17.366  0.00  0.00    +0.000 A 
ATOM     31  C   UNL     1       8.310  11.440  17.580  0.00  0.00    +0.000 A 
ATOM     32  C   UNL     1       9.173  11.741  18.633  0.00  0.00    +0.000 A 
ATOM     33  C   UNL     1       9.612  10.712  19.468  0.00  0.00    +0.000 A 
ATOM     34  C   UNL     1       9.183   9.397  19.264  0.00  0.00    +0.000 A 
BRANCH  32  35
ATOM     35  O   UNL     1       9.656  12.981  18.944  0.00  0.00    +0.000 OA
ATOM     36  C   UNL     1       9.629  13.958  17.910  0.00  0.00    +0.000 C 
ENDBRANCH  32  35
ENDBRANCH  27  29
ENDBRANCH  26  27
ENDBRANCH   5  26
TORSDOF 10
ENDMDL
MODEL 6
REMARK VINA RESULT:      -6.9      1.456      2.264
REMARK  Name = 
REMARK  12 active torsions:
REMARK  status: ('A' for Active; 'I' for Inactive)
REMARK    1  A    between atoms: C_1  and  O_2
REMARK    2  A    between atoms: O_2  and  C_3
REMARK    3  A    between atoms: C_3  and  C_5
REMARK    4  A    between atoms: C_6  and  C_7
REMARK    5  A    between atoms: C_10  and  O_11
REMARK    6  A    between atoms: C_14  and  C_15
REMARK    7  A    between atoms: C_18  and  O_19
REMARK    8  A    between atoms: N_23  and  C_24
REMARK    9  A    between atoms: C_24  and  C_25
REMARK   10  A    between atoms: C_25  and  C_27
REMARK   11  A    between atoms: C_30  and  O_31
REMARK   12  A    between atoms: O_31  and  C_32
REMARK                            x       y       z     vdW  Elec       q    Type
REMARK                         _______ _______ _______ _____ _____    ______ ____
ROOT
ATOM      1  C   UNL     1       4.104   5.268  17.845  0.00  0.00    +0.000 A 
ATOM      2  C   UNL     1       3.076   5.677  18.710  0.00  0.00    +0.000 A 
ATOM      3  C   UNL     1       2.802   7.068  18.432  0.00  0.00    +0.000 A 
ATOM      4  C   UNL     1       3.648   7.437  17.405  0.00  0.00    +0.000 A 
ATOM      5  N   UNL     1       4.426   6.367  17.052  0.00  0.00    +0.000 N 
ENDROOT
BRANCH   2   6
ATOM      6  C   UNL     1       2.435   4.799  19.703  0.00  0.00    +0.000 A 
ATOM      7  C   UNL     1       1.199   4.184  19.449  0.00  0.00    +0.000 A 
ATOM      8  C   UNL     1       0.599   3.348  20.397  0.00  0.00    +0.000 A 
ATOM      9  C   UNL     1       1.267   3.067  21.582  0.00  0.00    +0.000 A 
ATOM     10  C   UNL     1       2.510   3.627  21.841  0.00  0.00    +0.000 A 
ATOM     11  C   UNL     1       3.075   4.515  20.920  0.00  0.00    +0.000 A 
BRANCH   9  12
ATOM     12  O   UNL     1       0.728   2.242  22.522  0.00  0.00    +0.000 OA
ATOM     13  H   UNL     1       1.089   2.488  23.390  0.00  0.00    +0.000 HD
ENDBRANCH   9  12
ENDBRANCH   2   6
BRANCH   3  14
ATOM     14  C   UNL     1       1.867   8.027  19.030  0.00  0.00    +0.000 A 
ATOM     15  C   UNL     1       1.241   9.008  18.246  0.00  0.00    +0.000 A 
ATOM     16  C   UNL     1       0.393   9.960  18.821  0.00  0.00    +0.000 A 
ATOM     17  C   UNL     1       0.125   9.904  20.183  0.00  0.00    +0.000 A 
ATOM     18  C   UNL     1       0.700   8.921  20.976  0.00  0.00    +0.000 A 
ATOM     19  C   UNL     1       1.576   7.993  20.405  0.00  0.00    +0.000 A 
BRANCH  17  20
ATOM     20  O   UNL     1      -0.705  10.805  20.782  0.00  0.00    +0.000 OA
ATOM     21  H   UNL     1      -0.191  11.313  21.429  0.00  0.00    +0.000 HD
ENDBRANCH  17  20
ENDBRANCH   3  14
BRANCH   1  22
ATOM     22  C   UNL     1       4.724   3.957  17.715  0.00  0.00    +0.000 C 
ATOM     23  O   UNL     1       5.710   3.550  18.313  0.00  0.00    +0.000 OA
BRANCH  22  25
ATOM     24  C   UNL     1       3.160   2.255  17.260  0.00  0.00    +0.000 C 
ATOM     25  O   UNL     1       4.066   3.238  16.758  0.00  0.00    +0.000 OA
ENDBRANCH  22  25
ENDBRANCH   1  22
BRANCH   5  26
ATOM     26  C   UNL     1       5.403   6.350  15.962  0.00  0.00    +0.000 C 
BRANCH  26  27
ATOM     27  C   UNL     1       6.838   6.143  16.376  0.00  0.00    +0.000 C 
ATOM     28  O   UNL     1       7.488   5.179  15.967  0.00  0.00    +0.000 OA
BRANCH  27  29
ATOM     29  C   UNL     1       7.481   7.109  17.321  0.00  0.00    +0.000 A 
ATOM     30  C   UNL     1       8.037   6.711  18.545  0.00  0.00    +0.000 A 
ATOM     31  C   UNL     1       8.661   7.648  19.379  0.00  0.00    +0.000 A 
ATOM     32  C   UNL     1       8.723   8.991  19.009  0.00  0.00    +0.000 A 
ATOM     33  C   UNL     1       8.153   9.391  17.799  0.00  0.00    +0.000 A 
ATOM     34  C   UNL     1       7.539   8.457  16.958  0.00  0.00    +0.000 A 
BRANCH  32  35
ATOM     35  O   UNL     1       9.303   9.995  19.733  0.00  0.00    +0.000 OA
ATOM     36  C   UNL     1       9.856  11.079  18.996  0.00  0.00    +0.000 C 
ENDBRANCH  32  35
ENDBRANCH  27  29
ENDBRANCH  26  27
ENDBRANCH   5  26
TORSDOF 10
ENDMDL
MODEL 7
REMARK VINA RESULT:      -6.9      0.529      1.254
REMARK  Name = 
REMARK  12 active torsions:
REMARK  status: ('A' for Active; 'I' for Inactive)
REMARK    1  A    between atoms: C_1  and  O_2
REMARK    2  A    between atoms: O_2  and  C_3
REMARK    3  A    between atoms: C_3  and  C_5
REMARK    4  A    between atoms: C_6  and  C_7
REMARK    5  A    between atoms: C_10  and  O_11
REMARK    6  A    between atoms: C_14  and  C_15
REMARK    7  A    between atoms: C_18  and  O_19
REMARK    8  A    between atoms: N_23  and  C_24
REMARK    9  A    between atoms: C_24  and  C_25
REMARK   10  A    between atoms: C_25  and  C_27
REMARK   11  A    between atoms: C_30  and  O_31
REMARK   12  A    between atoms: O_31  and  C_32
REMARK                            x       y       z     vdW  Elec       q    Type
REMARK                         _______ _______ _______ _____ _____    ______ ____
ROOT
ATOM      1  C   UNL     1       4.723   5.928  17.828  0.00  0.00    +0.000 A 
ATOM      2  C   UNL     1       3.407   6.173  18.251  0.00  0.00    +0.000 A 
ATOM      3  C   UNL     1       3.197   7.601  18.214  0.00  0.00    +0.000 A 
ATOM      4  C   UNL     1       4.373   8.159  17.752  0.00  0.00    +0.000 A 
ATOM      5  N   UNL     1       5.285   7.165  17.521  0.00  0.00    +0.000 N 
ENDROOT
BRANCH   2   6
ATOM      6  C   UNL     1       2.460   5.118  18.651  0.00  0.00    +0.000 A 
ATOM      7  C   UNL     1       1.974   4.180  17.727  0.00  0.00    +0.000 A 
ATOM      8  C   UNL     1       1.077   3.179  18.116  0.00  0.00    +0.000 A 
ATOM      9  C   UNL     1       0.712   3.069  19.452  0.00  0.00    +0.000 A 
ATOM     10  C   UNL     1       1.211   3.956  20.395  0.00  0.00    +0.000 A 
ATOM     11  C   UNL     1       2.054   4.996  19.989  0.00  0.00    +0.000 A 
BRANCH   9  12
ATOM     12  O   UNL     1      -0.142   2.096  19.876  0.00  0.00    +0.000 OA
ATOM     13  H   UNL     1      -0.915   2.089  19.288  0.00  0.00    +0.000 HD
ENDBRANCH   9  12
ENDBRANCH   2   6
BRANCH   3  14
ATOM     14  C   UNL     1       2.045   8.438  18.570  0.00  0.00    +0.000 A 
ATOM     15  C   UNL     1       1.318   9.120  17.582  0.00  0.00    +0.000 A 
ATOM     16  C   UNL     1       0.255   9.963  17.920  0.00  0.00    +0.000 A 
ATOM     17  C   UNL     1      -0.121  10.090  19.251  0.00  0.00    +0.000 A 
ATOM     18  C   UNL     1       0.555   9.396  20.245  0.00  0.00    +0.000 A 
ATOM     19  C   UNL     1       1.641   8.583  19.908  0.00  0.00    +0.000 A 
BRANCH  17  20
ATOM     20  O   UNL     1      -1.159  10.891  19.624  0.00  0.00    +0.000 OA
ATOM     21  H   UNL     1      -1.291  10.798  20.581  0.00  0.00    +0.000 HD
ENDBRANCH  17  20
ENDBRANCH   3  14
BRANCH   1  22
ATOM     22  C   UNL     1       5.413   4.656  17.670  0.00  0.00    +0.000 C 
ATOM     23  O   UNL     1       5.583   4.038  16.628  0.00  0.00    +0.000 OA
BRANCH  22  25
ATOM     24  C   UNL     1       5.071   3.083  19.390  0.00  0.00    +0.000 C 
ATOM     25  O   UNL     1       5.810   4.200  18.895  0.00  0.00    +0.000 OA
ENDBRANCH  22  25
ENDBRANCH   1  22
BRANCH   5  26
ATOM     26  C   UNL     1       6.628   7.356  16.970  0.00  0.00    +0.000 C 
BRANCH  26  27
ATOM     27  C   UNL     1       7.713   7.634  17.979  0.00  0.00    +0.000 C 
ATOM     28  O   UNL     1       8.183   6.734  18.677  0.00  0.00    +0.000 OA
BRANCH  27  29
ATOM     29  C   UNL     1       8.216   9.033  18.157  0.00  0.00    +0.000 A 
ATOM     30  C   UNL     1       7.794  10.096  17.346  0.00  0.00    +0.000 A 
ATOM     31  C   UNL     1       8.267  11.394  17.575  0.00  0.00    +0.000 A 
ATOM     32  C   UNL     1       9.174  11.644  18.605  0.00  0.00    +0.000 A 
ATOM     33  C   UNL     1       9.608  10.583  19.401  0.00  0.00    +0.000 A 
ATOM     34  C   UNL     1       9.131   9.286  19.182  0.00  0.00    +0.000 A 
BRANCH  32  35
ATOM     35  O   UNL     1       9.704  12.861  18.929  0.00  0.00    +0.000 OA
ATOM     36  C   UNL     1       9.086  14.004  18.348  0.00  0.00    +0.000 C 
ENDBRANCH  32  35
ENDBRANCH  27  29
ENDBRANCH  26  27
ENDBRANCH   5  26
TORSDOF 10
ENDMDL
MODEL 8
REMARK VINA RESULT:      -6.8      0.586      1.282
REMARK  Name = 
REMARK  12 active torsions:
REMARK  status: ('A' for Active; 'I' for Inactive)
REMARK    1  A    between atoms: C_1  and  O_2
REMARK    2  A    between atoms: O_2  and  C_3
REMARK    3  A    between atoms: C_3  and  C_5
REMARK    4  A    between atoms: C_6  and  C_7
REMARK    5  A    between atoms: C_10  and  O_11
REMARK    6  A    between atoms: C_14  and  C_15
REMARK    7  A    between atoms: C_18  and  O_19
REMARK    8  A    between atoms: N_23  and  C_24
REMARK    9  A    between atoms: C_24  and  C_25
REMARK   10  A    between atoms: C_25  and  C_27
REMARK   11  A    between atoms: C_30  and  O_31
REMARK   12  A    between atoms: O_31  and  C_32
REMARK                            x       y       z     vdW  Elec       q    Type
REMARK                         _______ _______ _______ _____ _____    ______ ____
ROOT
ATOM      1  C   UNL     1       4.752   5.917  17.840  0.00  0.00    +0.000 A 
ATOM      2  C   UNL     1       3.435   6.170  18.256  0.00  0.00    +0.000 A 
ATOM      3  C   UNL     1       3.236   7.601  18.222  0.00  0.00    +0.000 A 
ATOM      4  C   UNL     1       4.419   8.150  17.769  0.00  0.00    +0.000 A 
ATOM      5  N   UNL     1       5.325   7.150  17.541  0.00  0.00    +0.000 N 
ENDROOT
BRANCH   2   6
ATOM      6  C   UNL     1       2.478   5.122  18.647  0.00  0.00    +0.000 A 
ATOM      7  C   UNL     1       1.991   4.190  17.719  0.00  0.00    +0.000 A 
ATOM      8  C   UNL     1       1.084   3.194  18.099  0.00  0.00    +0.000 A 
ATOM      9  C   UNL     1       0.709   3.085  19.432  0.00  0.00    +0.000 A 
ATOM     10  C   UNL     1       1.207   3.966  20.380  0.00  0.00    +0.000 A 
ATOM     11  C   UNL     1       2.061   5.001  19.983  0.00  0.00    +0.000 A 
BRANCH   9  12
ATOM     12  O   UNL     1      -0.155   2.117  19.849  0.00  0.00    +0.000 OA
ATOM     13  H   UNL     1      -0.156   2.104  20.820  0.00  0.00    +0.000 HD
ENDBRANCH   9  12
ENDBRANCH   2   6
BRANCH   3  14
ATOM     14  C   UNL     1       2.088   8.445  18.572  0.00  0.00    +0.000 A 
ATOM     15  C   UNL     1       1.670   8.574  19.905  0.00  0.00    +0.000 A 
ATOM     16  C   UNL     1       0.542   9.332  20.238  0.00  0.00    +0.000 A 
ATOM     17  C   UNL     1      -0.147  10.008  19.240  0.00  0.00    +0.000 A 
ATOM     18  C   UNL     1       0.268   9.929  17.917  0.00  0.00    +0.000 A 
ATOM     19  C   UNL     1       1.374   9.142  17.583  0.00  0.00    +0.000 A 
BRANCH  17  20
ATOM     20  O   UNL     1      -1.244  10.767  19.521  0.00  0.00    +0.000 OA
ATOM     21  H   UNL     1      -1.928  10.576  18.859  0.00  0.00    +0.000 HD
ENDBRANCH  17  20
ENDBRANCH   3  14
BRANCH   1  22
ATOM     22  C   UNL     1       5.433   4.640  17.684  0.00  0.00    +0.000 C 
ATOM     23  O   UNL     1       5.594   4.018  16.643  0.00  0.00    +0.000 OA
BRANCH  22  25
ATOM     24  C   UNL     1       5.062   3.101  19.430  0.00  0.00    +0.000 C 
ATOM     25  O   UNL     1       5.833   4.185  18.908  0.00  0.00    +0.000 OA
ENDBRANCH  22  25
ENDBRANCH   1  22
BRANCH   5  26
ATOM     26  C   UNL     1       6.672   7.333  16.998  0.00  0.00    +0.000 C 
BRANCH  26  27
ATOM     27  C   UNL     1       7.752   7.611  18.013  0.00  0.00    +0.000 C 
ATOM     28  O   UNL     1       8.228   6.708  18.704  0.00  0.00    +0.000 OA
BRANCH  27  29
ATOM     29  C   UNL     1       8.241   9.012  18.207  0.00  0.00    +0.000 A 
ATOM     30  C   UNL     1       9.202   9.351  19.169  0.00  0.00    +0.000 A 
ATOM     31  C   UNL     1       9.654  10.671  19.288  0.00  0.00    +0.000 A 
ATOM     32  C   UNL     1       9.143  11.669  18.457  0.00  0.00    +0.000 A 
ATOM     33  C   UNL     1       8.172  11.336  17.511  0.00  0.00    +0.000 A 
ATOM     34  C   UNL     1       7.726  10.017  17.382  0.00  0.00    +0.000 A 
BRANCH  32  35
ATOM     35  O   UNL     1       9.502  12.988  18.475  0.00  0.00    +0.000 OA
ATOM     36  C   UNL     1       8.465  13.938  18.259  0.00  0.00    +0.000 C 
ENDBRANCH  32  35
ENDBRANCH  27  29
ENDBRANCH  26  27
ENDBRANCH   5  26
TORSDOF 10
ENDMDL
MODEL 9
REMARK VINA RESULT:      -6.8      0.585      1.497
REMARK  Name = 
REMARK  12 active torsions:
REMARK  status: ('A' for Active; 'I' for Inactive)
REMARK    1  A    between atoms: C_1  and  O_2
REMARK    2  A    between atoms: O_2  and  C_3
REMARK    3  A    between atoms: C_3  and  C_5
REMARK    4  A    between atoms: C_6  and  C_7
REMARK    5  A    between atoms: C_10  and  O_11
REMARK    6  A    between atoms: C_14  and  C_15
REMARK    7  A    between atoms: C_18  and  O_19
REMARK    8  A    between atoms: N_23  and  C_24
REMARK    9  A    between atoms: C_24  and  C_25
REMARK   10  A    between atoms: C_25  and  C_27
REMARK   11  A    between atoms: C_30  and  O_31
REMARK   12  A    between atoms: O_31  and  C_32
REMARK                            x       y       z     vdW  Elec       q    Type
REMARK                         _______ _______ _______ _____ _____    ______ ____
ROOT
ATOM      1  C   UNL     1       5.205   5.880  17.713  0.00  0.00    +0.000 A 
ATOM      2  C   UNL     1       3.863   6.006  18.108  0.00  0.00    +0.000 A 
ATOM      3  C   UNL     1       3.567   7.416  18.199  0.00  0.00    +0.000 A 
ATOM      4  C   UNL     1       4.721   8.083  17.837  0.00  0.00    +0.000 A 
ATOM      5  N   UNL     1       5.699   7.172  17.547  0.00  0.00    +0.000 N 
ENDROOT
BRANCH   2   6
ATOM      6  C   UNL     1       2.971   4.864  18.370  0.00  0.00    +0.000 A 
ATOM      7  C   UNL     1       3.155   4.029  19.483  0.00  0.00    +0.000 A 
ATOM      8  C   UNL     1       2.300   2.948  19.726  0.00  0.00    +0.000 A 
ATOM      9  C   UNL     1       1.212   2.735  18.889  0.00  0.00    +0.000 A 
ATOM     10  C   UNL     1       0.981   3.570  17.806  0.00  0.00    +0.000 A 
ATOM     11  C   UNL     1       1.876   4.608  17.528  0.00  0.00    +0.000 A 
BRANCH   9  12
ATOM     12  O   UNL     1       0.344   1.707  19.103  0.00  0.00    +0.000 OA
ATOM     13  H   UNL     1       0.269   1.194  18.282  0.00  0.00    +0.000 HD
ENDBRANCH   9  12
ENDBRANCH   2   6
BRANCH   3  14
ATOM     14  C   UNL     1       2.355   8.146  18.588  0.00  0.00    +0.000 A 
ATOM     15  C   UNL     1       1.653   8.926  17.656  0.00  0.00    +0.000 A 
ATOM     16  C   UNL     1       0.530   9.668  18.035  0.00  0.00    +0.000 A 
ATOM     17  C   UNL     1       0.071   9.595  19.344  0.00  0.00    +0.000 A 
ATOM     18  C   UNL     1       0.723   8.801  20.277  0.00  0.00    +0.000 A 
ATOM     19  C   UNL     1       1.867   8.088  19.904  0.00  0.00    +0.000 A 
BRANCH  17  20
ATOM     20  O   UNL     1      -1.026  10.292  19.753  0.00  0.00    +0.000 OA
ATOM     21  H   UNL     1      -0.944  10.464  20.704  0.00  0.00    +0.000 HD
ENDBRANCH  17  20
ENDBRANCH   3  14
BRANCH   1  22
ATOM     22  C   UNL     1       5.977   4.671  17.462  0.00  0.00    +0.000 C 
ATOM     23  O   UNL     1       6.837   4.188  18.183  0.00  0.00    +0.000 OA
BRANCH  22  25
ATOM     24  C   UNL     1       6.657   4.263  15.243  0.00  0.00    +0.000 C 
ATOM     25  O   UNL     1       5.639   4.164  16.240  0.00  0.00    +0.000 OA
ENDBRANCH  22  25
ENDBRANCH   1  22
BRANCH   5  26
ATOM     26  C   UNL     1       7.044   7.493  17.067  0.00  0.00    +0.000 C 
BRANCH  26  27
ATOM     27  C   UNL     1       8.046   7.862  18.133  0.00  0.00    +0.000 C 
ATOM     28  O   UNL     1       8.522   7.010  18.885  0.00  0.00    +0.000 OA
BRANCH  27  29
ATOM     29  C   UNL     1       8.453   9.292  18.301  0.00  0.00    +0.000 A 
ATOM     30  C   UNL     1       9.367   9.708  19.280  0.00  0.00    +0.000 A 
ATOM     31  C   UNL     1       9.744  11.053  19.373  0.00  0.00    +0.000 A 
ATOM     32  C   UNL     1       9.204  12.000  18.502  0.00  0.00    +0.000 A 
ATOM     33  C   UNL     1       8.280  11.590  17.540  0.00  0.00    +0.000 A 
ATOM     34  C   UNL     1       7.909  10.246  17.435  0.00  0.00    +0.000 A 
BRANCH  32  35
ATOM     35  O   UNL     1       9.491  13.336  18.493  0.00  0.00    +0.000 OA
ATOM     36  C   UNL     1      10.867  13.695  18.442  0.00  0.00    +0.000 C 
ENDBRANCH  32  35
ENDBRANCH  27  29
ENDBRANCH  26  27
ENDBRANCH   5  26
TORSDOF 10
ENDMDL
