MODEL 1
REMARK VINA RESULT:      -8.7      0.000      0.000
REMARK  Name = 
REMARK  9 active torsions:
REMARK  status: ('A' for Active; 'I' for Inactive)
REMARK    1  A    between atoms: C_2  and  C_13
REMARK    2  A    between atoms: N_3  and  C_4
REMARK    3  A    between atoms: C_4  and  C_5
REMARK    4  A    between atoms: C_5  and  C_6
REMARK    5  A    between atoms: C_6  and  N_7
REMARK    6  A    between atoms: C_16  and  C_17
REMARK    7  A    between atoms: C_18  and  C_19
REMARK    8  A    between atoms: C_22  and  O_23
REMARK    9  A    between atoms: C_24  and  O_25
REMARK                            x       y       z     vdW  Elec       q    Type
REMARK                         _______ _______ _______ _____ _____    ______ ____
ROOT
ATOM      1  C   UNL     1       6.202   5.395  18.051  0.00  0.00    +0.000 A 
ATOM      2  C   UNL     1       7.367   5.541  18.812  0.00  0.00    +0.000 A 
ATOM      3  C   UNL     1       8.111   6.726  18.732  0.00  0.00    +0.000 A 
ATOM      4  C   UNL     1       7.711   7.778  17.894  0.00  0.00    +0.000 A 
ATOM      5  C   UNL     1       6.520   7.640  17.172  0.00  0.00    +0.000 A 
ATOM      6  C   UNL     1       5.774   6.459  17.248  0.00  0.00    +0.000 A 
ENDROOT
BRANCH   1   8
ATOM      7  O   UNL     1       4.914   3.696  17.044  0.00  0.00    +0.000 OA
ATOM      8  C   UNL     1       5.372   4.157  18.083  0.00  0.00    +0.000 C 
ATOM      9  N   UNL     1       5.185   3.558  19.315  0.00  0.00    +0.000 N 
ATOM     10  H   UNL     1       5.704   3.884  20.118  0.00  0.00    +0.000 HD
BRANCH   9  11
ATOM     11  C   UNL     1       4.410   2.343  19.456  0.00  0.00    +0.000 C 
BRANCH  11  12
ATOM     12  C   UNL     1       3.370   2.428  20.572  0.00  0.00    +0.000 C 
BRANCH  12  13
ATOM     13  C   UNL     1       2.030   2.900  20.007  0.00  0.00    +0.000 C 
BRANCH  13  14
ATOM     14  N   UNL     1       2.043   4.288  19.582  0.00  0.00    +0.000 N 
ATOM     15  C   UNL     1       2.596   5.342  20.393  0.00  0.00    +0.000 C 
ATOM     16  C   UNL     1       2.190   6.596  19.643  0.00  0.00    +0.000 C 
ATOM     17  C   UNL     1       2.193   6.159  18.183  0.00  0.00    +0.000 C 
ATOM     18  C   UNL     1       1.851   4.691  18.267  0.00  0.00    +0.000 C 
ATOM     19  O   UNL     1       1.524   3.983  17.328  0.00  0.00    +0.000 OA
ENDBRANCH  13  14
ENDBRANCH  12  13
ENDBRANCH  11  12
ENDBRANCH   9  11
ENDBRANCH   1   8
BRANCH   4  20
ATOM     20  C   UNL     1       8.552   8.984  17.835  0.00  0.00    +0.000 C 
ATOM     21  C   UNL     1       8.918   9.713  18.903  0.00  0.00    +0.000 C 
BRANCH  21  22
ATOM     22  C   UNL     1       9.661  10.980  18.812  0.00  0.00    +0.000 A 
ATOM     23  C   UNL     1       9.312  12.043  19.661  0.00  0.00    +0.000 A 
ATOM     24  C   UNL     1       9.955  13.284  19.562  0.00  0.00    +0.000 A 
ATOM     25  C   UNL     1      10.942  13.461  18.602  0.00  0.00    +0.000 A 
ATOM     26  C   UNL     1      11.278  12.420  17.745  0.00  0.00    +0.000 A 
ATOM     27  C   UNL     1      10.647  11.186  17.837  0.00  0.00    +0.000 A 
BRANCH  25  28
ATOM     28  O   UNL     1      11.608  14.645  18.453  0.00  0.00    +0.000 OA
ATOM     29  H   UNL     1      11.856  14.966  19.337  0.00  0.00    +0.000 HD
ENDBRANCH  25  28
BRANCH  26  30
ATOM     30  O   UNL     1      12.236  12.602  16.787  0.00  0.00    +0.000 OA
ATOM     31  H   UNL     1      12.998  12.075  17.104  0.00  0.00    +0.000 HD
ENDBRANCH  26  30
ENDBRANCH  21  22
ENDBRANCH   4  20
TORSDOF 9
ENDMDL
MODEL 2
REMARK VINA RESULT:      -8.3      1.378      2.264
REMARK  Name = 
REMARK  9 active torsions:
REMARK  status: ('A' for Active; 'I' for Inactive)
REMARK    1  A    between atoms: C_2  and  C_13
REMARK    2  A    between atoms: N_3  and  C_4
REMARK    3  A    between atoms: C_4  and  C_5
REMARK    4  A    between atoms: C_5  and  C_6
REMARK    5  A    between atoms: C_6  and  N_7
REMARK    6  A    between atoms: C_16  and  C_17
REMARK    7  A    between atoms: C_18  and  C_19
REMARK    8  A    between atoms: C_22  and  O_23
REMARK    9  A    between atoms: C_24  and  O_25
REMARK                            x       y       z     vdW  Elec       q    Type
REMARK                         _______ _______ _______ _____ _____    ______ ____
ROOT
ATOM      1  C   UNL     1       6.375   5.560  18.368  0.00  0.00    +0.000 A 
ATOM      2  C   UNL     1       7.534   5.763  19.125  0.00  0.00    +0.000 A 
ATOM      3  C   UNL     1       8.258   6.956  18.990  0.00  0.00    +0.000 A 
ATOM      4  C   UNL     1       7.844   7.958  18.099  0.00  0.00    +0.000 A 
ATOM      5  C   UNL     1       6.659   7.764  17.381  0.00  0.00    +0.000 A 
ATOM      6  C   UNL     1       5.933   6.575  17.512  0.00  0.00    +0.000 A 
ENDROOT
BRANCH   1   8
ATOM      7  O   UNL     1       5.630   3.606  19.458  0.00  0.00    +0.000 OA
ATOM      8  C   UNL     1       5.566   4.311  18.458  0.00  0.00    +0.000 C 
ATOM      9  N   UNL     1       4.735   4.024  17.391  0.00  0.00    +0.000 N 
ATOM     10  H   UNL     1       4.599   4.707  16.659  0.00  0.00    +0.000 HD
BRANCH   9  11
ATOM     11  C   UNL     1       3.893   2.845  17.383  0.00  0.00    +0.000 C 
BRANCH  11  12
ATOM     12  C   UNL     1       2.436   3.159  17.047  0.00  0.00    +0.000 C 
BRANCH  12  13
ATOM     13  C   UNL     1       1.926   4.297  17.931  0.00  0.00    +0.000 C 
BRANCH  13  14
ATOM     14  N   UNL     1       1.806   3.928  19.330  0.00  0.00    +0.000 N 
ATOM     15  C   UNL     1       1.406   2.610  19.752  0.00  0.00    +0.000 C 
ATOM     16  C   UNL     1       1.220   2.775  21.249  0.00  0.00    +0.000 C 
ATOM     17  C   UNL     1       2.255   3.829  21.625  0.00  0.00    +0.000 C 
ATOM     18  C   UNL     1       2.369   4.658  20.368  0.00  0.00    +0.000 C 
ATOM     19  O   UNL     1       2.915   5.745  20.282  0.00  0.00    +0.000 OA
ENDBRANCH  13  14
ENDBRANCH  12  13
ENDBRANCH  11  12
ENDBRANCH   9  11
ENDBRANCH   1   8
BRANCH   4  20
ATOM     20  C   UNL     1       8.664   9.174  17.983  0.00  0.00    +0.000 C 
ATOM     21  C   UNL     1       9.071   9.922  19.023  0.00  0.00    +0.000 C 
BRANCH  21  22
ATOM     22  C   UNL     1       9.792  11.197  18.880  0.00  0.00    +0.000 A 
ATOM     23  C   UNL     1      10.406  11.506  17.654  0.00  0.00    +0.000 A 
ATOM     24  C   UNL     1      11.153  12.681  17.499  0.00  0.00    +0.000 A 
ATOM     25  C   UNL     1      11.293  13.541  18.579  0.00  0.00    +0.000 A 
ATOM     26  C   UNL     1      10.706  13.234  19.800  0.00  0.00    +0.000 A 
ATOM     27  C   UNL     1       9.962  12.071  19.962  0.00  0.00    +0.000 A 
BRANCH  25  28
ATOM     28  O   UNL     1      12.007  14.704  18.494  0.00  0.00    +0.000 OA
ATOM     29  H   UNL     1      12.833  14.588  18.993  0.00  0.00    +0.000 HD
ENDBRANCH  25  28
BRANCH  26  30
ATOM     30  O   UNL     1      10.862  14.072  20.867  0.00  0.00    +0.000 OA
ATOM     31  H   UNL     1      11.148  13.485  21.596  0.00  0.00    +0.000 HD
ENDBRANCH  26  30
ENDBRANCH  21  22
ENDBRANCH   4  20
TORSDOF 9
ENDMDL
MODEL 3
REMARK VINA RESULT:      -8.3      1.107      1.641
REMARK  Name = 
REMARK  9 active torsions:
REMARK  status: ('A' for Active; 'I' for Inactive)
REMARK    1  A    between atoms: C_2  and  C_13
REMARK    2  A    between atoms: N_3  and  C_4
REMARK    3  A    between atoms: C_4  and  C_5
REMARK    4  A    between atoms: C_5  and  C_6
REMARK    5  A    between atoms: C_6  and  N_7
REMARK    6  A    between atoms: C_16  and  C_17
REMARK    7  A    between atoms: C_18  and  C_19
REMARK    8  A    between atoms: C_22  and  O_23
REMARK    9  A    between atoms: C_24  and  O_25
REMARK                            x       y       z     vdW  Elec       q    Type
REMARK                         _______ _______ _______ _____ _____    ______ ____
ROOT
ATOM      1  C   UNL     1       6.197   5.307  17.940  0.00  0.00    +0.000 A 
ATOM      2  C   UNL     1       5.887   6.367  17.079  0.00  0.00    +0.000 A 
ATOM      3  C   UNL     1       6.660   7.537  17.103  0.00  0.00    +0.000 A 
ATOM      4  C   UNL     1       7.744   7.671  17.983  0.00  0.00    +0.000 A 
ATOM      5  C   UNL     1       8.074   6.589  18.807  0.00  0.00    +0.000 A 
ATOM      6  C   UNL     1       7.306   5.419  18.787  0.00  0.00    +0.000 A 
ENDROOT
BRANCH   1   8
ATOM      7  O   UNL     1       4.998   3.547  16.928  0.00  0.00    +0.000 OA
ATOM      8  C   UNL     1       5.411   4.042  17.971  0.00  0.00    +0.000 C 
ATOM      9  N   UNL     1       5.211   3.457  19.208  0.00  0.00    +0.000 N 
ATOM     10  H   UNL     1       5.696   3.815  20.019  0.00  0.00    +0.000 HD
BRANCH   9  11
ATOM     11  C   UNL     1       4.476   2.217  19.349  0.00  0.00    +0.000 C 
BRANCH  11  12
ATOM     12  C   UNL     1       3.174   2.385  20.131  0.00  0.00    +0.000 C 
BRANCH  12  13
ATOM     13  C   UNL     1       2.111   3.035  19.247  0.00  0.00    +0.000 C 
BRANCH  13  14
ATOM     14  N   UNL     1       2.233   4.479  19.168  0.00  0.00    +0.000 N 
ATOM     15  C   UNL     1       2.019   5.210  17.946  0.00  0.00    +0.000 C 
ATOM     16  C   UNL     1       2.464   6.615  18.307  0.00  0.00    +0.000 C 
ATOM     17  C   UNL     1       2.111   6.734  19.786  0.00  0.00    +0.000 C 
ATOM     18  C   UNL     1       2.230   5.312  20.279  0.00  0.00    +0.000 C 
ATOM     19  O   UNL     1       2.255   4.967  21.449  0.00  0.00    +0.000 OA
ENDBRANCH  13  14
ENDBRANCH  12  13
ENDBRANCH  11  12
ENDBRANCH   9  11
ENDBRANCH   1   8
BRANCH   4  20
ATOM     20  C   UNL     1       8.496   8.936  17.978  0.00  0.00    +0.000 C 
ATOM     21  C   UNL     1       8.938   9.565  19.080  0.00  0.00    +0.000 C 
BRANCH  21  22
ATOM     22  C   UNL     1       9.587  10.886  19.063  0.00  0.00    +0.000 A 
ATOM     23  C   UNL     1      10.336  11.298  20.177  0.00  0.00    +0.000 A 
ATOM     24  C   UNL     1      10.917  12.572  20.223  0.00  0.00    +0.000 A 
ATOM     25  C   UNL     1      10.734  13.438  19.154  0.00  0.00    +0.000 A 
ATOM     26  C   UNL     1       9.977  13.046  18.057  0.00  0.00    +0.000 A 
ATOM     27  C   UNL     1       9.400  11.783  18.002  0.00  0.00    +0.000 A 
BRANCH  25  28
ATOM     28  O   UNL     1      11.274  14.694  19.135  0.00  0.00    +0.000 OA
ATOM     29  H   UNL     1      11.238  15.025  18.222  0.00  0.00    +0.000 HD
ENDBRANCH  25  28
BRANCH  26  30
ATOM     30  O   UNL     1       9.782  13.907  17.014  0.00  0.00    +0.000 OA
ATOM     31  H   UNL     1       8.828  13.829  16.812  0.00  0.00    +0.000 HD
ENDBRANCH  26  30
ENDBRANCH  21  22
ENDBRANCH   4  20
TORSDOF 9
ENDMDL
MODEL 4
REMARK VINA RESULT:      -8.3      0.928      1.445
REMARK  Name = 
REMARK  9 active torsions:
REMARK  status: ('A' for Active; 'I' for Inactive)
REMARK    1  A    between atoms: C_2  and  C_13
REMARK    2  A    between atoms: N_3  and  C_4
REMARK    3  A    between atoms: C_4  and  C_5
REMARK    4  A    between atoms: C_5  and  C_6
REMARK    5  A    between atoms: C_6  and  N_7
REMARK    6  A    between atoms: C_16  and  C_17
REMARK    7  A    between atoms: C_18  and  C_19
REMARK    8  A    between atoms: C_22  and  O_23
REMARK    9  A    between atoms: C_24  and  O_25
REMARK                            x       y       z     vdW  Elec       q    Type
REMARK                         _______ _______ _______ _____ _____    ______ ____
ROOT
ATOM      1  C   UNL     1       5.968   5.090  17.967  0.00  0.00    +0.000 A 
ATOM      2  C   UNL     1       5.559   6.126  17.119  0.00  0.00    +0.000 A 
ATOM      3  C   UNL     1       6.316   7.304  17.039  0.00  0.00    +0.000 A 
ATOM      4  C   UNL     1       7.483   7.470  17.800  0.00  0.00    +0.000 A 
ATOM      5  C   UNL     1       7.907   6.410  18.610  0.00  0.00    +0.000 A 
ATOM      6  C   UNL     1       7.155   5.233  18.694  0.00  0.00    +0.000 A 
ENDROOT
BRANCH   1   8
ATOM      7  O   UNL     1       4.691   3.297  17.122  0.00  0.00    +0.000 OA
ATOM      8  C   UNL     1       5.204   3.818  18.106  0.00  0.00    +0.000 C 
ATOM      9  N   UNL     1       5.141   3.258  19.368  0.00  0.00    +0.000 N 
ATOM     10  H   UNL     1       5.704   3.638  20.117  0.00  0.00    +0.000 HD
BRANCH   9  11
ATOM     11  C   UNL     1       4.440   2.015  19.611  0.00  0.00    +0.000 C 
BRANCH  11  12
ATOM     12  C   UNL     1       3.097   1.940  18.886  0.00  0.00    +0.000 C 
BRANCH  12  13
ATOM     13  C   UNL     1       2.021   2.659  19.699  0.00  0.00    +0.000 C 
BRANCH  13  14
ATOM     14  N   UNL     1       1.990   4.092  19.469  0.00  0.00    +0.000 N 
ATOM     15  C   UNL     1       2.577   5.037  20.384  0.00  0.00    +0.000 C 
ATOM     16  C   UNL     1       2.110   6.374  19.838  0.00  0.00    +0.000 C 
ATOM     17  C   UNL     1       2.031   6.139  18.334  0.00  0.00    +0.000 C 
ATOM     18  C   UNL     1       1.713   4.667  18.235  0.00  0.00    +0.000 C 
ATOM     19  O   UNL     1       1.339   4.087  17.229  0.00  0.00    +0.000 OA
ENDBRANCH  13  14
ENDBRANCH  12  13
ENDBRANCH  11  12
ENDBRANCH   9  11
ENDBRANCH   1   8
BRANCH   4  20
ATOM     20  C   UNL     1       8.215   8.741  17.691  0.00  0.00    +0.000 C 
ATOM     21  C   UNL     1       8.716   9.425  18.734  0.00  0.00    +0.000 C 
BRANCH  21  22
ATOM     22  C   UNL     1       9.344  10.750  18.617  0.00  0.00    +0.000 A 
ATOM     23  C   UNL     1      10.562  10.995  19.272  0.00  0.00    +0.000 A 
ATOM     24  C   UNL     1      11.158  12.262  19.235  0.00  0.00    +0.000 A 
ATOM     25  C   UNL     1      10.525  13.288  18.547  0.00  0.00    +0.000 A 
ATOM     26  C   UNL     1       9.310  13.060  17.913  0.00  0.00    +0.000 A 
ATOM     27  C   UNL     1       8.713  11.806  17.944  0.00  0.00    +0.000 A 
BRANCH  25  28
ATOM     28  O   UNL     1      11.053  14.547  18.471  0.00  0.00    +0.000 OA
ATOM     29  H   UNL     1      10.328  15.168  18.290  0.00  0.00    +0.000 HD
ENDBRANCH  25  28
BRANCH  26  30
ATOM     30  O   UNL     1       8.679  14.077  17.253  0.00  0.00    +0.000 OA
ATOM     31  H   UNL     1       8.377  13.670  16.416  0.00  0.00    +0.000 HD
ENDBRANCH  26  30
ENDBRANCH  21  22
ENDBRANCH   4  20
TORSDOF 9
ENDMDL
MODEL 5
REMARK VINA RESULT:      -8.2      1.444      1.656
REMARK  Name = 
REMARK  9 active torsions:
REMARK  status: ('A' for Active; 'I' for Inactive)
REMARK    1  A    between atoms: C_2  and  C_13
REMARK    2  A    between atoms: N_3  and  C_4
REMARK    3  A    between atoms: C_4  and  C_5
REMARK    4  A    between atoms: C_5  and  C_6
REMARK    5  A    between atoms: C_6  and  N_7
REMARK    6  A    between atoms: C_16  and  C_17
REMARK    7  A    between atoms: C_18  and  C_19
REMARK    8  A    between atoms: C_22  and  O_23
REMARK    9  A    between atoms: C_24  and  O_25
REMARK                            x       y       z     vdW  Elec       q    Type
REMARK                         _______ _______ _______ _____ _____    ______ ____
ROOT
ATOM      1  C   UNL     1       6.419   5.164  17.383  0.00  0.00    +0.000 A 
ATOM      2  C   UNL     1       7.311   5.127  18.461  0.00  0.00    +0.000 A 
ATOM      3  C   UNL     1       8.002   6.288  18.838  0.00  0.00    +0.000 A 
ATOM      4  C   UNL     1       7.819   7.496  18.149  0.00  0.00    +0.000 A 
ATOM      5  C   UNL     1       6.890   7.533  17.102  0.00  0.00    +0.000 A 
ATOM      6  C   UNL     1       6.200   6.378  16.721  0.00  0.00    +0.000 A 
ENDROOT
BRANCH   1   8
ATOM      7  O   UNL     1       5.882   3.482  15.821  0.00  0.00    +0.000 OA
ATOM      8  C   UNL     1       5.663   3.964  16.926  0.00  0.00    +0.000 C 
ATOM      9  N   UNL     1       4.750   3.422  17.812  0.00  0.00    +0.000 N 
ATOM     10  H   UNL     1       4.711   3.758  18.764  0.00  0.00    +0.000 HD
BRANCH   9  11
ATOM     11  C   UNL     1       3.974   2.247  17.475  0.00  0.00    +0.000 C 
BRANCH  11  12
ATOM     12  C   UNL     1       3.066   1.788  18.615  0.00  0.00    +0.000 C 
BRANCH  12  13
ATOM     13  C   UNL     1       1.766   2.593  18.607  0.00  0.00    +0.000 C 
BRANCH  13  14
ATOM     14  N   UNL     1       1.910   3.922  19.172  0.00  0.00    +0.000 N 
ATOM     15  C   UNL     1       1.947   5.111  18.359  0.00  0.00    +0.000 C 
ATOM     16  C   UNL     1       2.320   6.192  19.355  0.00  0.00    +0.000 C 
ATOM     17  C   UNL     1       1.681   5.718  20.656  0.00  0.00    +0.000 C 
ATOM     18  C   UNL     1       1.691   4.216  20.512  0.00  0.00    +0.000 C 
ATOM     19  O   UNL     1       1.481   3.415  21.408  0.00  0.00    +0.000 OA
ENDBRANCH  13  14
ENDBRANCH  12  13
ENDBRANCH  11  12
ENDBRANCH   9  11
ENDBRANCH   1   8
BRANCH   4  20
ATOM     20  C   UNL     1       8.595   8.671  18.576  0.00  0.00    +0.000 C 
ATOM     21  C   UNL     1       8.499   9.891  18.022  0.00  0.00    +0.000 C 
BRANCH  21  22
ATOM     22  C   UNL     1       9.366  11.024  18.386  0.00  0.00    +0.000 A 
ATOM     23  C   UNL     1      10.245  10.895  19.473  0.00  0.00    +0.000 A 
ATOM     24  C   UNL     1      11.041  11.971  19.888  0.00  0.00    +0.000 A 
ATOM     25  C   UNL     1      10.945  13.182  19.216  0.00  0.00    +0.000 A 
ATOM     26  C   UNL     1      10.063  13.324  18.153  0.00  0.00    +0.000 A 
ATOM     27  C   UNL     1       9.271  12.261  17.734  0.00  0.00    +0.000 A 
BRANCH  25  28
ATOM     28  O   UNL     1      11.693  14.270  19.569  0.00  0.00    +0.000 OA
ATOM     29  H   UNL     1      11.788  14.271  20.537  0.00  0.00    +0.000 HD
ENDBRANCH  25  28
BRANCH  26  30
ATOM     30  O   UNL     1       9.955  14.523  17.505  0.00  0.00    +0.000 OA
ATOM     31  H   UNL     1      10.379  14.368  16.637  0.00  0.00    +0.000 HD
ENDBRANCH  26  30
ENDBRANCH  21  22
ENDBRANCH   4  20
TORSDOF 9
ENDMDL
MODEL 6
REMARK VINA RESULT:      -8.0      1.724      2.095
REMARK  Name = 
REMARK  9 active torsions:
REMARK  status: ('A' for Active; 'I' for Inactive)
REMARK    1  A    between atoms: C_2  and  C_13
REMARK    2  A    between atoms: N_3  and  C_4
REMARK    3  A    between atoms: C_4  and  C_5
REMARK    4  A    between atoms: C_5  and  C_6
REMARK    5  A    between atoms: C_6  and  N_7
REMARK    6  A    between atoms: C_16  and  C_17
REMARK    7  A    between atoms: C_18  and  C_19
REMARK    8  A    between atoms: C_22  and  O_23
REMARK    9  A    between atoms: C_24  and  O_25
REMARK                            x       y       z     vdW  Elec       q    Type
REMARK                         _______ _______ _______ _____ _____    ______ ____
ROOT
ATOM      1  C   UNL     1       6.910   6.133  18.003  0.00  0.00    +0.000 A 
ATOM      2  C   UNL     1       7.989   6.431  18.842  0.00  0.00    +0.000 A 
ATOM      3  C   UNL     1       8.560   7.712  18.819  0.00  0.00    +0.000 A 
ATOM      4  C   UNL     1       8.070   8.708  17.962  0.00  0.00    +0.000 A 
ATOM      5  C   UNL     1       6.962   8.414  17.160  0.00  0.00    +0.000 A 
ATOM      6  C   UNL     1       6.389   7.137  17.179  0.00  0.00    +0.000 A 
ENDROOT
BRANCH   1   8
ATOM      7  O   UNL     1       6.356   4.040  18.937  0.00  0.00    +0.000 OA
ATOM      8  C   UNL     1       6.264   4.790  17.971  0.00  0.00    +0.000 C 
ATOM      9  N   UNL     1       5.547   4.464  16.835  0.00  0.00    +0.000 N 
ATOM     10  H   UNL     1       5.371   5.168  16.131  0.00  0.00    +0.000 HD
BRANCH   9  11
ATOM     11  C   UNL     1       4.866   3.192  16.708  0.00  0.00    +0.000 C 
BRANCH  11  12
ATOM     12  C   UNL     1       3.395   3.264  17.111  0.00  0.00    +0.000 C 
BRANCH  12  13
ATOM     13  C   UNL     1       3.018   2.039  17.944  0.00  0.00    +0.000 C 
BRANCH  13  14
ATOM     14  N   UNL     1       2.508   2.375  19.261  0.00  0.00    +0.000 N 
ATOM     15  C   UNL     1       3.345   2.913  20.303  0.00  0.00    +0.000 C 
ATOM     16  C   UNL     1       2.434   2.892  21.515  0.00  0.00    +0.000 C 
ATOM     17  C   UNL     1       1.048   3.131  20.927  0.00  0.00    +0.000 C 
ATOM     18  C   UNL     1       1.158   2.536  19.544  0.00  0.00    +0.000 C 
ATOM     19  O   UNL     1       0.224   2.301  18.796  0.00  0.00    +0.000 OA
ENDBRANCH  13  14
ENDBRANCH  12  13
ENDBRANCH  11  12
ENDBRANCH   9  11
ENDBRANCH   1   8
BRANCH   4  20
ATOM     20  C   UNL     1       8.732  10.022  17.967  0.00  0.00    +0.000 C 
ATOM     21  C   UNL     1       9.825  10.324  18.689  0.00  0.00    +0.000 C 
BRANCH  21  22
ATOM     22  C   UNL     1      10.403  11.675  18.770  0.00  0.00    +0.000 A 
ATOM     23  C   UNL     1      10.591  12.268  20.029  0.00  0.00    +0.000 A 
ATOM     24  C   UNL     1      11.082  13.575  20.144  0.00  0.00    +0.000 A 
ATOM     25  C   UNL     1      11.373  14.292  18.992  0.00  0.00    +0.000 A 
ATOM     26  C   UNL     1      11.171  13.720  17.742  0.00  0.00    +0.000 A 
ATOM     27  C   UNL     1      10.687  12.424  17.619  0.00  0.00    +0.000 A 
BRANCH  25  28
ATOM     28  O   UNL     1      11.855  15.571  19.034  0.00  0.00    +0.000 OA
ATOM     29  H   UNL     1      11.750  15.962  18.150  0.00  0.00    +0.000 HD
ENDBRANCH  25  28
BRANCH  26  30
ATOM     30  O   UNL     1      11.440  14.435  16.608  0.00  0.00    +0.000 OA
ATOM     31  H   UNL     1      12.321  14.828  16.774  0.00  0.00    +0.000 HD
ENDBRANCH  26  30
ENDBRANCH  21  22
ENDBRANCH   4  20
TORSDOF 9
ENDMDL
MODEL 7
REMARK VINA RESULT:      -7.9      1.122      1.251
REMARK  Name = 
REMARK  9 active torsions:
REMARK  status: ('A' for Active; 'I' for Inactive)
REMARK    1  A    between atoms: C_2  and  C_13
REMARK    2  A    between atoms: N_3  and  C_4
REMARK    3  A    between atoms: C_4  and  C_5
REMARK    4  A    between atoms: C_5  and  C_6
REMARK    5  A    between atoms: C_6  and  N_7
REMARK    6  A    between atoms: C_16  and  C_17
REMARK    7  A    between atoms: C_18  and  C_19
REMARK    8  A    between atoms: C_22  and  O_23
REMARK    9  A    between atoms: C_24  and  O_25
REMARK                            x       y       z     vdW  Elec       q    Type
REMARK                         _______ _______ _______ _____ _____    ______ ____
ROOT
ATOM      1  C   UNL     1       6.022   5.135  17.429  0.00  0.00    +0.000 A 
ATOM      2  C   UNL     1       7.112   5.269  18.296  0.00  0.00    +0.000 A 
ATOM      3  C   UNL     1       7.775   6.500  18.403  0.00  0.00    +0.000 A 
ATOM      4  C   UNL     1       7.367   7.610  17.649  0.00  0.00    +0.000 A 
ATOM      5  C   UNL     1       6.248   7.479  16.820  0.00  0.00    +0.000 A 
ATOM      6  C   UNL     1       5.583   6.253  16.709  0.00  0.00    +0.000 A 
ENDROOT
BRANCH   1   8
ATOM      7  O   UNL     1       5.237   3.306  16.166  0.00  0.00    +0.000 OA
ATOM      8  C   UNL     1       5.281   3.853  17.262  0.00  0.00    +0.000 C 
ATOM      9  N   UNL     1       4.693   3.316  18.392  0.00  0.00    +0.000 N 
ATOM     10  H   UNL     1       4.882   3.719  19.299  0.00  0.00    +0.000 HD
BRANCH   9  11
ATOM     11  C   UNL     1       3.964   2.065  18.344  0.00  0.00    +0.000 C 
BRANCH  11  12
ATOM     12  C   UNL     1       2.546   2.183  18.902  0.00  0.00    +0.000 C 
BRANCH  12  13
ATOM     13  C   UNL     1       1.831   3.377  18.271  0.00  0.00    +0.000 C 
BRANCH  13  14
ATOM     14  N   UNL     1       1.820   4.554  19.120  0.00  0.00    +0.000 N 
ATOM     15  C   UNL     1       1.707   4.475  20.554  0.00  0.00    +0.000 C 
ATOM     16  C   UNL     1       1.525   5.925  20.961  0.00  0.00    +0.000 C 
ATOM     17  C   UNL     1       2.330   6.694  19.920  0.00  0.00    +0.000 C 
ATOM     18  C   UNL     1       2.244   5.808  18.701  0.00  0.00    +0.000 C 
ATOM     19  O   UNL     1       2.554   6.131  17.566  0.00  0.00    +0.000 OA
ENDBRANCH  13  14
ENDBRANCH  12  13
ENDBRANCH  11  12
ENDBRANCH   9  11
ENDBRANCH   1   8
BRANCH   4  20
ATOM     20  C   UNL     1       8.123   8.865  17.787  0.00  0.00    +0.000 C 
ATOM     21  C   UNL     1       8.785   9.240  18.895  0.00  0.00    +0.000 C 
BRANCH  21  22
ATOM     22  C   UNL     1       9.437  10.550  19.053  0.00  0.00    +0.000 A 
ATOM     23  C   UNL     1       9.861  10.956  20.329  0.00  0.00    +0.000 A 
ATOM     24  C   UNL     1      10.430  12.221  20.530  0.00  0.00    +0.000 A 
ATOM     25  C   UNL     1      10.563  13.082  19.450  0.00  0.00    +0.000 A 
ATOM     26  C   UNL     1      10.128  12.696  18.189  0.00  0.00    +0.000 A 
ATOM     27  C   UNL     1       9.564  11.443  17.980  0.00  0.00    +0.000 A 
BRANCH  25  28
ATOM     28  O   UNL     1      11.110  14.329  19.577  0.00  0.00    +0.000 OA
ATOM     29  H   UNL     1      10.384  14.975  19.616  0.00  0.00    +0.000 HD
ENDBRANCH  25  28
BRANCH  26  30
ATOM     30  O   UNL     1      10.242  13.553  17.130  0.00  0.00    +0.000 OA
ATOM     31  H   UNL     1      10.293  12.966  16.349  0.00  0.00    +0.000 HD
ENDBRANCH  26  30
ENDBRANCH  21  22
ENDBRANCH   4  20
TORSDOF 9
ENDMDL
MODEL 8
REMARK VINA RESULT:      -7.9      5.796      8.987
REMARK  Name = 
REMARK  9 active torsions:
REMARK  status: ('A' for Active; 'I' for Inactive)
REMARK    1  A    between atoms: C_2  and  C_13
REMARK    2  A    between atoms: N_3  and  C_4
REMARK    3  A    between atoms: C_4  and  C_5
REMARK    4  A    between atoms: C_5  and  C_6
REMARK    5  A    between atoms: C_6  and  N_7
REMARK    6  A    between atoms: C_16  and  C_17
REMARK    7  A    between atoms: C_18  and  C_19
REMARK    8  A    between atoms: C_22  and  O_23
REMARK    9  A    between atoms: C_24  and  O_25
REMARK                            x       y       z     vdW  Elec       q    Type
REMARK                         _______ _______ _______ _____ _____    ______ ____
ROOT
ATOM      1  C   UNL     1       2.208   8.014  18.687  0.00  0.00    +0.000 A 
ATOM      2  C   UNL     1       1.717   9.166  18.060  0.00  0.00    +0.000 A 
ATOM      3  C   UNL     1       0.863  10.031  18.758  0.00  0.00    +0.000 A 
ATOM      4  C   UNL     1       0.482   9.763  20.081  0.00  0.00    +0.000 A 
ATOM      5  C   UNL     1       1.014   8.633  20.713  0.00  0.00    +0.000 A 
ATOM      6  C   UNL     1       1.867   7.766  20.022  0.00  0.00    +0.000 A 
ENDROOT
BRANCH   1   8
ATOM      7  O   UNL     1       3.949   7.451  17.199  0.00  0.00    +0.000 OA
ATOM      8  C   UNL     1       3.111   7.049  17.999  0.00  0.00    +0.000 C 
ATOM      9  N   UNL     1       2.976   5.714  18.333  0.00  0.00    +0.000 N 
ATOM     10  H   UNL     1       2.381   5.446  19.104  0.00  0.00    +0.000 HD
BRANCH   9  11
ATOM     11  C   UNL     1       3.814   4.695  17.737  0.00  0.00    +0.000 C 
BRANCH  11  12
ATOM     12  C   UNL     1       3.012   3.536  17.149  0.00  0.00    +0.000 C 
BRANCH  12  13
ATOM     13  C   UNL     1       3.179   2.288  18.015  0.00  0.00    +0.000 C 
BRANCH  13  14
ATOM     14  N   UNL     1       2.602   2.427  19.340  0.00  0.00    +0.000 N 
ATOM     15  C   UNL     1       3.379   2.819  20.487  0.00  0.00    +0.000 C 
ATOM     16  C   UNL     1       2.412   2.616  21.638  0.00  0.00    +0.000 C 
ATOM     17  C   UNL     1       1.052   2.922  21.023  0.00  0.00    +0.000 C 
ATOM     18  C   UNL     1       1.238   2.533  19.576  0.00  0.00    +0.000 C 
ATOM     19  O   UNL     1       0.344   2.398  18.757  0.00  0.00    +0.000 OA
ENDBRANCH  13  14
ENDBRANCH  12  13
ENDBRANCH  11  12
ENDBRANCH   9  11
ENDBRANCH   1   8
BRANCH   4  20
ATOM     20  C   UNL     1      -0.440  10.696  20.747  0.00  0.00    +0.000 C 
ATOM     21  C   UNL     1      -0.189  11.317  21.912  0.00  0.00    +0.000 C 
BRANCH  21  22
ATOM     22  C   UNL     1      -1.169  12.155  22.620  0.00  0.00    +0.000 A 
ATOM     23  C   UNL     1      -0.874  13.509  22.853  0.00  0.00    +0.000 A 
ATOM     24  C   UNL     1      -1.755  14.324  23.577  0.00  0.00    +0.000 A 
ATOM     25  C   UNL     1      -2.927  13.775  24.078  0.00  0.00    +0.000 A 
ATOM     26  C   UNL     1      -3.216  12.432  23.870  0.00  0.00    +0.000 A 
ATOM     27  C   UNL     1      -2.350  11.618  23.151  0.00  0.00    +0.000 A 
BRANCH  25  28
ATOM     28  O   UNL     1      -3.829  14.514  24.792  0.00  0.00    +0.000 OA
ATOM     29  H   UNL     1      -3.336  15.169  25.315  0.00  0.00    +0.000 HD
ENDBRANCH  25  28
BRANCH  26  30
ATOM     30  O   UNL     1      -4.362  11.889  24.381  0.00  0.00    +0.000 OA
ATOM     31  H   UNL     1      -4.364  12.168  25.319  0.00  0.00    +0.000 HD
ENDBRANCH  26  30
ENDBRANCH  21  22
ENDBRANCH   4  20
TORSDOF 9
ENDMDL
MODEL 9
REMARK VINA RESULT:      -7.8      1.535      1.981
REMARK  Name = 
REMARK  9 active torsions:
REMARK  status: ('A' for Active; 'I' for Inactive)
REMARK    1  A    between atoms: C_2  and  C_13
REMARK    2  A    between atoms: N_3  and  C_4
REMARK    3  A    between atoms: C_4  and  C_5
REMARK    4  A    between atoms: C_5  and  C_6
REMARK    5  A    between atoms: C_6  and  N_7
REMARK    6  A    between atoms: C_16  and  C_17
REMARK    7  A    between atoms: C_18  and  C_19
REMARK    8  A    between atoms: C_22  and  O_23
REMARK    9  A    between atoms: C_24  and  O_25
REMARK                            x       y       z     vdW  Elec       q    Type
REMARK                         _______ _______ _______ _____ _____    ______ ____
ROOT
ATOM      1  C   UNL     1       6.431   5.432  17.211  0.00  0.00    +0.000 A 
ATOM      2  C   UNL     1       7.349   5.300  18.260  0.00  0.00    +0.000 A 
ATOM      3  C   UNL     1       8.050   6.423  18.722  0.00  0.00    +0.000 A 
ATOM      4  C   UNL     1       7.853   7.687  18.147  0.00  0.00    +0.000 A 
ATOM      5  C   UNL     1       6.900   7.818  17.131  0.00  0.00    +0.000 A 
ATOM      6  C   UNL     1       6.198   6.700  16.665  0.00  0.00    +0.000 A 
ENDROOT
BRANCH   1   8
ATOM      7  O   UNL     1       6.147   3.572  15.791  0.00  0.00    +0.000 OA
ATOM      8  C   UNL     1       5.661   4.278  16.667  0.00  0.00    +0.000 C 
ATOM      9  N   UNL     1       4.417   4.037  17.219  0.00  0.00    +0.000 N 
ATOM     10  H   UNL     1       4.122   4.548  18.040  0.00  0.00    +0.000 HD
BRANCH   9  11
ATOM     11  C   UNL     1       3.593   2.931  16.777  0.00  0.00    +0.000 C 
BRANCH  11  12
ATOM     12  C   UNL     1       3.411   1.860  17.850  0.00  0.00    +0.000 C 
BRANCH  12  13
ATOM     13  C   UNL     1       4.012   2.334  19.173  0.00  0.00    +0.000 C 
BRANCH  13  14
ATOM     14  N   UNL     1       3.044   2.975  20.045  0.00  0.00    +0.000 N 
ATOM     15  C   UNL     1       2.293   2.248  21.036  0.00  0.00    +0.000 C 
ATOM     16  C   UNL     1       1.290   3.276  21.525  0.00  0.00    +0.000 C 
ATOM     17  C   UNL     1       2.044   4.596  21.405  0.00  0.00    +0.000 C 
ATOM     18  C   UNL     1       2.987   4.346  20.254  0.00  0.00    +0.000 C 
ATOM     19  O   UNL     1       3.626   5.200  19.661  0.00  0.00    +0.000 OA
ENDBRANCH  13  14
ENDBRANCH  12  13
ENDBRANCH  11  12
ENDBRANCH   9  11
ENDBRANCH   1   8
BRANCH   4  20
ATOM     20  C   UNL     1       8.641   8.819  18.659  0.00  0.00    +0.000 C 
ATOM     21  C   UNL     1       8.728  10.021  18.063  0.00  0.00    +0.000 C 
BRANCH  21  22
ATOM     22  C   UNL     1       9.612  11.101  18.527  0.00  0.00    +0.000 A 
ATOM     23  C   UNL     1      10.156  11.037  19.821  0.00  0.00    +0.000 A 
ATOM     24  C   UNL     1      10.951  12.076  20.320  0.00  0.00    +0.000 A 
ATOM     25  C   UNL     1      11.193  13.187  19.523  0.00  0.00    +0.000 A 
ATOM     26  C   UNL     1      10.643  13.267  18.250  0.00  0.00    +0.000 A 
ATOM     27  C   UNL     1       9.854  12.241  17.746  0.00  0.00    +0.000 A 
BRANCH  25  28
ATOM     28  O   UNL     1      11.960  14.235  19.949  0.00  0.00    +0.000 OA
ATOM     29  H   UNL     1      11.411  14.800  20.518  0.00  0.00    +0.000 HD
ENDBRANCH  25  28
BRANCH  26  30
ATOM     30  O   UNL     1      10.865  14.371  17.474  0.00  0.00    +0.000 OA
ATOM     31  H   UNL     1      11.791  14.271  17.173  0.00  0.00    +0.000 HD
ENDBRANCH  26  30
ENDBRANCH  21  22
ENDBRANCH   4  20
TORSDOF 9
ENDMDL
