MODEL 1
REMARK VINA RESULT:      -7.5      0.000      0.000
REMARK  Name = 
REMARK  8 active torsions:
REMARK  status: ('A' for Active; 'I' for Inactive)
REMARK    1  A    between atoms: C_2  and  C_3
REMARK    2  A    between atoms: C_3  and  O_4
REMARK    3  A    between atoms: O_4  and  C_5
REMARK    4  A    between atoms: C_5  and  C_7
REMARK    5  A    between atoms: C_7  and  C_8
REMARK    6  A    between atoms: N_15  and  C_16
REMARK    7  A    between atoms: C_19  and  O_20
REMARK    8  A    between atoms: O_20  and  C_21
REMARK                            x       y       z     vdW  Elec       q    Type
REMARK                         _______ _______ _______ _____ _____    ______ ____
ROOT
ATOM      1  O   UNL     1       0.677   4.457  20.526  0.00  0.00    +0.000 OA
ATOM      2  C   UNL     1       1.888   4.571  20.705  0.00  0.00    +0.000 C 
ATOM      3  N   UNL     1       2.662   5.671  20.363  0.00  0.00    +0.000 N 
ATOM      4  H   UNL     1       3.669   5.574  20.422  0.00  0.00    +0.000 HD
ENDROOT
BRANCH   3   5
ATOM      5  C   UNL     1       2.185   6.919  19.908  0.00  0.00    +0.000 A 
ATOM      6  C   UNL     1       1.444   7.792  20.704  0.00  0.00    +0.000 A 
ATOM      7  C   UNL     1       1.023   9.031  20.208  0.00  0.00    +0.000 A 
ATOM      8  C   UNL     1       1.349   9.423  18.913  0.00  0.00    +0.000 A 
ATOM      9  C   UNL     1       2.064   8.550  18.094  0.00  0.00    +0.000 A 
ATOM     10  C   UNL     1       2.494   7.311  18.596  0.00  0.00    +0.000 A 
BRANCH   8  11
ATOM     11  O   UNL     1       0.884  10.655  18.550  0.00  0.00    +0.000 OA
BRANCH  11  12
ATOM     12  C   UNL     1      -0.523  10.764  18.435  0.00  0.00    +0.000 C 
ATOM     13  F   UNL     1      -0.824  11.968  17.890  0.00  0.00    +0.000 F 
ATOM     14  F   UNL     1      -0.929   9.821  17.547  0.00  0.00    +0.000 F 
ENDBRANCH  11  12
ENDBRANCH   8  11
ENDBRANCH   3   5
BRANCH   2  15
ATOM     15  C   UNL     1       2.696   3.419  21.315  0.00  0.00    +0.000 C 
BRANCH  15  16
ATOM     16  O   UNL     1       2.872   2.318  20.421  0.00  0.00    +0.000 OA
BRANCH  16  17
ATOM     17  C   UNL     1       4.085   2.298  19.799  0.00  0.00    +0.000 C 
ATOM     18  O   UNL     1       5.125   1.908  20.316  0.00  0.00    +0.000 OA
BRANCH  17  19
ATOM     19  C   UNL     1       3.987   2.857  18.400  0.00  0.00    +0.000 C 
BRANCH  19  20
ATOM     20  C   UNL     1       4.861   4.063  18.170  0.00  0.00    +0.000 A 
ATOM     21  C   UNL     1       5.780   4.469  19.149  0.00  0.00    +0.000 A 
ATOM     22  C   UNL     1       6.588   5.590  18.939  0.00  0.00    +0.000 A 
ATOM     23  C   UNL     1       6.476   6.313  17.754  0.00  0.00    +0.000 A 
ATOM     24 CL   UNL     1       7.472   7.693  17.496  0.00  0.00    +0.000 Cl
ATOM     25  C   UNL     1       5.563   5.926  16.776  0.00  0.00    +0.000 A 
ATOM     26  C   UNL     1       4.754   4.805  16.985  0.00  0.00    +0.000 A 
ENDBRANCH  19  20
ENDBRANCH  17  19
ENDBRANCH  16  17
ENDBRANCH  15  16
ENDBRANCH   2  15
TORSDOF 8
ENDMDL
MODEL 2
REMARK VINA RESULT:      -7.4      3.705      5.521
REMARK  Name = 
REMARK  8 active torsions:
REMARK  status: ('A' for Active; 'I' for Inactive)
REMARK    1  A    between atoms: C_2  and  C_3
REMARK    2  A    between atoms: C_3  and  O_4
REMARK    3  A    between atoms: O_4  and  C_5
REMARK    4  A    between atoms: C_5  and  C_7
REMARK    5  A    between atoms: C_7  and  C_8
REMARK    6  A    between atoms: N_15  and  C_16
REMARK    7  A    between atoms: C_19  and  O_20
REMARK    8  A    between atoms: O_20  and  C_21
REMARK                            x       y       z     vdW  Elec       q    Type
REMARK                         _______ _______ _______ _____ _____    ______ ____
ROOT
ATOM      1  O   UNL     1       4.225   3.349  17.133  0.00  0.00    +0.000 OA
ATOM      2  C   UNL     1       4.576   3.122  18.289  0.00  0.00    +0.000 C 
ATOM      3  N   UNL     1       5.551   3.813  18.996  0.00  0.00    +0.000 N 
ATOM      4  H   UNL     1       5.852   3.425  19.882  0.00  0.00    +0.000 HD
ENDROOT
BRANCH   3   5
ATOM      5  C   UNL     1       6.196   5.000  18.587  0.00  0.00    +0.000 A 
ATOM      6  C   UNL     1       7.398   5.445  19.134  0.00  0.00    +0.000 A 
ATOM      7  C   UNL     1       8.007   6.615  18.667  0.00  0.00    +0.000 A 
ATOM      8  C   UNL     1       7.432   7.350  17.634  0.00  0.00    +0.000 A 
ATOM      9  C   UNL     1       6.215   6.934  17.096  0.00  0.00    +0.000 A 
ATOM     10  C   UNL     1       5.609   5.755  17.559  0.00  0.00    +0.000 A 
BRANCH   8  11
ATOM     11  O   UNL     1       8.126   8.467  17.267  0.00  0.00    +0.000 OA
BRANCH  11  12
ATOM     12  C   UNL     1       8.203   9.485  18.248  0.00  0.00    +0.000 C 
ATOM     13  F   UNL     1       9.395   9.385  18.887  0.00  0.00    +0.000 F 
ATOM     14  F   UNL     1       8.208  10.676  17.596  0.00  0.00    +0.000 F 
ENDBRANCH  11  12
ENDBRANCH   8  11
ENDBRANCH   3   5
BRANCH   2  15
ATOM     15  C   UNL     1       3.960   1.958  19.075  0.00  0.00    +0.000 C 
BRANCH  15  16
ATOM     16  O   UNL     1       3.187   2.383  20.200  0.00  0.00    +0.000 OA
BRANCH  16  17
ATOM     17  C   UNL     1       1.873   2.612  19.914  0.00  0.00    +0.000 C 
ATOM     18  O   UNL     1       1.205   1.942  19.135  0.00  0.00    +0.000 OA
BRANCH  17  19
ATOM     19  C   UNL     1       1.359   3.823  20.654  0.00  0.00    +0.000 C 
BRANCH  19  20
ATOM     20  C   UNL     1       1.680   5.127  19.971  0.00  0.00    +0.000 A 
ATOM     21  C   UNL     1       1.679   6.327  20.697  0.00  0.00    +0.000 A 
ATOM     22  C   UNL     1       1.971   7.537  20.064  0.00  0.00    +0.000 A 
ATOM     23  C   UNL     1       2.259   7.555  18.701  0.00  0.00    +0.000 A 
ATOM     24 CL   UNL     1       2.619   9.047  17.922  0.00  0.00    +0.000 Cl
ATOM     25  C   UNL     1       2.256   6.373  17.965  0.00  0.00    +0.000 A 
ATOM     26  C   UNL     1       1.964   5.161  18.597  0.00  0.00    +0.000 A 
ENDBRANCH  19  20
ENDBRANCH  17  19
ENDBRANCH  16  17
ENDBRANCH  15  16
ENDBRANCH   2  15
TORSDOF 8
ENDMDL
MODEL 3
REMARK VINA RESULT:      -7.3      3.786      5.574
REMARK  Name = 
REMARK  8 active torsions:
REMARK  status: ('A' for Active; 'I' for Inactive)
REMARK    1  A    between atoms: C_2  and  C_3
REMARK    2  A    between atoms: C_3  and  O_4
REMARK    3  A    between atoms: O_4  and  C_5
REMARK    4  A    between atoms: C_5  and  C_7
REMARK    5  A    between atoms: C_7  and  C_8
REMARK    6  A    between atoms: N_15  and  C_16
REMARK    7  A    between atoms: C_19  and  O_20
REMARK    8  A    between atoms: O_20  and  C_21
REMARK                            x       y       z     vdW  Elec       q    Type
REMARK                         _______ _______ _______ _____ _____    ______ ____
ROOT
ATOM      1  O   UNL     1       4.712   2.772  17.528  0.00  0.00    +0.000 OA
ATOM      2  C   UNL     1       4.551   3.038  18.718  0.00  0.00    +0.000 C 
ATOM      3  N   UNL     1       5.151   4.083  19.407  0.00  0.00    +0.000 N 
ATOM      4  H   UNL     1       5.056   4.096  20.416  0.00  0.00    +0.000 HD
ENDROOT
BRANCH   3   5
ATOM      5  C   UNL     1       5.915   5.127  18.842  0.00  0.00    +0.000 A 
ATOM      6  C   UNL     1       5.476   5.902  17.768  0.00  0.00    +0.000 A 
ATOM      7  C   UNL     1       6.264   6.944  17.268  0.00  0.00    +0.000 A 
ATOM      8  C   UNL     1       7.497   7.240  17.845  0.00  0.00    +0.000 A 
ATOM      9  C   UNL     1       7.963   6.456  18.900  0.00  0.00    +0.000 A 
ATOM     10  C   UNL     1       7.167   5.417  19.407  0.00  0.00    +0.000 A 
BRANCH   8  11
ATOM     11  O   UNL     1       8.166   8.282  17.270  0.00  0.00    +0.000 OA
BRANCH  11  12
ATOM     12  C   UNL     1       8.357   9.413  18.100  0.00  0.00    +0.000 C 
ATOM     13  F   UNL     1       9.121   9.052  19.160  0.00  0.00    +0.000 F 
ATOM     14  F   UNL     1       9.077  10.319  17.389  0.00  0.00    +0.000 F 
ENDBRANCH  11  12
ENDBRANCH   8  11
ENDBRANCH   3   5
BRANCH   2  15
ATOM     15  C   UNL     1       3.658   2.157  19.599  0.00  0.00    +0.000 C 
BRANCH  15  16
ATOM     16  O   UNL     1       3.357   2.746  20.866  0.00  0.00    +0.000 OA
BRANCH  16  17
ATOM     17  C   UNL     1       2.048   2.632  21.232  0.00  0.00    +0.000 C 
ATOM     18  O   UNL     1       1.661   2.146  22.288  0.00  0.00    +0.000 OA
BRANCH  17  19
ATOM     19  C   UNL     1       1.134   3.150  20.147  0.00  0.00    +0.000 C 
BRANCH  19  20
ATOM     20  C   UNL     1       1.540   4.497  19.610  0.00  0.00    +0.000 A 
ATOM     21  C   UNL     1       1.649   4.707  18.228  0.00  0.00    +0.000 A 
ATOM     22  C   UNL     1       2.030   5.955  17.729  0.00  0.00    +0.000 A 
ATOM     23  C   UNL     1       2.309   6.998  18.609  0.00  0.00    +0.000 A 
ATOM     24 CL   UNL     1       2.777   8.535  17.993  0.00  0.00    +0.000 Cl
ATOM     25  C   UNL     1       2.212   6.803  19.984  0.00  0.00    +0.000 A 
ATOM     26  C   UNL     1       1.831   5.555  20.485  0.00  0.00    +0.000 A 
ENDBRANCH  19  20
ENDBRANCH  17  19
ENDBRANCH  16  17
ENDBRANCH  15  16
ENDBRANCH   2  15
TORSDOF 8
ENDMDL
MODEL 4
REMARK VINA RESULT:      -7.2      3.741      5.542
REMARK  Name = 
REMARK  8 active torsions:
REMARK  status: ('A' for Active; 'I' for Inactive)
REMARK    1  A    between atoms: C_2  and  C_3
REMARK    2  A    between atoms: C_3  and  O_4
REMARK    3  A    between atoms: O_4  and  C_5
REMARK    4  A    between atoms: C_5  and  C_7
REMARK    5  A    between atoms: C_7  and  C_8
REMARK    6  A    between atoms: N_15  and  C_16
REMARK    7  A    between atoms: C_19  and  O_20
REMARK    8  A    between atoms: O_20  and  C_21
REMARK                            x       y       z     vdW  Elec       q    Type
REMARK                         _______ _______ _______ _____ _____    ______ ____
ROOT
ATOM      1  O   UNL     1       5.152   2.650  20.218  0.00  0.00    +0.000 OA
ATOM      2  C   UNL     1       4.459   2.428  19.227  0.00  0.00    +0.000 C 
ATOM      3  N   UNL     1       4.418   3.199  18.073  0.00  0.00    +0.000 N 
ATOM      4  H   UNL     1       3.692   2.994  17.397  0.00  0.00    +0.000 HD
ENDROOT
BRANCH   3   5
ATOM      5  C   UNL     1       5.278   4.273  17.755  0.00  0.00    +0.000 A 
ATOM      6  C   UNL     1       5.555   5.318  18.636  0.00  0.00    +0.000 A 
ATOM      7  C   UNL     1       6.439   6.341  18.277  0.00  0.00    +0.000 A 
ATOM      8  C   UNL     1       7.073   6.327  17.037  0.00  0.00    +0.000 A 
ATOM      9  C   UNL     1       6.784   5.305  16.133  0.00  0.00    +0.000 A 
ATOM     10  C   UNL     1       5.904   4.273  16.499  0.00  0.00    +0.000 A 
BRANCH   8  11
ATOM     11  O   UNL     1       7.915   7.378  16.809  0.00  0.00    +0.000 OA
BRANCH  11  12
ATOM     12  C   UNL     1       7.996   8.329  17.856  0.00  0.00    +0.000 C 
ATOM     13  F   UNL     1       8.841   7.859  18.807  0.00  0.00    +0.000 F 
ATOM     14  F   UNL     1       8.570   9.446  17.342  0.00  0.00    +0.000 F 
ENDBRANCH  11  12
ENDBRANCH   8  11
ENDBRANCH   3   5
BRANCH   2  15
ATOM     15  C   UNL     1       3.494   1.236  19.202  0.00  0.00    +0.000 C 
BRANCH  15  16
ATOM     16  O   UNL     1       2.124   1.617  19.344  0.00  0.00    +0.000 OA
BRANCH  16  17
ATOM     17  C   UNL     1       1.852   2.279  20.505  0.00  0.00    +0.000 C 
ATOM     18  O   UNL     1       2.354   2.013  21.591  0.00  0.00    +0.000 OA
BRANCH  17  19
ATOM     19  C   UNL     1       0.821   3.360  20.285  0.00  0.00    +0.000 C 
BRANCH  19  20
ATOM     20  C   UNL     1       1.384   4.612  19.666  0.00  0.00    +0.000 A 
ATOM     21  C   UNL     1       1.492   4.729  18.273  0.00  0.00    +0.000 A 
ATOM     22  C   UNL     1       2.019   5.888  17.698  0.00  0.00    +0.000 A 
ATOM     23  C   UNL     1       2.446   6.934  18.513  0.00  0.00    +0.000 A 
ATOM     24 CL   UNL     1       3.095   8.361  17.804  0.00  0.00    +0.000 Cl
ATOM     25  C   UNL     1       2.352   6.830  19.898  0.00  0.00    +0.000 A 
ATOM     26  C   UNL     1       1.826   5.671  20.475  0.00  0.00    +0.000 A 
ENDBRANCH  19  20
ENDBRANCH  17  19
ENDBRANCH  16  17
ENDBRANCH  15  16
ENDBRANCH   2  15
TORSDOF 8
ENDMDL
MODEL 5
REMARK VINA RESULT:      -7.2      1.043      1.482
REMARK  Name = 
REMARK  8 active torsions:
REMARK  status: ('A' for Active; 'I' for Inactive)
REMARK    1  A    between atoms: C_2  and  C_3
REMARK    2  A    between atoms: C_3  and  O_4
REMARK    3  A    between atoms: O_4  and  C_5
REMARK    4  A    between atoms: C_5  and  C_7
REMARK    5  A    between atoms: C_7  and  C_8
REMARK    6  A    between atoms: N_15  and  C_16
REMARK    7  A    between atoms: C_19  and  O_20
REMARK    8  A    between atoms: O_20  and  C_21
REMARK                            x       y       z     vdW  Elec       q    Type
REMARK                         _______ _______ _______ _____ _____    ______ ____
ROOT
ATOM      1  O   UNL     1       0.973   4.662  19.891  0.00  0.00    +0.000 OA
ATOM      2  C   UNL     1       2.155   4.908  20.125  0.00  0.00    +0.000 C 
ATOM      3  N   UNL     1       2.770   6.145  19.996  0.00  0.00    +0.000 N 
ATOM      4  H   UNL     1       3.780   6.177  20.070  0.00  0.00    +0.000 HD
ENDROOT
BRANCH   3   5
ATOM      5  C   UNL     1       2.128   7.375  19.738  0.00  0.00    +0.000 A 
ATOM      6  C   UNL     1       1.433   8.094  20.710  0.00  0.00    +0.000 A 
ATOM      7  C   UNL     1       0.841   9.324  20.404  0.00  0.00    +0.000 A 
ATOM      8  C   UNL     1       0.947   9.863  19.125  0.00  0.00    +0.000 A 
ATOM      9  C   UNL     1       1.614   9.143  18.134  0.00  0.00    +0.000 A 
ATOM     10  C   UNL     1       2.216   7.914  18.444  0.00  0.00    +0.000 A 
BRANCH   8  11
ATOM     11  O   UNL     1       0.331  11.070  18.955  0.00  0.00    +0.000 OA
BRANCH  11  12
ATOM     12  C   UNL     1      -1.047  11.009  18.632  0.00  0.00    +0.000 C 
ATOM     13  F   UNL     1      -1.354   9.737  18.276  0.00  0.00    +0.000 F 
ATOM     14  F   UNL     1      -1.740  11.275  19.768  0.00  0.00    +0.000 F 
ENDBRANCH  11  12
ENDBRANCH   8  11
ENDBRANCH   3   5
BRANCH   2  15
ATOM     15  C   UNL     1       3.110   3.791  20.562  0.00  0.00    +0.000 C 
BRANCH  15  16
ATOM     16  O   UNL     1       4.230   3.633  19.688  0.00  0.00    +0.000 OA
BRANCH  16  17
ATOM     17  C   UNL     1       4.008   2.768  18.656  0.00  0.00    +0.000 C 
ATOM     18  O   UNL     1       3.704   1.589  18.792  0.00  0.00    +0.000 OA
BRANCH  17  19
ATOM     19  C   UNL     1       4.225   3.445  17.325  0.00  0.00    +0.000 C 
BRANCH  19  20
ATOM     20  C   UNL     1       5.168   4.618  17.392  0.00  0.00    +0.000 A 
ATOM     21  C   UNL     1       4.756   5.886  16.957  0.00  0.00    +0.000 A 
ATOM     22  C   UNL     1       5.631   6.973  17.014  0.00  0.00    +0.000 A 
ATOM     23  C   UNL     1       6.925   6.797  17.500  0.00  0.00    +0.000 A 
ATOM     24 CL   UNL     1       8.003   8.137  17.569  0.00  0.00    +0.000 Cl
ATOM     25  C   UNL     1       7.351   5.542  17.928  0.00  0.00    +0.000 A 
ATOM     26  C   UNL     1       6.477   4.454  17.871  0.00  0.00    +0.000 A 
ENDBRANCH  19  20
ENDBRANCH  17  19
ENDBRANCH  16  17
ENDBRANCH  15  16
ENDBRANCH   2  15
TORSDOF 8
ENDMDL
MODEL 6
REMARK VINA RESULT:      -7.2      3.977      6.372
REMARK  Name = 
REMARK  8 active torsions:
REMARK  status: ('A' for Active; 'I' for Inactive)
REMARK    1  A    between atoms: C_2  and  C_3
REMARK    2  A    between atoms: C_3  and  O_4
REMARK    3  A    between atoms: O_4  and  C_5
REMARK    4  A    between atoms: C_5  and  C_7
REMARK    5  A    between atoms: C_7  and  C_8
REMARK    6  A    between atoms: N_15  and  C_16
REMARK    7  A    between atoms: C_19  and  O_20
REMARK    8  A    between atoms: O_20  and  C_21
REMARK                            x       y       z     vdW  Elec       q    Type
REMARK                         _______ _______ _______ _____ _____    ______ ____
ROOT
ATOM      1  O   UNL     1       3.953   2.080  18.280  0.00  0.00    +0.000 OA
ATOM      2  C   UNL     1       4.200   2.956  19.107  0.00  0.00    +0.000 C 
ATOM      3  N   UNL     1       5.019   4.058  18.906  0.00  0.00    +0.000 N 
ATOM      4  H   UNL     1       5.262   4.617  19.716  0.00  0.00    +0.000 HD
ENDROOT
BRANCH   3   5
ATOM      5  C   UNL     1       5.581   4.469  17.677  0.00  0.00    +0.000 A 
ATOM      6  C   UNL     1       6.923   4.282  17.349  0.00  0.00    +0.000 A 
ATOM      7  C   UNL     1       7.417   4.683  16.103  0.00  0.00    +0.000 A 
ATOM      8  C   UNL     1       6.574   5.264  15.159  0.00  0.00    +0.000 A 
ATOM      9  C   UNL     1       5.236   5.485  15.483  0.00  0.00    +0.000 A 
ATOM     10  C   UNL     1       4.739   5.073  16.730  0.00  0.00    +0.000 A 
BRANCH   8  11
ATOM     11  O   UNL     1       7.176   5.606  13.982  0.00  0.00    +0.000 OA
BRANCH  11  12
ATOM     12  C   UNL     1       7.401   4.536  13.081  0.00  0.00    +0.000 C 
ATOM     13  F   UNL     1       6.237   3.863  12.906  0.00  0.00    +0.000 F 
ATOM     14  F   UNL     1       7.722   5.081  11.880  0.00  0.00    +0.000 F 
ENDBRANCH  11  12
ENDBRANCH   8  11
ENDBRANCH   3   5
BRANCH   2  15
ATOM     15  C   UNL     1       3.625   2.871  20.525  0.00  0.00    +0.000 C 
BRANCH  15  16
ATOM     16  O   UNL     1       2.208   2.687  20.550  0.00  0.00    +0.000 OA
BRANCH  16  17
ATOM     17  C   UNL     1       1.497   3.839  20.379  0.00  0.00    +0.000 C 
ATOM     18  O   UNL     1       0.455   3.924  19.740  0.00  0.00    +0.000 OA
BRANCH  17  19
ATOM     19  C   UNL     1       2.184   5.004  21.050  0.00  0.00    +0.000 C 
BRANCH  19  20
ATOM     20  C   UNL     1       2.050   6.299  20.292  0.00  0.00    +0.000 A 
ATOM     21  C   UNL     1       1.442   7.412  20.892  0.00  0.00    +0.000 A 
ATOM     22  C   UNL     1       1.312   8.612  20.189  0.00  0.00    +0.000 A 
ATOM     23  C   UNL     1       1.784   8.704  18.881  0.00  0.00    +0.000 A 
ATOM     24 CL   UNL     1       1.623  10.184  18.016  0.00  0.00    +0.000 Cl
ATOM     25  C   UNL     1       2.383   7.606  18.270  0.00  0.00    +0.000 A 
ATOM     26  C   UNL     1       2.513   6.405  18.972  0.00  0.00    +0.000 A 
ENDBRANCH  19  20
ENDBRANCH  17  19
ENDBRANCH  16  17
ENDBRANCH  15  16
ENDBRANCH   2  15
TORSDOF 8
ENDMDL
MODEL 7
REMARK VINA RESULT:      -7.1      3.666      5.659
REMARK  Name = 
REMARK  8 active torsions:
REMARK  status: ('A' for Active; 'I' for Inactive)
REMARK    1  A    between atoms: C_2  and  C_3
REMARK    2  A    between atoms: C_3  and  O_4
REMARK    3  A    between atoms: O_4  and  C_5
REMARK    4  A    between atoms: C_5  and  C_7
REMARK    5  A    between atoms: C_7  and  C_8
REMARK    6  A    between atoms: N_15  and  C_16
REMARK    7  A    between atoms: C_19  and  O_20
REMARK    8  A    between atoms: O_20  and  C_21
REMARK                            x       y       z     vdW  Elec       q    Type
REMARK                         _______ _______ _______ _____ _____    ______ ____
ROOT
ATOM      1  O   UNL     1       3.004   3.493  16.900  0.00  0.00    +0.000 OA
ATOM      2  C   UNL     1       3.527   2.957  17.875  0.00  0.00    +0.000 C 
ATOM      3  N   UNL     1       4.770   3.272  18.409  0.00  0.00    +0.000 N 
ATOM      4  H   UNL     1       5.149   2.650  19.114  0.00  0.00    +0.000 HD
ENDROOT
BRANCH   3   5
ATOM      5  C   UNL     1       5.583   4.366  18.044  0.00  0.00    +0.000 A 
ATOM      6  C   UNL     1       5.936   5.385  18.928  0.00  0.00    +0.000 A 
ATOM      7  C   UNL     1       6.771   6.431  18.518  0.00  0.00    +0.000 A 
ATOM      8  C   UNL     1       7.279   6.465  17.222  0.00  0.00    +0.000 A 
ATOM      9  C   UNL     1       6.912   5.470  16.317  0.00  0.00    +0.000 A 
ATOM     10  C   UNL     1       6.082   4.416  16.732  0.00  0.00    +0.000 A 
BRANCH   8  11
ATOM     11  O   UNL     1       8.085   7.534  16.948  0.00  0.00    +0.000 OA
BRANCH  11  12
ATOM     12  C   UNL     1       8.048   8.582  17.899  0.00  0.00    +0.000 C 
ATOM     13  F   UNL     1       8.994   8.350  18.841  0.00  0.00    +0.000 F 
ATOM     14  F   UNL     1       8.408   9.723  17.256  0.00  0.00    +0.000 F 
ENDBRANCH  11  12
ENDBRANCH   8  11
ENDBRANCH   3   5
BRANCH   2  15
ATOM     15  C   UNL     1       2.827   1.798  18.595  0.00  0.00    +0.000 C 
BRANCH  15  16
ATOM     16  O   UNL     1       2.437   2.119  19.932  0.00  0.00    +0.000 OA
BRANCH  16  17
ATOM     17  C   UNL     1       1.612   3.202  20.023  0.00  0.00    +0.000 C 
ATOM     18  O   UNL     1       0.511   3.283  19.492  0.00  0.00    +0.000 OA
BRANCH  17  19
ATOM     19  C   UNL     1       2.252   4.304  20.832  0.00  0.00    +0.000 C 
BRANCH  19  20
ATOM     20  C   UNL     1       2.134   5.664  20.195  0.00  0.00    +0.000 A 
ATOM     21  C   UNL     1       1.622   6.747  20.925  0.00  0.00    +0.000 A 
ATOM     22  C   UNL     1       1.508   8.008  20.334  0.00  0.00    +0.000 A 
ATOM     23  C   UNL     1       1.899   8.192  19.010  0.00  0.00    +0.000 A 
ATOM     24 CL   UNL     1       1.757   9.745  18.283  0.00  0.00    +0.000 Cl
ATOM     25  C   UNL     1       2.401   7.124  18.270  0.00  0.00    +0.000 A 
ATOM     26  C   UNL     1       2.516   5.862  18.860  0.00  0.00    +0.000 A 
ENDBRANCH  19  20
ENDBRANCH  17  19
ENDBRANCH  16  17
ENDBRANCH  15  16
ENDBRANCH   2  15
TORSDOF 8
ENDMDL
MODEL 8
REMARK VINA RESULT:      -7.1      4.025      6.358
REMARK  Name = 
REMARK  8 active torsions:
REMARK  status: ('A' for Active; 'I' for Inactive)
REMARK    1  A    between atoms: C_2  and  C_3
REMARK    2  A    between atoms: C_3  and  O_4
REMARK    3  A    between atoms: O_4  and  C_5
REMARK    4  A    between atoms: C_5  and  C_7
REMARK    5  A    between atoms: C_7  and  C_8
REMARK    6  A    between atoms: N_15  and  C_16
REMARK    7  A    between atoms: C_19  and  O_20
REMARK    8  A    between atoms: O_20  and  C_21
REMARK                            x       y       z     vdW  Elec       q    Type
REMARK                         _______ _______ _______ _____ _____    ______ ____
ROOT
ATOM      1  O   UNL     1       3.910   1.683  18.242  0.00  0.00    +0.000 OA
ATOM      2  C   UNL     1       4.192   2.546  19.072  0.00  0.00    +0.000 C 
ATOM      3  N   UNL     1       5.017   3.641  18.860  0.00  0.00    +0.000 N 
ATOM      4  H   UNL     1       5.291   4.186  19.669  0.00  0.00    +0.000 HD
ENDROOT
BRANCH   3   5
ATOM      5  C   UNL     1       5.546   4.061  17.620  0.00  0.00    +0.000 A 
ATOM      6  C   UNL     1       6.896   4.350  17.423  0.00  0.00    +0.000 A 
ATOM      7  C   UNL     1       7.369   4.733  16.163  0.00  0.00    +0.000 A 
ATOM      8  C   UNL     1       6.503   4.818  15.076  0.00  0.00    +0.000 A 
ATOM      9  C   UNL     1       5.145   4.561  15.264  0.00  0.00    +0.000 A 
ATOM     10  C   UNL     1       4.673   4.167  16.526  0.00  0.00    +0.000 A 
BRANCH   8  11
ATOM     11  O   UNL     1       7.088   5.197  13.902  0.00  0.00    +0.000 OA
BRANCH  11  12
ATOM     12  C   UNL     1       7.145   4.197  12.901  0.00  0.00    +0.000 C 
ATOM     13  F   UNL     1       5.898   3.700  12.711  0.00  0.00    +0.000 F 
ATOM     14  F   UNL     1       7.504   4.806  11.742  0.00  0.00    +0.000 F 
ENDBRANCH  11  12
ENDBRANCH   8  11
ENDBRANCH   3   5
BRANCH   2  15
ATOM     15  C   UNL     1       3.658   2.450  20.506  0.00  0.00    +0.000 C 
BRANCH  15  16
ATOM     16  O   UNL     1       2.303   2.001  20.576  0.00  0.00    +0.000 OA
BRANCH  16  17
ATOM     17  C   UNL     1       1.392   2.928  20.162  0.00  0.00    +0.000 C 
ATOM     18  O   UNL     1       0.637   2.783  19.207  0.00  0.00    +0.000 OA
BRANCH  17  19
ATOM     19  C   UNL     1       1.461   4.174  21.012  0.00  0.00    +0.000 C 
BRANCH  19  20
ATOM     20  C   UNL     1       1.711   5.430  20.219  0.00  0.00    +0.000 A 
ATOM     21  C   UNL     1       2.080   5.355  18.868  0.00  0.00    +0.000 A 
ATOM     22  C   UNL     1       2.318   6.520  18.133  0.00  0.00    +0.000 A 
ATOM     23  C   UNL     1       2.193   7.764  18.747  0.00  0.00    +0.000 A 
ATOM     24 CL   UNL     1       2.486   9.198  17.841  0.00  0.00    +0.000 Cl
ATOM     25  C   UNL     1       1.835   7.854  20.090  0.00  0.00    +0.000 A 
ATOM     26  C   UNL     1       1.598   6.690  20.826  0.00  0.00    +0.000 A 
ENDBRANCH  19  20
ENDBRANCH  17  19
ENDBRANCH  16  17
ENDBRANCH  15  16
ENDBRANCH   2  15
TORSDOF 8
ENDMDL
MODEL 9
REMARK VINA RESULT:      -6.8      1.500      2.042
REMARK  Name = 
REMARK  8 active torsions:
REMARK  status: ('A' for Active; 'I' for Inactive)
REMARK    1  A    between atoms: C_2  and  C_3
REMARK    2  A    between atoms: C_3  and  O_4
REMARK    3  A    between atoms: O_4  and  C_5
REMARK    4  A    between atoms: C_5  and  C_7
REMARK    5  A    between atoms: C_7  and  C_8
REMARK    6  A    between atoms: N_15  and  C_16
REMARK    7  A    between atoms: C_19  and  O_20
REMARK    8  A    between atoms: O_20  and  C_21
REMARK                            x       y       z     vdW  Elec       q    Type
REMARK                         _______ _______ _______ _____ _____    ______ ____
ROOT
ATOM      1  O   UNL     1       1.193   5.063  20.386  0.00  0.00    +0.000 OA
ATOM      2  C   UNL     1       2.328   5.266  19.960  0.00  0.00    +0.000 C 
ATOM      3  N   UNL     1       2.783   6.445  19.386  0.00  0.00    +0.000 N 
ATOM      4  H   UNL     1       3.691   6.428  18.937  0.00  0.00    +0.000 HD
ENDROOT
BRANCH   3   5
ATOM      5  C   UNL     1       2.089   7.673  19.338  0.00  0.00    +0.000 A 
ATOM      6  C   UNL     1       1.573   8.305  20.469  0.00  0.00    +0.000 A 
ATOM      7  C   UNL     1       0.919   9.538  20.364  0.00  0.00    +0.000 A 
ATOM      8  C   UNL     1       0.786  10.167  19.129  0.00  0.00    +0.000 A 
ATOM      9  C   UNL     1       1.271   9.534  17.984  0.00  0.00    +0.000 A 
ATOM     10  C   UNL     1       1.935   8.302  18.092  0.00  0.00    +0.000 A 
BRANCH   8  11
ATOM     11  O   UNL     1       0.134  11.366  19.161  0.00  0.00    +0.000 OA
BRANCH  11  12
ATOM     12  C   UNL     1       0.968  12.510  19.188  0.00  0.00    +0.000 C 
ATOM     13  F   UNL     1       2.257  12.113  19.052  0.00  0.00    +0.000 F 
ATOM     14  F   UNL     1       0.671  13.254  18.092  0.00  0.00    +0.000 F 
ENDBRANCH  11  12
ENDBRANCH   8  11
ENDBRANCH   3   5
BRANCH   2  15
ATOM     15  C   UNL     1       3.382   4.153  19.990  0.00  0.00    +0.000 C 
BRANCH  15  16
ATOM     16  O   UNL     1       3.072   3.060  19.122  0.00  0.00    +0.000 OA
BRANCH  16  17
ATOM     17  C   UNL     1       3.028   3.398  17.801  0.00  0.00    +0.000 C 
ATOM     18  O   UNL     1       2.013   3.736  17.204  0.00  0.00    +0.000 OA
BRANCH  17  19
ATOM     19  C   UNL     1       4.389   3.265  17.161  0.00  0.00    +0.000 C 
BRANCH  19  20
ATOM     20  C   UNL     1       5.226   4.514  17.261  0.00  0.00    +0.000 A 
ATOM     21  C   UNL     1       4.795   5.707  16.664  0.00  0.00    +0.000 A 
ATOM     22  C   UNL     1       5.572   6.864  16.752  0.00  0.00    +0.000 A 
ATOM     23  C   UNL     1       6.788   6.833  17.432  0.00  0.00    +0.000 A 
ATOM     24 CL   UNL     1       7.745   8.259  17.540  0.00  0.00    +0.000 Cl
ATOM     25  C   UNL     1       7.233   5.654  18.024  0.00  0.00    +0.000 A 
ATOM     26  C   UNL     1       6.456   4.496  17.936  0.00  0.00    +0.000 A 
ENDBRANCH  19  20
ENDBRANCH  17  19
ENDBRANCH  16  17
ENDBRANCH  15  16
ENDBRANCH   2  15
TORSDOF 8
ENDMDL
