MODEL 1
REMARK VINA RESULT:      -8.3      0.000      0.000
REMARK  Name = 
REMARK  3 active torsions:
REMARK  status: ('A' for Active; 'I' for Inactive)
REMARK    1  A    between atoms: C_1  and  C_2
REMARK    2  A    between atoms: N_14  and  C_15
REMARK    3  A    between atoms: C_15  and  C_16
REMARK                            x       y       z     vdW  Elec       q    Type
REMARK                         _______ _______ _______ _____ _____    ______ ____
ROOT
ATOM      1  C   UNL     1       7.947   5.007  12.825  0.00  0.00    +0.000 C 
ATOM      2  C   UNL     1       7.029   4.738  13.979  0.00  0.00    +0.000 A 
ATOM      3  C   UNL     1       5.797   4.085  13.845  0.00  0.00    +0.000 A 
ATOM      4  C   UNL     1       4.915   3.966  14.942  0.00  0.00    +0.000 A 
ATOM      5  C   UNL     1       5.255   4.493  16.194  0.00  0.00    +0.000 A 
ATOM      6  C   UNL     1       4.355   4.611  17.361  0.00  0.00    +0.000 A 
ATOM      7  C   UNL     1       4.870   5.086  18.511  0.00  0.00    +0.000 A 
ATOM      8  C   UNL     1       6.309   5.336  18.684  0.00  0.00    +0.000 A 
ATOM      9  O   UNL     1       6.821   5.445  19.791  0.00  0.00    +0.000 OA
ATOM     10  O   UNL     1       7.045   5.505  17.535  0.00  0.00    +0.000 OA
ATOM     11  C   UNL     1       6.529   5.056  16.313  0.00  0.00    +0.000 A 
ATOM     12  C   UNL     1       7.396   5.205  15.235  0.00  0.00    +0.000 A 
ATOM     13  C   UNL     1       4.034   5.466  19.696  0.00  0.00    +0.000 C 
ATOM     14  N   UNL     1       2.660   5.880  19.361  0.00  0.00    +0.000 NA
ATOM     15  C   UNL     1       2.030   4.913  18.451  0.00  0.00    +0.000 C 
ATOM     16  C   UNL     1       2.876   4.337  17.278  0.00  0.00    +0.000 C 
ENDROOT
BRANCH  14  17
ATOM     17  C   UNL     1       2.571   7.272  18.894  0.00  0.00    +0.000 C 
BRANCH  17  18
ATOM     18  C   UNL     1       1.664   8.159  19.748  0.00  0.00    +0.000 A 
ATOM     19  C   UNL     1       1.336   7.802  21.060  0.00  0.00    +0.000 A 
ATOM     20  C   UNL     1       0.525   8.630  21.846  0.00  0.00    +0.000 A 
ATOM     21  C   UNL     1       0.037   9.829  21.330  0.00  0.00    +0.000 A 
ATOM     22  C   UNL     1       0.349  10.194  20.023  0.00  0.00    +0.000 A 
ATOM     23  C   UNL     1       1.155   9.367  19.235  0.00  0.00    +0.000 A 
ENDBRANCH  17  18
ENDBRANCH  14  17
TORSDOF 2
ENDMDL
MODEL 2
REMARK VINA RESULT:      -8.3      0.096      1.009
REMARK  Name = 
REMARK  3 active torsions:
REMARK  status: ('A' for Active; 'I' for Inactive)
REMARK    1  A    between atoms: C_1  and  C_2
REMARK    2  A    between atoms: N_14  and  C_15
REMARK    3  A    between atoms: C_15  and  C_16
REMARK                            x       y       z     vdW  Elec       q    Type
REMARK                         _______ _______ _______ _____ _____    ______ ____
ROOT
ATOM      1  C   UNL     1       7.833   4.927  12.785  0.00  0.00    +0.000 C 
ATOM      2  C   UNL     1       6.932   4.677  13.957  0.00  0.00    +0.000 A 
ATOM      3  C   UNL     1       5.687   4.045  13.847  0.00  0.00    +0.000 A 
ATOM      4  C   UNL     1       4.823   3.945  14.962  0.00  0.00    +0.000 A 
ATOM      5  C   UNL     1       5.196   4.469  16.205  0.00  0.00    +0.000 A 
ATOM      6  C   UNL     1       4.321   4.606  17.389  0.00  0.00    +0.000 A 
ATOM      7  C   UNL     1       4.865   5.076  18.527  0.00  0.00    +0.000 A 
ATOM      8  C   UNL     1       6.312   5.301  18.672  0.00  0.00    +0.000 A 
ATOM      9  O   UNL     1       6.846   5.404  19.769  0.00  0.00    +0.000 OA
ATOM     10  O   UNL     1       7.029   5.453  17.509  0.00  0.00    +0.000 OA
ATOM     11  C   UNL     1       6.482   5.010  16.298  0.00  0.00    +0.000 A 
ATOM     12  C   UNL     1       7.331   5.142  15.204  0.00  0.00    +0.000 A 
ATOM     13  C   UNL     1       4.059   5.473  19.726  0.00  0.00    +0.000 C 
ATOM     14  N   UNL     1       2.686   5.910  19.416  0.00  0.00    +0.000 NA
ATOM     15  C   UNL     1       2.023   4.952  18.521  0.00  0.00    +0.000 C 
ATOM     16  C   UNL     1       2.836   4.357  17.334  0.00  0.00    +0.000 C 
ENDROOT
BRANCH  14  17
ATOM     17  C   UNL     1       2.613   7.302  18.946  0.00  0.00    +0.000 C 
BRANCH  17  18
ATOM     18  C   UNL     1       1.656   8.182  19.753  0.00  0.00    +0.000 A 
ATOM     19  C   UNL     1       1.130   9.359  19.211  0.00  0.00    +0.000 A 
ATOM     20  C   UNL     1       0.236  10.147  19.945  0.00  0.00    +0.000 A 
ATOM     21  C   UNL     1      -0.148   9.765  21.229  0.00  0.00    +0.000 A 
ATOM     22  C   UNL     1       0.373   8.599  21.785  0.00  0.00    +0.000 A 
ATOM     23  C   UNL     1       1.270   7.812  21.055  0.00  0.00    +0.000 A 
ENDBRANCH  17  18
ENDBRANCH  14  17
TORSDOF 2
ENDMDL
MODEL 3
REMARK VINA RESULT:      -8.2      1.005      1.149
REMARK  Name = 
REMARK  3 active torsions:
REMARK  status: ('A' for Active; 'I' for Inactive)
REMARK    1  A    between atoms: C_1  and  C_2
REMARK    2  A    between atoms: N_14  and  C_15
REMARK    3  A    between atoms: C_15  and  C_16
REMARK                            x       y       z     vdW  Elec       q    Type
REMARK                         _______ _______ _______ _____ _____    ______ ____
ROOT
ATOM      1  C   UNL     1       7.489   4.556  11.469  0.00  0.00    +0.000 C 
ATOM      2  C   UNL     1       6.904   4.386  12.838  0.00  0.00    +0.000 A 
ATOM      3  C   UNL     1       5.854   3.503  13.121  0.00  0.00    +0.000 A 
ATOM      4  C   UNL     1       5.257   3.470  14.402  0.00  0.00    +0.000 A 
ATOM      5  C   UNL     1       5.707   4.317  15.422  0.00  0.00    +0.000 A 
ATOM      6  C   UNL     1       5.052   4.524  16.732  0.00  0.00    +0.000 A 
ATOM      7  C   UNL     1       5.661   5.330  17.622  0.00  0.00    +0.000 A 
ATOM      8  C   UNL     1       7.009   5.874  17.398  0.00  0.00    +0.000 A 
ATOM      9  O   UNL     1       7.690   6.320  18.312  0.00  0.00    +0.000 OA
ATOM     10  O   UNL     1       7.444   5.915  16.094  0.00  0.00    +0.000 OA
ATOM     11  C   UNL     1       6.815   5.118  15.131  0.00  0.00    +0.000 A 
ATOM     12  C   UNL     1       7.394   5.181  13.867  0.00  0.00    +0.000 A 
ATOM     13  C   UNL     1       5.011   5.803  18.887  0.00  0.00    +0.000 C 
ATOM     14  N   UNL     1       3.540   5.870  18.825  0.00  0.00    +0.000 NA
ATOM     15  C   UNL     1       2.983   4.626  18.277  0.00  0.00    +0.000 C 
ATOM     16  C   UNL     1       3.690   3.969  17.056  0.00  0.00    +0.000 C 
ENDROOT
BRANCH  14  17
ATOM     17  C   UNL     1       3.043   7.082  18.156  0.00  0.00    +0.000 C 
BRANCH  17  18
ATOM     18  C   UNL     1       2.139   7.951  19.032  0.00  0.00    +0.000 A 
ATOM     19  C   UNL     1       1.850   7.589  20.351  0.00  0.00    +0.000 A 
ATOM     20  C   UNL     1       1.043   8.401  21.156  0.00  0.00    +0.000 A 
ATOM     21  C   UNL     1       0.517   9.589  20.652  0.00  0.00    +0.000 A 
ATOM     22  C   UNL     1       0.789   9.959  19.338  0.00  0.00    +0.000 A 
ATOM     23  C   UNL     1       1.593   9.147  18.530  0.00  0.00    +0.000 A 
ENDBRANCH  17  18
ENDBRANCH  14  17
TORSDOF 2
ENDMDL
MODEL 4
REMARK VINA RESULT:      -7.9      3.028      7.154
REMARK  Name = 
REMARK  3 active torsions:
REMARK  status: ('A' for Active; 'I' for Inactive)
REMARK    1  A    between atoms: C_1  and  C_2
REMARK    2  A    between atoms: N_14  and  C_15
REMARK    3  A    between atoms: C_15  and  C_16
REMARK                            x       y       z     vdW  Elec       q    Type
REMARK                         _______ _______ _______ _____ _____    ______ ____
ROOT
ATOM      1  C   UNL     1       1.082   2.521  20.543  0.00  0.00    +0.000 C 
ATOM      2  C   UNL     1       1.960   3.509  19.837  0.00  0.00    +0.000 A 
ATOM      3  C   UNL     1       1.516   4.315  18.780  0.00  0.00    +0.000 A 
ATOM      4  C   UNL     1       2.415   5.141  18.069  0.00  0.00    +0.000 A 
ATOM      5  C   UNL     1       3.773   5.178  18.408  0.00  0.00    +0.000 A 
ATOM      6  C   UNL     1       4.845   5.838  17.632  0.00  0.00    +0.000 A 
ATOM      7  C   UNL     1       6.092   5.829  18.142  0.00  0.00    +0.000 A 
ATOM      8  C   UNL     1       6.384   5.333  19.495  0.00  0.00    +0.000 A 
ATOM      9  O   UNL     1       7.421   5.617  20.081  0.00  0.00    +0.000 OA
ATOM     10  O   UNL     1       5.460   4.478  20.048  0.00  0.00    +0.000 OA
ATOM     11  C   UNL     1       4.162   4.432  19.525  0.00  0.00    +0.000 A 
ATOM     12  C   UNL     1       3.294   3.593  20.216  0.00  0.00    +0.000 A 
ATOM     13  C   UNL     1       7.303   6.258  17.370  0.00  0.00    +0.000 C 
ATOM     14  N   UNL     1       7.180   6.097  15.910  0.00  0.00    +0.000 NA
ATOM     15  C   UNL     1       5.913   6.663  15.427  0.00  0.00    +0.000 C 
ATOM     16  C   UNL     1       4.620   6.406  16.255  0.00  0.00    +0.000 C 
ENDROOT
BRANCH  14  17
ATOM     17  C   UNL     1       7.418   4.719  15.456  0.00  0.00    +0.000 C 
BRANCH  17  18
ATOM     18  C   UNL     1       6.927   4.437  14.035  0.00  0.00    +0.000 A 
ATOM     19  C   UNL     1       7.666   4.852  12.922  0.00  0.00    +0.000 A 
ATOM     20  C   UNL     1       7.224   4.570  11.624  0.00  0.00    +0.000 A 
ATOM     21  C   UNL     1       6.039   3.864  11.423  0.00  0.00    +0.000 A 
ATOM     22  C   UNL     1       5.289   3.451  12.521  0.00  0.00    +0.000 A 
ATOM     23  C   UNL     1       5.727   3.735  13.819  0.00  0.00    +0.000 A 
ENDBRANCH  17  18
ENDBRANCH  14  17
TORSDOF 2
ENDMDL
MODEL 5
REMARK VINA RESULT:      -7.9      1.106      1.704
REMARK  Name = 
REMARK  3 active torsions:
REMARK  status: ('A' for Active; 'I' for Inactive)
REMARK    1  A    between atoms: C_1  and  C_2
REMARK    2  A    between atoms: N_14  and  C_15
REMARK    3  A    between atoms: C_15  and  C_16
REMARK                            x       y       z     vdW  Elec       q    Type
REMARK                         _______ _______ _______ _____ _____    ______ ____
ROOT
ATOM      1  C   UNL     1       7.360   4.253  11.286  0.00  0.00    +0.000 C 
ATOM      2  C   UNL     1       6.843   4.167  12.690  0.00  0.00    +0.000 A 
ATOM      3  C   UNL     1       5.834   3.280  13.085  0.00  0.00    +0.000 A 
ATOM      4  C   UNL     1       5.298   3.325  14.392  0.00  0.00    +0.000 A 
ATOM      5  C   UNL     1       5.768   4.256  15.326  0.00  0.00    +0.000 A 
ATOM      6  C   UNL     1       5.168   4.540  16.647  0.00  0.00    +0.000 A 
ATOM      7  C   UNL     1       5.792   5.425  17.448  0.00  0.00    +0.000 A 
ATOM      8  C   UNL     1       7.112   5.987  17.121  0.00  0.00    +0.000 A 
ATOM      9  O   UNL     1       7.820   6.516  17.967  0.00  0.00    +0.000 OA
ATOM     10  O   UNL     1       7.486   5.944  15.799  0.00  0.00    +0.000 OA
ATOM     11  C   UNL     1       6.838   5.062  14.926  0.00  0.00    +0.000 A 
ATOM     12  C   UNL     1       7.356   5.048  13.635  0.00  0.00    +0.000 A 
ATOM     13  C   UNL     1       5.187   5.971  18.705  0.00  0.00    +0.000 C 
ATOM     14  N   UNL     1       3.713   5.995  18.708  0.00  0.00    +0.000 NA
ATOM     15  C   UNL     1       3.169   4.700  18.278  0.00  0.00    +0.000 C 
ATOM     16  C   UNL     1       3.839   3.974  17.075  0.00  0.00    +0.000 C 
ENDROOT
BRANCH  14  17
ATOM     17  C   UNL     1       3.150   7.141  17.978  0.00  0.00    +0.000 C 
BRANCH  17  18
ATOM     18  C   UNL     1       2.197   8.002  18.810  0.00  0.00    +0.000 A 
ATOM     19  C   UNL     1       1.585   9.133  18.261  0.00  0.00    +0.000 A 
ATOM     20  C   UNL     1       0.695   9.904  19.019  0.00  0.00    +0.000 A 
ATOM     21  C   UNL     1       0.402   9.548  20.334  0.00  0.00    +0.000 A 
ATOM     22  C   UNL     1       1.009   8.428  20.896  0.00  0.00    +0.000 A 
ATOM     23  C   UNL     1       1.902   7.659  20.142  0.00  0.00    +0.000 A 
ENDBRANCH  17  18
ENDBRANCH  14  17
TORSDOF 2
ENDMDL
MODEL 6
REMARK VINA RESULT:      -7.9      3.002      7.149
REMARK  Name = 
REMARK  3 active torsions:
REMARK  status: ('A' for Active; 'I' for Inactive)
REMARK    1  A    between atoms: C_1  and  C_2
REMARK    2  A    between atoms: N_14  and  C_15
REMARK    3  A    between atoms: C_15  and  C_16
REMARK                            x       y       z     vdW  Elec       q    Type
REMARK                         _______ _______ _______ _____ _____    ______ ____
ROOT
ATOM      1  C   UNL     1       1.115   2.559  20.720  0.00  0.00    +0.000 C 
ATOM      2  C   UNL     1       1.983   3.531  19.980  0.00  0.00    +0.000 A 
ATOM      3  C   UNL     1       1.519   4.328  18.926  0.00  0.00    +0.000 A 
ATOM      4  C   UNL     1       2.407   5.136  18.181  0.00  0.00    +0.000 A 
ATOM      5  C   UNL     1       3.774   5.164  18.484  0.00  0.00    +0.000 A 
ATOM      6  C   UNL     1       4.831   5.804  17.672  0.00  0.00    +0.000 A 
ATOM      7  C   UNL     1       6.091   5.789  18.149  0.00  0.00    +0.000 A 
ATOM      8  C   UNL     1       6.414   5.306  19.500  0.00  0.00    +0.000 A 
ATOM      9  O   UNL     1       7.469   5.586  20.055  0.00  0.00    +0.000 OA
ATOM     10  O   UNL     1       5.497   4.467  20.088  0.00  0.00    +0.000 OA
ATOM     11  C   UNL     1       4.185   4.427  19.599  0.00  0.00    +0.000 A 
ATOM     12  C   UNL     1       3.328   3.605  20.323  0.00  0.00    +0.000 A 
ATOM     13  C   UNL     1       7.285   6.197  17.341  0.00  0.00    +0.000 C 
ATOM     14  N   UNL     1       7.122   6.021  15.886  0.00  0.00    +0.000 NA
ATOM     15  C   UNL     1       5.848   6.594  15.430  0.00  0.00    +0.000 C 
ATOM     16  C   UNL     1       4.575   6.359  16.295  0.00  0.00    +0.000 C 
ENDROOT
BRANCH  14  17
ATOM     17  C   UNL     1       7.335   4.634  15.442  0.00  0.00    +0.000 C 
BRANCH  17  18
ATOM     18  C   UNL     1       6.889   4.365  14.004  0.00  0.00    +0.000 A 
ATOM     19  C   UNL     1       5.694   3.690  13.736  0.00  0.00    +0.000 A 
ATOM     20  C   UNL     1       5.278   3.468  12.418  0.00  0.00    +0.000 A 
ATOM     21  C   UNL     1       6.051   3.924  11.351  0.00  0.00    +0.000 A 
ATOM     22  C   UNL     1       7.247   4.591  11.603  0.00  0.00    +0.000 A 
ATOM     23  C   UNL     1       7.666   4.810  12.919  0.00  0.00    +0.000 A 
ENDBRANCH  17  18
ENDBRANCH  14  17
TORSDOF 2
ENDMDL
MODEL 7
REMARK VINA RESULT:      -7.1      3.561      6.268
REMARK  Name = 
REMARK  3 active torsions:
REMARK  status: ('A' for Active; 'I' for Inactive)
REMARK    1  A    between atoms: C_1  and  C_2
REMARK    2  A    between atoms: N_14  and  C_15
REMARK    3  A    between atoms: C_15  and  C_16
REMARK                            x       y       z     vdW  Elec       q    Type
REMARK                         _______ _______ _______ _____ _____    ______ ____
ROOT
ATOM      1  C   UNL     1       1.460   2.562  21.621  0.00  0.00    +0.000 C 
ATOM      2  C   UNL     1       2.209   3.125  20.451  0.00  0.00    +0.000 A 
ATOM      3  C   UNL     1       2.982   2.342  19.585  0.00  0.00    +0.000 A 
ATOM      4  C   UNL     1       3.767   2.938  18.572  0.00  0.00    +0.000 A 
ATOM      5  C   UNL     1       3.783   4.328  18.405  0.00  0.00    +0.000 A 
ATOM      6  C   UNL     1       4.697   5.088  17.526  0.00  0.00    +0.000 A 
ATOM      7  C   UNL     1       4.529   6.421  17.439  0.00  0.00    +0.000 A 
ATOM      8  C   UNL     1       3.386   7.111  18.056  0.00  0.00    +0.000 A 
ATOM      9  O   UNL     1       3.047   8.238  17.717  0.00  0.00    +0.000 OA
ATOM     10  O   UNL     1       2.752   6.451  19.082  0.00  0.00    +0.000 OA
ATOM     11  C   UNL     1       2.928   5.069  19.227  0.00  0.00    +0.000 A 
ATOM     12  C   UNL     1       2.174   4.499  20.247  0.00  0.00    +0.000 A 
ATOM     13  C   UNL     1       5.510   7.336  16.770  0.00  0.00    +0.000 C 
ATOM     14  N   UNL     1       6.898   6.838  16.765  0.00  0.00    +0.000 NA
ATOM     15  C   UNL     1       6.950   5.442  16.308  0.00  0.00    +0.000 C 
ATOM     16  C   UNL     1       5.869   4.449  16.826  0.00  0.00    +0.000 C 
ENDROOT
BRANCH  14  17
ATOM     17  C   UNL     1       7.601   7.068  18.036  0.00  0.00    +0.000 C 
BRANCH  17  18
ATOM     18  C   UNL     1       8.110   8.499  18.217  0.00  0.00    +0.000 A 
ATOM     19  C   UNL     1       8.984   8.826  19.258  0.00  0.00    +0.000 A 
ATOM     20  C   UNL     1       9.466  10.132  19.404  0.00  0.00    +0.000 A 
ATOM     21  C   UNL     1       9.083  11.127  18.506  0.00  0.00    +0.000 A 
ATOM     22  C   UNL     1       8.207  10.818  17.469  0.00  0.00    +0.000 A 
ATOM     23  C   UNL     1       7.721   9.514  17.323  0.00  0.00    +0.000 A 
ENDBRANCH  17  18
ENDBRANCH  14  17
TORSDOF 2
ENDMDL
MODEL 8
REMARK VINA RESULT:      -6.9      3.462      5.428
REMARK  Name = 
REMARK  3 active torsions:
REMARK  status: ('A' for Active; 'I' for Inactive)
REMARK    1  A    between atoms: C_1  and  C_2
REMARK    2  A    between atoms: N_14  and  C_15
REMARK    3  A    between atoms: C_15  and  C_16
REMARK                            x       y       z     vdW  Elec       q    Type
REMARK                         _______ _______ _______ _____ _____    ______ ____
ROOT
ATOM      1  C   UNL     1       2.132   1.676  19.478  0.00  0.00    +0.000 C 
ATOM      2  C   UNL     1       2.204   3.165  19.638  0.00  0.00    +0.000 A 
ATOM      3  C   UNL     1       1.784   3.834  20.795  0.00  0.00    +0.000 A 
ATOM      4  C   UNL     1       1.758   5.246  20.847  0.00  0.00    +0.000 A 
ATOM      5  C   UNL     1       2.160   6.010  19.745  0.00  0.00    +0.000 A 
ATOM      6  C   UNL     1       1.999   7.473  19.597  0.00  0.00    +0.000 A 
ATOM      7  C   UNL     1       2.503   8.055  18.492  0.00  0.00    +0.000 A 
ATOM      8  C   UNL     1       3.333   7.321  17.525  0.00  0.00    +0.000 A 
ATOM      9  O   UNL     1       4.053   7.895  16.718  0.00  0.00    +0.000 OA
ATOM     10  O   UNL     1       3.211   5.951  17.528  0.00  0.00    +0.000 OA
ATOM     11  C   UNL     1       2.659   5.310  18.644  0.00  0.00    +0.000 A 
ATOM     12  C   UNL     1       2.663   3.921  18.567  0.00  0.00    +0.000 A 
ATOM     13  C   UNL     1       2.223   9.476  18.106  0.00  0.00    +0.000 C 
ATOM     14  N   UNL     1       0.938   9.998  18.606  0.00  0.00    +0.000 NA
ATOM     15  C   UNL     1       0.778   9.709  20.038  0.00  0.00    +0.000 C 
ATOM     16  C   UNL     1       1.198   8.305  20.564  0.00  0.00    +0.000 C 
ENDROOT
BRANCH  14  17
ATOM     17  C   UNL     1      -0.214   9.582  17.790  0.00  0.00    +0.000 C 
BRANCH  17  18
ATOM     18  C   UNL     1      -1.508  10.332  18.112  0.00  0.00    +0.000 A 
ATOM     19  C   UNL     1      -1.493  11.490  18.896  0.00  0.00    +0.000 A 
ATOM     20  C   UNL     1      -2.677  12.186  19.167  0.00  0.00    +0.000 A 
ATOM     21  C   UNL     1      -3.891  11.734  18.652  0.00  0.00    +0.000 A 
ATOM     22  C   UNL     1      -3.922  10.578  17.876  0.00  0.00    +0.000 A 
ATOM     23  C   UNL     1      -2.741   9.879  17.608  0.00  0.00    +0.000 A 
ENDBRANCH  17  18
ENDBRANCH  14  17
TORSDOF 2
ENDMDL
MODEL 9
REMARK VINA RESULT:      -6.9      3.438      5.402
REMARK  Name = 
REMARK  3 active torsions:
REMARK  status: ('A' for Active; 'I' for Inactive)
REMARK    1  A    between atoms: C_1  and  C_2
REMARK    2  A    between atoms: N_14  and  C_15
REMARK    3  A    between atoms: C_15  and  C_16
REMARK                            x       y       z     vdW  Elec       q    Type
REMARK                         _______ _______ _______ _____ _____    ______ ____
ROOT
ATOM      1  C   UNL     1       2.242   1.654  19.464  0.00  0.00    +0.000 C 
ATOM      2  C   UNL     1       2.294   3.143  19.628  0.00  0.00    +0.000 A 
ATOM      3  C   UNL     1       1.869   3.804  20.787  0.00  0.00    +0.000 A 
ATOM      4  C   UNL     1       1.824   5.215  20.844  0.00  0.00    +0.000 A 
ATOM      5  C   UNL     1       2.211   5.987  19.742  0.00  0.00    +0.000 A 
ATOM      6  C   UNL     1       2.029   7.448  19.597  0.00  0.00    +0.000 A 
ATOM      7  C   UNL     1       2.521   8.040  18.492  0.00  0.00    +0.000 A 
ATOM      8  C   UNL     1       3.358   7.319  17.520  0.00  0.00    +0.000 A 
ATOM      9  O   UNL     1       4.067   7.905  16.713  0.00  0.00    +0.000 OA
ATOM     10  O   UNL     1       3.255   5.948  17.521  0.00  0.00    +0.000 OA
ATOM     11  C   UNL     1       2.716   5.296  18.637  0.00  0.00    +0.000 A 
ATOM     12  C   UNL     1       2.739   3.907  18.557  0.00  0.00    +0.000 A 
ATOM     13  C   UNL     1       2.219   9.457  18.110  0.00  0.00    +0.000 C 
ATOM     14  N   UNL     1       0.929   9.960  18.616  0.00  0.00    +0.000 NA
ATOM     15  C   UNL     1       0.779   9.665  20.048  0.00  0.00    +0.000 C 
ATOM     16  C   UNL     1       1.220   8.266  20.569  0.00  0.00    +0.000 C 
ENDROOT
BRANCH  14  17
ATOM     17  C   UNL     1      -0.219   9.530  17.803  0.00  0.00    +0.000 C 
BRANCH  17  18
ATOM     18  C   UNL     1      -1.502  10.320  18.071  0.00  0.00    +0.000 A 
ATOM     19  C   UNL     1      -2.725   9.910  17.533  0.00  0.00    +0.000 A 
ATOM     20  C   UNL     1      -3.900  10.622  17.802  0.00  0.00    +0.000 A 
ATOM     21  C   UNL     1      -3.865  11.752  18.616  0.00  0.00    +0.000 A 
ATOM     22  C   UNL     1      -2.653  12.178  19.153  0.00  0.00    +0.000 A 
ATOM     23  C   UNL     1      -1.477  11.469  18.883  0.00  0.00    +0.000 A 
ENDBRANCH  17  18
ENDBRANCH  14  17
TORSDOF 2
ENDMDL
