MODEL 1
REMARK VINA RESULT:      -7.1      0.000      0.000
REMARK  Name = 
REMARK  7 active torsions:
REMARK  status: ('A' for Active; 'I' for Inactive)
REMARK    1  A    between atoms: C_1  and  O_2
REMARK    2  A    between atoms: O_2  and  C_3
REMARK    3  A    between atoms: C_3  and  C_5
REMARK    4  A    between atoms: C_6  and  C_7
REMARK    5  A    between atoms: C_9  and  C_10
REMARK    6  A    between atoms: C_17  and  N_18
REMARK    7  A    between atoms: N_18  and  C_19
REMARK                            x       y       z     vdW  Elec       q    Type
REMARK                         _______ _______ _______ _____ _____    ______ ____
ROOT
ATOM      1  C   UNL     1      -5.591  12.052  19.918  0.00  0.00    +0.000 A 
ATOM      2  C   UNL     1      -5.890  12.638  21.146  0.00  0.00    +0.000 A 
ATOM      3  C   UNL     1      -7.261  12.730  21.748  0.00  0.00    +0.000 C 
ATOM      4  N   UNL     1      -4.915  13.211  21.904  0.00  0.00    +0.000 NA
ATOM      5  C   UNL     1      -3.623  13.215  21.487  0.00  0.00    +0.000 A 
ATOM      6  C   UNL     1      -2.665  13.872  22.439  0.00  0.00    +0.000 C 
ATOM      7  C   UNL     1      -3.247  12.655  20.267  0.00  0.00    +0.000 A 
ATOM      8  C   UNL     1      -4.259  12.107  19.475  0.00  0.00    +0.000 A 
ATOM      9  C   UNL     1      -3.900  11.705  18.107  0.00  0.00    +0.000 C 
ATOM     10  O   UNL     1      -4.698  11.859  17.190  0.00  0.00    +0.000 OA
ATOM     11  C   UNL     1      -2.521  11.235  17.867  0.00  0.00    +0.000 C 
ATOM     12 BR   UNL     1      -2.293  10.006  16.473  0.00  0.00    +0.000 Br
ATOM     13  C   UNL     1      -1.515  11.763  18.584  0.00  0.00    +0.000 C 
ATOM     14  C   UNL     1      -1.844  12.610  19.788  0.00  0.00    +0.000 C 
ATOM     15  O   UNL     1      -0.935  13.187  20.375  0.00  0.00    +0.000 OA
ENDROOT
BRANCH   1  16
ATOM     16  C   UNL     1      -6.642  11.376  19.125  0.00  0.00    +0.000 C 
ATOM     17  O   UNL     1      -7.510  11.954  18.496  0.00  0.00    +0.000 OA
BRANCH  16  19
ATOM     18  C   UNL     1      -7.422   9.415  20.172  0.00  0.00    +0.000 C 
ATOM     19  O   UNL     1      -6.497  10.035  19.270  0.00  0.00    +0.000 OA
ENDBRANCH  16  19
ENDBRANCH   1  16
BRANCH  13  20
ATOM     20  N   UNL     1      -0.145  11.601  18.328  0.00  0.00    +0.000 N 
ATOM     21  H   UNL     1       0.010  11.658  17.311  0.00  0.00    +0.000 HD
BRANCH  20  22
ATOM     22  C   UNL     1       0.571  10.447  18.774  0.00  0.00    +0.000 A 
ATOM     23  C   UNL     1       0.448   9.926  20.073  0.00  0.00    +0.000 A 
ATOM     24  C   UNL     1       1.081   8.730  20.429  0.00  0.00    +0.000 A 
ATOM     25  C   UNL     1       1.835   8.040  19.488  0.00  0.00    +0.000 A 
ATOM     26 CL   UNL     1       2.574   6.545  19.913  0.00  0.00    +0.000 Cl
ATOM     27  C   UNL     1       1.977   8.544  18.197  0.00  0.00    +0.000 A 
ATOM     28  C   UNL     1       1.341   9.740  17.842  0.00  0.00    +0.000 A 
ENDBRANCH  20  22
ENDBRANCH  13  20
TORSDOF 4
ENDMDL
MODEL 2
REMARK VINA RESULT:      -6.7      2.466      3.535
REMARK  Name = 
REMARK  7 active torsions:
REMARK  status: ('A' for Active; 'I' for Inactive)
REMARK    1  A    between atoms: C_1  and  O_2
REMARK    2  A    between atoms: O_2  and  C_3
REMARK    3  A    between atoms: C_3  and  C_5
REMARK    4  A    between atoms: C_6  and  C_7
REMARK    5  A    between atoms: C_9  and  C_10
REMARK    6  A    between atoms: C_17  and  N_18
REMARK    7  A    between atoms: N_18  and  C_19
REMARK                            x       y       z     vdW  Elec       q    Type
REMARK                         _______ _______ _______ _____ _____    ______ ____
ROOT
ATOM      1  C   UNL     1      -4.070  12.953  20.154  0.00  0.00    +0.000 A 
ATOM      2  C   UNL     1      -5.218  12.834  19.374  0.00  0.00    +0.000 A 
ATOM      3  C   UNL     1      -6.544  13.461  19.688  0.00  0.00    +0.000 C 
ATOM      4  N   UNL     1      -5.217  12.089  18.234  0.00  0.00    +0.000 NA
ATOM      5  C   UNL     1      -4.089  11.453  17.822  0.00  0.00    +0.000 A 
ATOM      6  C   UNL     1      -4.244  10.684  16.540  0.00  0.00    +0.000 C 
ATOM      7  C   UNL     1      -2.904  11.518  18.552  0.00  0.00    +0.000 A 
ATOM      8  C   UNL     1      -2.926  12.248  19.743  0.00  0.00    +0.000 A 
ATOM      9  C   UNL     1      -1.746  12.149  20.615  0.00  0.00    +0.000 C 
ATOM     10  O   UNL     1      -1.879  12.144  21.833  0.00  0.00    +0.000 OA
ATOM     11  C   UNL     1      -0.433  11.932  19.975  0.00  0.00    +0.000 C 
ATOM     12 BR   UNL     1       1.056  12.610  20.885  0.00  0.00    +0.000 Br
ATOM     13  C   UNL     1      -0.366  11.205  18.847  0.00  0.00    +0.000 C 
ATOM     14  C   UNL     1      -1.645  10.864  18.123  0.00  0.00    +0.000 C 
ATOM     15  O   UNL     1      -1.597  10.106  17.160  0.00  0.00    +0.000 OA
ENDROOT
BRANCH   1  16
ATOM     16  C   UNL     1      -4.058  13.812  21.359  0.00  0.00    +0.000 C 
ATOM     17  O   UNL     1      -3.569  14.926  21.407  0.00  0.00    +0.000 OA
BRANCH  16  19
ATOM     18  C   UNL     1      -4.686  13.831  23.629  0.00  0.00    +0.000 C 
ATOM     19  O   UNL     1      -4.625  13.126  22.383  0.00  0.00    +0.000 OA
ENDBRANCH  16  19
ENDBRANCH   1  16
BRANCH  13  20
ATOM     20  N   UNL     1       0.805  10.718  18.248  0.00  0.00    +0.000 N 
ATOM     21  H   UNL     1       0.638  10.606  17.237  0.00  0.00    +0.000 HD
BRANCH  20  22
ATOM     22  C   UNL     1       1.422   9.505  18.684  0.00  0.00    +0.000 A 
ATOM     23  C   UNL     1       1.212   8.956  19.961  0.00  0.00    +0.000 A 
ATOM     24  C   UNL     1       1.747   7.709  20.302  0.00  0.00    +0.000 A 
ATOM     25  C   UNL     1       2.490   6.996  19.369  0.00  0.00    +0.000 A 
ATOM     26 CL   UNL     1       3.107   5.442  19.774  0.00  0.00    +0.000 Cl
ATOM     27  C   UNL     1       2.718   7.526  18.101  0.00  0.00    +0.000 A 
ATOM     28  C   UNL     1       2.179   8.773  17.760  0.00  0.00    +0.000 A 
ENDBRANCH  20  22
ENDBRANCH  13  20
TORSDOF 4
ENDMDL
MODEL 3
REMARK VINA RESULT:      -6.6      2.519      3.839
REMARK  Name = 
REMARK  7 active torsions:
REMARK  status: ('A' for Active; 'I' for Inactive)
REMARK    1  A    between atoms: C_1  and  O_2
REMARK    2  A    between atoms: O_2  and  C_3
REMARK    3  A    between atoms: C_3  and  C_5
REMARK    4  A    between atoms: C_6  and  C_7
REMARK    5  A    between atoms: C_9  and  C_10
REMARK    6  A    between atoms: C_17  and  N_18
REMARK    7  A    between atoms: N_18  and  C_19
REMARK                            x       y       z     vdW  Elec       q    Type
REMARK                         _______ _______ _______ _____ _____    ______ ____
ROOT
ATOM      1  C   UNL     1      -4.013  12.981  20.190  0.00  0.00    +0.000 A 
ATOM      2  C   UNL     1      -5.168  12.842  19.423  0.00  0.00    +0.000 A 
ATOM      3  C   UNL     1      -6.496  13.463  19.740  0.00  0.00    +0.000 C 
ATOM      4  N   UNL     1      -5.171  12.080  18.294  0.00  0.00    +0.000 NA
ATOM      5  C   UNL     1      -4.043  11.445  17.882  0.00  0.00    +0.000 A 
ATOM      6  C   UNL     1      -4.204  10.656  16.613  0.00  0.00    +0.000 C 
ATOM      7  C   UNL     1      -2.852  11.531  18.600  0.00  0.00    +0.000 A 
ATOM      8  C   UNL     1      -2.868  12.279  19.779  0.00  0.00    +0.000 A 
ATOM      9  C   UNL     1      -1.679  12.202  20.642  0.00  0.00    +0.000 C 
ATOM     10  O   UNL     1      -1.801  12.215  21.861  0.00  0.00    +0.000 OA
ATOM     11  C   UNL     1      -0.371  11.986  19.993  0.00  0.00    +0.000 C 
ATOM     12 BR   UNL     1       1.122  12.688  20.878  0.00  0.00    +0.000 Br
ATOM     13  C   UNL     1      -0.309  11.242  18.875  0.00  0.00    +0.000 C 
ATOM     14  C   UNL     1      -1.591  10.880  18.169  0.00  0.00    +0.000 C 
ATOM     15  O   UNL     1      -1.547  10.107  17.217  0.00  0.00    +0.000 OA
ENDROOT
BRANCH   1  16
ATOM     16  C   UNL     1      -3.997  13.859  21.382  0.00  0.00    +0.000 C 
ATOM     17  O   UNL     1      -4.449  13.553  22.470  0.00  0.00    +0.000 OA
BRANCH  16  19
ATOM     18  C   UNL     1      -2.770  15.742  22.086  0.00  0.00    +0.000 C 
ATOM     19  O   UNL     1      -3.451  15.051  21.032  0.00  0.00    +0.000 OA
ENDBRANCH  16  19
ENDBRANCH   1  16
BRANCH  13  20
ATOM     20  N   UNL     1       0.860  10.754  18.273  0.00  0.00    +0.000 N 
ATOM     21  H   UNL     1       0.741  10.781  17.250  0.00  0.00    +0.000 HD
BRANCH  20  22
ATOM     22  C   UNL     1       1.377   9.457  18.578  0.00  0.00    +0.000 A 
ATOM     23  C   UNL     1       2.171   8.720  17.683  0.00  0.00    +0.000 A 
ATOM     24  C   UNL     1       2.747   7.505  18.070  0.00  0.00    +0.000 A 
ATOM     25  C   UNL     1       2.543   7.020  19.356  0.00  0.00    +0.000 A 
ATOM     26 CL   UNL     1       3.291   5.550  19.845  0.00  0.00    +0.000 Cl
ATOM     27  C   UNL     1       1.751   7.730  20.255  0.00  0.00    +0.000 A 
ATOM     28  C   UNL     1       1.177   8.947  19.868  0.00  0.00    +0.000 A 
ENDBRANCH  20  22
ENDBRANCH  13  20
TORSDOF 4
ENDMDL
MODEL 4
REMARK VINA RESULT:      -6.6      1.378      1.698
REMARK  Name = 
REMARK  7 active torsions:
REMARK  status: ('A' for Active; 'I' for Inactive)
REMARK    1  A    between atoms: C_1  and  O_2
REMARK    2  A    between atoms: O_2  and  C_3
REMARK    3  A    between atoms: C_3  and  C_5
REMARK    4  A    between atoms: C_6  and  C_7
REMARK    5  A    between atoms: C_9  and  C_10
REMARK    6  A    between atoms: C_17  and  N_18
REMARK    7  A    between atoms: N_18  and  C_19
REMARK                            x       y       z     vdW  Elec       q    Type
REMARK                         _______ _______ _______ _____ _____    ______ ____
ROOT
ATOM      1  C   UNL     1      -6.161  12.489  21.553  0.00  0.00    +0.000 A 
ATOM      2  C   UNL     1      -6.471  12.884  22.852  0.00  0.00    +0.000 A 
ATOM      3  C   UNL     1      -7.845  12.880  23.452  0.00  0.00    +0.000 C 
ATOM      4  N   UNL     1      -5.504  13.341  23.695  0.00  0.00    +0.000 NA
ATOM      5  C   UNL     1      -4.208  13.411  23.292  0.00  0.00    +0.000 A 
ATOM      6  C   UNL     1      -3.260  13.923  24.339  0.00  0.00    +0.000 C 
ATOM      7  C   UNL     1      -3.822  13.042  22.005  0.00  0.00    +0.000 A 
ATOM      8  C   UNL     1      -4.826  12.615  21.133  0.00  0.00    +0.000 A 
ATOM      9  C   UNL     1      -4.457  12.423  19.723  0.00  0.00    +0.000 C 
ATOM     10  O   UNL     1      -5.249  12.710  18.833  0.00  0.00    +0.000 OA
ATOM     11  C   UNL     1      -3.074  12.000  19.425  0.00  0.00    +0.000 C 
ATOM     12 BR   UNL     1      -2.831  10.994  17.864  0.00  0.00    +0.000 Br
ATOM     13  C   UNL     1      -2.075  12.418  20.220  0.00  0.00    +0.000 C 
ATOM     14  C   UNL     1      -2.416  13.075  21.535  0.00  0.00    +0.000 C 
ATOM     15  O   UNL     1      -1.513  13.560  22.208  0.00  0.00    +0.000 OA
ENDROOT
BRANCH   1  16
ATOM     16  C   UNL     1      -7.203  11.936  20.660  0.00  0.00    +0.000 C 
ATOM     17  O   UNL     1      -7.916  12.605  19.935  0.00  0.00    +0.000 OA
BRANCH  16  19
ATOM     18  C   UNL     1      -7.066   9.813  19.648  0.00  0.00    +0.000 C 
ATOM     19  O   UNL     1      -7.254  10.592  20.836  0.00  0.00    +0.000 OA
ENDBRANCH  16  19
ENDBRANCH   1  16
BRANCH  13  20
ATOM     20  N   UNL     1      -0.703  12.301  19.952  0.00  0.00    +0.000 N 
ATOM     21  H   UNL     1      -0.532  12.581  18.975  0.00  0.00    +0.000 HD
BRANCH  20  22
ATOM     22  C   UNL     1      -0.003  11.070  20.141  0.00  0.00    +0.000 A 
ATOM     23  C   UNL     1      -0.102  10.307  21.317  0.00  0.00    +0.000 A 
ATOM     24  C   UNL     1       0.511   9.052  21.412  0.00  0.00    +0.000 A 
ATOM     25  C   UNL     1       1.221   8.546  20.330  0.00  0.00    +0.000 A 
ATOM     26 CL   UNL     1       1.935   6.984  20.431  0.00  0.00    +0.000 Cl
ATOM     27  C   UNL     1       1.340   9.291  19.159  0.00  0.00    +0.000 A 
ATOM     28  C   UNL     1       0.723  10.545  19.065  0.00  0.00    +0.000 A 
ENDBRANCH  20  22
ENDBRANCH  13  20
TORSDOF 4
ENDMDL
MODEL 5
REMARK VINA RESULT:      -6.5      0.905      1.353
REMARK  Name = 
REMARK  7 active torsions:
REMARK  status: ('A' for Active; 'I' for Inactive)
REMARK    1  A    between atoms: C_1  and  O_2
REMARK    2  A    between atoms: O_2  and  C_3
REMARK    3  A    between atoms: C_3  and  C_5
REMARK    4  A    between atoms: C_6  and  C_7
REMARK    5  A    between atoms: C_9  and  C_10
REMARK    6  A    between atoms: C_17  and  N_18
REMARK    7  A    between atoms: N_18  and  C_19
REMARK                            x       y       z     vdW  Elec       q    Type
REMARK                         _______ _______ _______ _____ _____    ______ ____
ROOT
ATOM      1  C   UNL     1      -5.065  12.773  20.866  0.00  0.00    +0.000 A 
ATOM      2  C   UNL     1      -5.062  13.522  22.040  0.00  0.00    +0.000 A 
ATOM      3  C   UNL     1      -6.274  13.847  22.861  0.00  0.00    +0.000 C 
ATOM      4  N   UNL     1      -3.907  14.051  22.530  0.00  0.00    +0.000 NA
ATOM      5  C   UNL     1      -2.725  13.849  21.891  0.00  0.00    +0.000 A 
ATOM      6  C   UNL     1      -1.540  14.484  22.563  0.00  0.00    +0.000 C 
ATOM      7  C   UNL     1      -2.649  13.118  20.707  0.00  0.00    +0.000 A 
ATOM      8  C   UNL     1      -3.845  12.615  20.188  0.00  0.00    +0.000 A 
ATOM      9  C   UNL     1      -3.799  12.024  18.842  0.00  0.00    +0.000 C 
ATOM     10  O   UNL     1      -4.739  12.174  18.071  0.00  0.00    +0.000 OA
ATOM     11  C   UNL     1      -2.546  11.365  18.423  0.00  0.00    +0.000 C 
ATOM     12 BR   UNL     1      -2.716   9.973  17.182  0.00  0.00    +0.000 Br
ATOM     13  C   UNL     1      -1.373  11.841  18.873  0.00  0.00    +0.000 C 
ATOM     14  C   UNL     1      -1.377  12.849  19.995  0.00  0.00    +0.000 C 
ATOM     15  O   UNL     1      -0.319  13.370  20.329  0.00  0.00    +0.000 OA
ENDROOT
BRANCH   1  16
ATOM     16  C   UNL     1      -6.312  12.149  20.369  0.00  0.00    +0.000 C 
ATOM     17  O   UNL     1      -7.144  12.718  19.687  0.00  0.00    +0.000 OA
BRANCH  16  19
ATOM     18  C   UNL     1      -7.565  10.157  20.492  0.00  0.00    +0.000 C 
ATOM     19  O   UNL     1      -6.380  10.880  20.847  0.00  0.00    +0.000 OA
ENDBRANCH  16  19
ENDBRANCH   1  16
BRANCH  13  20
ATOM     20  N   UNL     1      -0.102  11.485  18.398  0.00  0.00    +0.000 N 
ATOM     21  H   UNL     1      -0.107  11.534  17.369  0.00  0.00    +0.000 HD
BRANCH  20  22
ATOM     22  C   UNL     1       0.501  10.232  18.732  0.00  0.00    +0.000 A 
ATOM     23  C   UNL     1       1.264   9.484  17.821  0.00  0.00    +0.000 A 
ATOM     24  C   UNL     1       1.928   8.321  18.226  0.00  0.00    +0.000 A 
ATOM     25  C   UNL     1       1.841   7.900  19.548  0.00  0.00    +0.000 A 
ATOM     26 CL   UNL     1       2.696   6.496  20.057  0.00  0.00    +0.000 Cl
ATOM     27  C   UNL     1       1.081   8.622  20.465  0.00  0.00    +0.000 A 
ATOM     28  C   UNL     1       0.420   9.787  20.058  0.00  0.00    +0.000 A 
ENDBRANCH  20  22
ENDBRANCH  13  20
TORSDOF 4
ENDMDL
MODEL 6
REMARK VINA RESULT:      -6.5      1.054      1.630
REMARK  Name = 
REMARK  7 active torsions:
REMARK  status: ('A' for Active; 'I' for Inactive)
REMARK    1  A    between atoms: C_1  and  O_2
REMARK    2  A    between atoms: O_2  and  C_3
REMARK    3  A    between atoms: C_3  and  C_5
REMARK    4  A    between atoms: C_6  and  C_7
REMARK    5  A    between atoms: C_9  and  C_10
REMARK    6  A    between atoms: C_17  and  N_18
REMARK    7  A    between atoms: N_18  and  C_19
REMARK                            x       y       z     vdW  Elec       q    Type
REMARK                         _______ _______ _______ _____ _____    ______ ____
ROOT
ATOM      1  C   UNL     1      -4.755  12.450  20.606  0.00  0.00    +0.000 A 
ATOM      2  C   UNL     1      -4.835  13.074  21.849  0.00  0.00    +0.000 A 
ATOM      3  C   UNL     1      -6.105  13.359  22.593  0.00  0.00    +0.000 C 
ATOM      4  N   UNL     1      -3.713  13.505  22.490  0.00  0.00    +0.000 NA
ATOM      5  C   UNL     1      -2.485  13.325  21.937  0.00  0.00    +0.000 A 
ATOM      6  C   UNL     1      -1.347  13.841  22.771  0.00  0.00    +0.000 C 
ATOM      7  C   UNL     1      -2.325  12.716  20.693  0.00  0.00    +0.000 A 
ATOM      8  C   UNL     1      -3.484  12.317  20.023  0.00  0.00    +0.000 A 
ATOM      9  C   UNL     1      -3.335  11.866  18.631  0.00  0.00    +0.000 C 
ATOM     10  O   UNL     1      -4.197  12.130  17.802  0.00  0.00    +0.000 OA
ATOM     11  C   UNL     1      -2.069  11.206  18.253  0.00  0.00    +0.000 C 
ATOM     12 BR   UNL     1      -2.168   9.956  16.863  0.00  0.00    +0.000 Br
ATOM     13  C   UNL     1      -0.928  11.587  18.850  0.00  0.00    +0.000 C 
ATOM     14  C   UNL     1      -1.003  12.473  20.068  0.00  0.00    +0.000 C 
ATOM     15  O   UNL     1       0.036  12.916  20.545  0.00  0.00    +0.000 OA
ENDROOT
BRANCH   1  16
ATOM     16  C   UNL     1      -5.970  11.929  19.941  0.00  0.00    +0.000 C 
ATOM     17  O   UNL     1      -6.287  10.755  19.906  0.00  0.00    +0.000 OA
BRANCH  16  19
ATOM     18  C   UNL     1      -7.542  12.598  18.319  0.00  0.00    +0.000 C 
ATOM     19  O   UNL     1      -6.615  12.966  19.348  0.00  0.00    +0.000 OA
ENDBRANCH  16  19
ENDBRANCH   1  16
BRANCH  13  20
ATOM     20  N   UNL     1       0.370  11.233  18.452  0.00  0.00    +0.000 N 
ATOM     21  H   UNL     1       0.451  11.364  17.433  0.00  0.00    +0.000 HD
BRANCH  20  22
ATOM     22  C   UNL     1       0.914   9.941  18.729  0.00  0.00    +0.000 A 
ATOM     23  C   UNL     1       1.620   9.188  17.776  0.00  0.00    +0.000 A 
ATOM     24  C   UNL     1       2.231   7.979  18.127  0.00  0.00    +0.000 A 
ATOM     25  C   UNL     1       2.150   7.516  19.435  0.00  0.00    +0.000 A 
ATOM     26 CL   UNL     1       2.942   6.054  19.876  0.00  0.00    +0.000 Cl
ATOM     27  C   UNL     1       1.447   8.243  20.393  0.00  0.00    +0.000 A 
ATOM     28  C   UNL     1       0.838   9.454  20.041  0.00  0.00    +0.000 A 
ENDBRANCH  20  22
ENDBRANCH  13  20
TORSDOF 4
ENDMDL
MODEL 7
REMARK VINA RESULT:      -6.5      1.314      1.675
REMARK  Name = 
REMARK  7 active torsions:
REMARK  status: ('A' for Active; 'I' for Inactive)
REMARK    1  A    between atoms: C_1  and  O_2
REMARK    2  A    between atoms: O_2  and  C_3
REMARK    3  A    between atoms: C_3  and  C_5
REMARK    4  A    between atoms: C_6  and  C_7
REMARK    5  A    between atoms: C_9  and  C_10
REMARK    6  A    between atoms: C_17  and  N_18
REMARK    7  A    between atoms: N_18  and  C_19
REMARK                            x       y       z     vdW  Elec       q    Type
REMARK                         _______ _______ _______ _____ _____    ______ ____
ROOT
ATOM      1  C   UNL     1      -4.357  12.834  20.936  0.00  0.00    +0.000 A 
ATOM      2  C   UNL     1      -4.257  13.585  22.105  0.00  0.00    +0.000 A 
ATOM      3  C   UNL     1      -5.412  13.999  22.968  0.00  0.00    +0.000 C 
ATOM      4  N   UNL     1      -3.050  14.031  22.550  0.00  0.00    +0.000 NA
ATOM      5  C   UNL     1      -1.910  13.744  21.870  0.00  0.00    +0.000 A 
ATOM      6  C   UNL     1      -0.659  14.294  22.494  0.00  0.00    +0.000 C 
ATOM      7  C   UNL     1      -1.930  13.004  20.688  0.00  0.00    +0.000 A 
ATOM      8  C   UNL     1      -3.177  12.587  20.216  0.00  0.00    +0.000 A 
ATOM      9  C   UNL     1      -3.222  11.990  18.873  0.00  0.00    +0.000 C 
ATOM     10  O   UNL     1      -4.177  12.204  18.135  0.00  0.00    +0.000 OA
ATOM     11  C   UNL     1      -2.036  11.241  18.412  0.00  0.00    +0.000 C 
ATOM     12 BR   UNL     1      -2.350   9.860  17.187  0.00  0.00    +0.000 Br
ATOM     13  C   UNL     1      -0.816  11.633  18.816  0.00  0.00    +0.000 C 
ATOM     14  C   UNL     1      -0.707  12.643  19.932  0.00  0.00    +0.000 C 
ATOM     15  O   UNL     1       0.397  13.088  20.224  0.00  0.00    +0.000 OA
ENDROOT
BRANCH   1  16
ATOM     16  C   UNL     1      -5.663  12.299  20.489  0.00  0.00    +0.000 C 
ATOM     17  O   UNL     1      -6.046  11.161  20.686  0.00  0.00    +0.000 OA
BRANCH  16  19
ATOM     18  C   UNL     1      -7.654  12.950  19.410  0.00  0.00    +0.000 C 
ATOM     19  O   UNL     1      -6.309  13.267  19.791  0.00  0.00    +0.000 OA
ENDBRANCH  16  19
ENDBRANCH   1  16
BRANCH  13  20
ATOM     20  N   UNL     1       0.408  11.185  18.298  0.00  0.00    +0.000 N 
ATOM     21  H   UNL     1       0.317  11.081  17.277  0.00  0.00    +0.000 HD
BRANCH  20  22
ATOM     22  C   UNL     1       1.027   9.985  18.766  0.00  0.00    +0.000 A 
ATOM     23  C   UNL     1       0.847   9.490  20.069  0.00  0.00    +0.000 A 
ATOM     24  C   UNL     1       1.381   8.253  20.445  0.00  0.00    +0.000 A 
ATOM     25  C   UNL     1       2.094   7.497  19.522  0.00  0.00    +0.000 A 
ATOM     26 CL   UNL     1       2.710   5.955  19.973  0.00  0.00    +0.000 Cl
ATOM     27  C   UNL     1       2.292   7.975  18.229  0.00  0.00    +0.000 A 
ATOM     28  C   UNL     1       1.754   9.211  17.853  0.00  0.00    +0.000 A 
ENDBRANCH  20  22
ENDBRANCH  13  20
TORSDOF 4
ENDMDL
MODEL 8
REMARK VINA RESULT:      -6.3      3.177      5.096
REMARK  Name = 
REMARK  7 active torsions:
REMARK  status: ('A' for Active; 'I' for Inactive)
REMARK    1  A    between atoms: C_1  and  O_2
REMARK    2  A    between atoms: O_2  and  C_3
REMARK    3  A    between atoms: C_3  and  C_5
REMARK    4  A    between atoms: C_6  and  C_7
REMARK    5  A    between atoms: C_9  and  C_10
REMARK    6  A    between atoms: C_17  and  N_18
REMARK    7  A    between atoms: N_18  and  C_19
REMARK                            x       y       z     vdW  Elec       q    Type
REMARK                         _______ _______ _______ _____ _____    ______ ____
ROOT
ATOM      1  C   UNL     1      -0.842  11.828  19.645  0.00  0.00    +0.000 A 
ATOM      2  C   UNL     1      -1.683  12.201  20.691  0.00  0.00    +0.000 A 
ATOM      3  C   UNL     1      -2.702  13.300  20.631  0.00  0.00    +0.000 C 
ATOM      4  N   UNL     1      -1.618  11.576  21.899  0.00  0.00    +0.000 NA
ATOM      5  C   UNL     1      -0.737  10.564  22.111  0.00  0.00    +0.000 A 
ATOM      6  C   UNL     1      -0.796   9.968  23.489  0.00  0.00    +0.000 C 
ATOM      7  C   UNL     1       0.142  10.140  21.116  0.00  0.00    +0.000 A 
ATOM      8  C   UNL     1       0.098  10.814  19.893  0.00  0.00    +0.000 A 
ATOM      9  C   UNL     1       1.157  10.510  18.919  0.00  0.00    +0.000 C 
ATOM     10  O   UNL     1       1.612  11.397  18.206  0.00  0.00    +0.000 OA
ATOM     11  C   UNL     1       1.725   9.148  18.923  0.00  0.00    +0.000 C 
ATOM     12 BR   UNL     1       2.386   8.519  17.287  0.00  0.00    +0.000 Br
ATOM     13  C   UNL     1       1.817   8.479  20.084  0.00  0.00    +0.000 C 
ATOM     14  C   UNL     1       1.097   9.019  21.295  0.00  0.00    +0.000 C 
ATOM     15  O   UNL     1       1.272   8.477  22.381  0.00  0.00    +0.000 OA
ENDROOT
BRANCH   1  16
ATOM     16  C   UNL     1      -0.957  12.467  18.315  0.00  0.00    +0.000 C 
ATOM     17  O   UNL     1      -0.616  13.609  18.067  0.00  0.00    +0.000 OA
BRANCH  16  19
ATOM     18  C   UNL     1      -2.962  11.439  17.628  0.00  0.00    +0.000 C 
ATOM     19  O   UNL     1      -1.547  11.590  17.464  0.00  0.00    +0.000 OA
ENDBRANCH  16  19
ENDBRANCH   1  16
BRANCH  13  20
ATOM     20  N   UNL     1       2.530   7.291  20.298  0.00  0.00    +0.000 N 
ATOM     21  H   UNL     1       3.473   7.393  19.896  0.00  0.00    +0.000 HD
BRANCH  20  22
ATOM     22  C   UNL     1       2.039   6.028  19.843  0.00  0.00    +0.000 A 
ATOM     23  C   UNL     1       2.272   5.540  18.546  0.00  0.00    +0.000 A 
ATOM     24  C   UNL     1       1.869   4.250  18.182  0.00  0.00    +0.000 A 
ATOM     25  C   UNL     1       1.237   3.434  19.113  0.00  0.00    +0.000 A 
ATOM     26 CL   UNL     1       0.784   1.832  18.678  0.00  0.00    +0.000 Cl
ATOM     27  C   UNL     1       0.987   3.903  20.401  0.00  0.00    +0.000 A 
ATOM     28  C   UNL     1       1.394   5.193  20.764  0.00  0.00    +0.000 A 
ENDBRANCH  20  22
ENDBRANCH  13  20
TORSDOF 4
ENDMDL
MODEL 9
REMARK VINA RESULT:      -6.3      2.480      3.947
REMARK  Name = 
REMARK  7 active torsions:
REMARK  status: ('A' for Active; 'I' for Inactive)
REMARK    1  A    between atoms: C_1  and  O_2
REMARK    2  A    between atoms: O_2  and  C_3
REMARK    3  A    between atoms: C_3  and  C_5
REMARK    4  A    between atoms: C_6  and  C_7
REMARK    5  A    between atoms: C_9  and  C_10
REMARK    6  A    between atoms: C_17  and  N_18
REMARK    7  A    between atoms: N_18  and  C_19
REMARK                            x       y       z     vdW  Elec       q    Type
REMARK                         _______ _______ _______ _____ _____    ______ ____
ROOT
ATOM      1  C   UNL     1      -3.376  13.672  20.763  0.00  0.00    +0.000 A 
ATOM      2  C   UNL     1      -4.690  13.546  20.317  0.00  0.00    +0.000 A 
ATOM      3  C   UNL     1      -5.854  14.347  20.821  0.00  0.00    +0.000 C 
ATOM      4  N   UNL     1      -5.022  12.630  19.366  0.00  0.00    +0.000 NA
ATOM      5  C   UNL     1      -4.076  11.823  18.819  0.00  0.00    +0.000 A 
ATOM      6  C   UNL     1      -4.597  10.876  17.775  0.00  0.00    +0.000 C 
ATOM      7  C   UNL     1      -2.742  11.885  19.218  0.00  0.00    +0.000 A 
ATOM      8  C   UNL     1      -2.417  12.798  20.225  0.00  0.00    +0.000 A 
ATOM      9  C   UNL     1      -1.062  12.722  20.790  0.00  0.00    +0.000 C 
ATOM     10  O   UNL     1      -0.880  12.929  21.984  0.00  0.00    +0.000 OA
ATOM     11  C   UNL     1       0.029  12.272  19.904  0.00  0.00    +0.000 C 
ATOM     12 BR   UNL     1       1.738  12.934  20.289  0.00  0.00    +0.000 Br
ATOM     13  C   UNL     1      -0.235  11.369  18.945  0.00  0.00    +0.000 C 
ATOM     14  C   UNL     1      -1.674  11.046  18.625  0.00  0.00    +0.000 C 
ATOM     15  O   UNL     1      -1.917  10.140  17.835  0.00  0.00    +0.000 OA
ENDROOT
BRANCH   1  16
ATOM     16  C   UNL     1      -3.008  14.710  21.752  0.00  0.00    +0.000 C 
ATOM     17  O   UNL     1      -3.187  14.614  22.952  0.00  0.00    +0.000 OA
BRANCH  16  19
ATOM     18  C   UNL     1      -3.152  17.027  21.351  0.00  0.00    +0.000 C 
ATOM     19  O   UNL     1      -2.500  15.779  21.087  0.00  0.00    +0.000 OA
ENDBRANCH  16  19
ENDBRANCH   1  16
BRANCH  13  20
ATOM     20  N   UNL     1       0.714  10.674  18.182  0.00  0.00    +0.000 N 
ATOM     21  H   UNL     1       0.293  10.427  17.275  0.00  0.00    +0.000 HD
BRANCH  20  22
ATOM     22  C   UNL     1       1.341   9.483  18.665  0.00  0.00    +0.000 A 
ATOM     23  C   UNL     1       1.182   9.016  19.981  0.00  0.00    +0.000 A 
ATOM     24  C   UNL     1       1.722   7.787  20.375  0.00  0.00    +0.000 A 
ATOM     25  C   UNL     1       2.419   7.010  19.456  0.00  0.00    +0.000 A 
ATOM     26 CL   UNL     1       3.041   5.478  19.930  0.00  0.00    +0.000 Cl
ATOM     27  C   UNL     1       2.595   7.460  18.150  0.00  0.00    +0.000 A 
ATOM     28  C   UNL     1       2.052   8.689  17.756  0.00  0.00    +0.000 A 
ENDBRANCH  20  22
ENDBRANCH  13  20
TORSDOF 4
ENDMDL
