MODEL 1
REMARK VINA RESULT:      -9.5      0.000      0.000
REMARK  Name = 
REMARK  5 active torsions:
REMARK  status: ('A' for Active; 'I' for Inactive)
REMARK    1  A    between atoms: N_2  and  C_4
REMARK    2  A    between atoms: C_8  and  C_9
REMARK    3  A    between atoms: C_10  and  C_11
REMARK    4  A    between atoms: C_14  and  O_15
REMARK    5  A    between atoms: C_21  and  O_22
REMARK                            x       y       z     vdW  Elec       q    Type
REMARK                         _______ _______ _______ _____ _____    ______ ____
ROOT
ATOM      1  C   UNL     1       2.911   7.214  17.944  0.00  0.00    +0.000 C 
ATOM      2  C   UNL     1       2.987   5.883  18.161  0.00  0.00    +0.000 C 
ATOM      3  C   UNL     1       4.087   5.381  17.329  0.00  0.00    +0.000 A 
ATOM      4  C   UNL     1       4.515   4.070  17.164  0.00  0.00    +0.000 A 
ATOM      5  C   UNL     1       5.697   3.842  16.467  0.00  0.00    +0.000 A 
ATOM      6  C   UNL     1       6.423   4.928  15.961  0.00  0.00    +0.000 A 
ATOM      7  C   UNL     1       5.951   6.239  16.063  0.00  0.00    +0.000 A 
ATOM      8  C   UNL     1       4.758   6.449  16.734  0.00  0.00    +0.000 A 
ATOM      9  C   UNL     1       3.987   7.710  16.984  0.00  0.00    +0.000 C 
ENDROOT
BRANCH   1  14
ATOM     10  C   UNL     1       0.918   9.053  20.546  0.00  0.00    +0.000 A 
ATOM     11  C   UNL     1       0.160   9.930  19.767  0.00  0.00    +0.000 A 
ATOM     12  C   UNL     1       0.330   9.942  18.381  0.00  0.00    +0.000 A 
ATOM     13  C   UNL     1       1.252   9.071  17.783  0.00  0.00    +0.000 A 
ATOM     14  C   UNL     1       2.007   8.184  18.564  0.00  0.00    +0.000 A 
ATOM     15  C   UNL     1       1.856   8.195  19.954  0.00  0.00    +0.000 A 
BRANCH  10  17
ATOM     16  O   UNL     1       1.644   9.386  22.721  0.00  0.00    +0.000 OA
ATOM     17  N   UNL     1       0.712   9.009  21.996  0.00  0.00    +0.000 N 
ATOM     18  O   UNL     1      -0.384   8.610  22.413  0.00  0.00    +0.000 OA
ENDBRANCH  10  17
ENDBRANCH   1  14
BRANCH   2  19
ATOM     19  C   UNL     1       2.290   5.089  19.170  0.00  0.00    +0.000 A 
ATOM     20  C   UNL     1       1.294   4.176  18.825  0.00  0.00    +0.000 A 
ATOM     21  C   UNL     1       0.823   3.274  19.784  0.00  0.00    +0.000 A 
ATOM     22  C   UNL     1       1.349   3.300  21.077  0.00  0.00    +0.000 A 
ATOM     23  C   UNL     1       2.319   4.224  21.437  0.00  0.00    +0.000 A 
ATOM     24  C   UNL     1       2.789   5.119  20.483  0.00  0.00    +0.000 A 
BRANCH  22  25
ATOM     25  O   UNL     1       0.954   2.404  22.025  0.00  0.00    +0.000 OA
ATOM     26  H   UNL     1       0.299   1.805  21.631  0.00  0.00    +0.000 HD
ENDBRANCH  22  25
ENDBRANCH   2  19
BRANCH   6  27
ATOM     27  O   UNL     1       7.632   4.729  15.359  0.00  0.00    +0.000 OA
ATOM     28  H   UNL     1       8.328   5.008  15.978  0.00  0.00    +0.000 HD
ENDBRANCH   6  27
TORSDOF 5
ENDMDL
MODEL 2
REMARK VINA RESULT:      -9.2      1.626      2.095
REMARK  Name = 
REMARK  5 active torsions:
REMARK  status: ('A' for Active; 'I' for Inactive)
REMARK    1  A    between atoms: N_2  and  C_4
REMARK    2  A    between atoms: C_8  and  C_9
REMARK    3  A    between atoms: C_10  and  C_11
REMARK    4  A    between atoms: C_14  and  O_15
REMARK    5  A    between atoms: C_21  and  O_22
REMARK                            x       y       z     vdW  Elec       q    Type
REMARK                         _______ _______ _______ _____ _____    ______ ____
ROOT
ATOM      1  C   UNL     1       3.050   6.877  18.116  0.00  0.00    +0.000 C 
ATOM      2  C   UNL     1       3.233   5.538  18.145  0.00  0.00    +0.000 C 
ATOM      3  C   UNL     1       4.240   5.227  17.123  0.00  0.00    +0.000 A 
ATOM      4  C   UNL     1       4.718   3.983  16.736  0.00  0.00    +0.000 A 
ATOM      5  C   UNL     1       5.808   3.932  15.873  0.00  0.00    +0.000 A 
ATOM      6  C   UNL     1       6.394   5.124  15.427  0.00  0.00    +0.000 A 
ATOM      7  C   UNL     1       5.864   6.373  15.759  0.00  0.00    +0.000 A 
ATOM      8  C   UNL     1       4.760   6.408  16.595  0.00  0.00    +0.000 A 
ATOM      9  C   UNL     1       3.957   7.566  17.103  0.00  0.00    +0.000 C 
ENDROOT
BRANCH   1  14
ATOM     10  C   UNL     1       0.796   9.659  19.260  0.00  0.00    +0.000 A 
ATOM     11  C   UNL     1       0.631   9.362  20.615  0.00  0.00    +0.000 A 
ATOM     12  C   UNL     1       1.234   8.221  21.148  0.00  0.00    +0.000 A 
ATOM     13  C   UNL     1       2.007   7.390  20.324  0.00  0.00    +0.000 A 
ATOM     14  C   UNL     1       2.181   7.692  18.966  0.00  0.00    +0.000 A 
ATOM     15  C   UNL     1       1.550   8.818  18.428  0.00  0.00    +0.000 A 
BRANCH  10  17
ATOM     16  O   UNL     1       0.825  11.937  18.839  0.00  0.00    +0.000 OA
ATOM     17  N   UNL     1       0.198  10.877  18.707  0.00  0.00    +0.000 N 
ATOM     18  O   UNL     1      -0.893  10.773  18.129  0.00  0.00    +0.000 OA
ENDBRANCH  10  17
ENDBRANCH   1  14
BRANCH   2  19
ATOM     19  C   UNL     1       2.725   4.576  19.119  0.00  0.00    +0.000 A 
ATOM     20  C   UNL     1       3.434   4.261  20.279  0.00  0.00    +0.000 A 
ATOM     21  C   UNL     1       2.810   3.524  21.289  0.00  0.00    +0.000 A 
ATOM     22  C   UNL     1       1.488   3.104  21.126  0.00  0.00    +0.000 A 
ATOM     23  C   UNL     1       0.785   3.386  19.964  0.00  0.00    +0.000 A 
ATOM     24  C   UNL     1       1.404   4.122  18.960  0.00  0.00    +0.000 A 
BRANCH  22  25
ATOM     25  O   UNL     1       0.829   2.428  22.110  0.00  0.00    +0.000 OA
ATOM     26  H   UNL     1       0.277   1.744  21.697  0.00  0.00    +0.000 HD
ENDBRANCH  22  25
ENDBRANCH   2  19
BRANCH   6  27
ATOM     27  O   UNL     1       7.523   5.092  14.659  0.00  0.00    +0.000 OA
ATOM     28  H   UNL     1       7.893   4.194  14.701  0.00  0.00    +0.000 HD
ENDBRANCH   6  27
TORSDOF 5
ENDMDL
MODEL 3
REMARK VINA RESULT:      -9.1      1.764      2.013
REMARK  Name = 
REMARK  5 active torsions:
REMARK  status: ('A' for Active; 'I' for Inactive)
REMARK    1  A    between atoms: N_2  and  C_4
REMARK    2  A    between atoms: C_8  and  C_9
REMARK    3  A    between atoms: C_10  and  C_11
REMARK    4  A    between atoms: C_14  and  O_15
REMARK    5  A    between atoms: C_21  and  O_22
REMARK                            x       y       z     vdW  Elec       q    Type
REMARK                         _______ _______ _______ _____ _____    ______ ____
ROOT
ATOM      1  C   UNL     1       2.683   7.278  18.263  0.00  0.00    +0.000 C 
ATOM      2  C   UNL     1       2.833   5.939  18.373  0.00  0.00    +0.000 C 
ATOM      3  C   UNL     1       3.900   5.555  17.441  0.00  0.00    +0.000 A 
ATOM      4  C   UNL     1       4.374   4.283  17.151  0.00  0.00    +0.000 A 
ATOM      5  C   UNL     1       5.519   4.165  16.370  0.00  0.00    +0.000 A 
ATOM      6  C   UNL     1       6.162   5.320  15.905  0.00  0.00    +0.000 A 
ATOM      7  C   UNL     1       5.639   6.596  16.135  0.00  0.00    +0.000 A 
ATOM      8  C   UNL     1       4.482   6.696  16.890  0.00  0.00    +0.000 A 
ATOM      9  C   UNL     1       3.673   7.895  17.281  0.00  0.00    +0.000 C 
ENDROOT
BRANCH   1  14
ATOM     10  C   UNL     1       0.179   9.975  19.026  0.00  0.00    +0.000 A 
ATOM     11  C   UNL     1       0.144   9.953  20.423  0.00  0.00    +0.000 A 
ATOM     12  C   UNL     1       0.920   9.022  21.116  0.00  0.00    +0.000 A 
ATOM     13  C   UNL     1       1.734   8.126  20.409  0.00  0.00    +0.000 A 
ATOM     14  C   UNL     1       1.777   8.153  19.008  0.00  0.00    +0.000 A 
ATOM     15  C   UNL     1       0.975   9.065  18.314  0.00  0.00    +0.000 A 
BRANCH  10  17
ATOM     16  O   UNL     1      -0.351  12.170  18.511  0.00  0.00    +0.000 OA
ATOM     17  N   UNL     1      -0.603  10.976  18.297  0.00  0.00    +0.000 N 
ATOM     18  O   UNL     1      -1.461  10.572  17.500  0.00  0.00    +0.000 OA
ENDBRANCH  10  17
ENDBRANCH   1  14
BRANCH   2  19
ATOM     19  C   UNL     1       2.237   5.039  19.358  0.00  0.00    +0.000 A 
ATOM     20  C   UNL     1       1.302   4.070  18.995  0.00  0.00    +0.000 A 
ATOM     21  C   UNL     1       0.938   3.084  19.917  0.00  0.00    +0.000 A 
ATOM     22  C   UNL     1       1.509   3.082  21.191  0.00  0.00    +0.000 A 
ATOM     23  C   UNL     1       2.417   4.059  21.571  0.00  0.00    +0.000 A 
ATOM     24  C   UNL     1       2.781   5.039  20.653  0.00  0.00    +0.000 A 
BRANCH  22  25
ATOM     25  O   UNL     1       1.220   2.107  22.100  0.00  0.00    +0.000 OA
ATOM     26  H   UNL     1       0.488   1.571  21.755  0.00  0.00    +0.000 HD
ENDBRANCH  22  25
ENDBRANCH   2  19
BRANCH   6  27
ATOM     27  O   UNL     1       7.339   5.226  15.220  0.00  0.00    +0.000 OA
ATOM     28  H   UNL     1       7.186   5.537  14.311  0.00  0.00    +0.000 HD
ENDBRANCH   6  27
TORSDOF 5
ENDMDL
MODEL 4
REMARK VINA RESULT:      -8.5      2.339      6.133
REMARK  Name = 
REMARK  5 active torsions:
REMARK  status: ('A' for Active; 'I' for Inactive)
REMARK    1  A    between atoms: N_2  and  C_4
REMARK    2  A    between atoms: C_8  and  C_9
REMARK    3  A    between atoms: C_10  and  C_11
REMARK    4  A    between atoms: C_14  and  O_15
REMARK    5  A    between atoms: C_21  and  O_22
REMARK                            x       y       z     vdW  Elec       q    Type
REMARK                         _______ _______ _______ _____ _____    ______ ____
ROOT
ATOM      1  C   UNL     1       2.947   6.853  18.409  0.00  0.00    +0.000 C 
ATOM      2  C   UNL     1       2.200   6.727  19.528  0.00  0.00    +0.000 C 
ATOM      3  C   UNL     1       1.561   8.028  19.759  0.00  0.00    +0.000 A 
ATOM      4  C   UNL     1       0.746   8.413  20.815  0.00  0.00    +0.000 A 
ATOM      5  C   UNL     1       0.099   9.642  20.738  0.00  0.00    +0.000 A 
ATOM      6  C   UNL     1       0.277  10.449  19.607  0.00  0.00    +0.000 A 
ATOM      7  C   UNL     1       1.157  10.093  18.581  0.00  0.00    +0.000 A 
ATOM      8  C   UNL     1       1.817   8.879  18.685  0.00  0.00    +0.000 A 
ATOM      9  C   UNL     1       2.826   8.238  17.782  0.00  0.00    +0.000 C 
ENDROOT
BRANCH   1  14
ATOM     10  C   UNL     1       5.768   5.206  16.551  0.00  0.00    +0.000 A 
ATOM     11  C   UNL     1       5.246   3.935  16.295  0.00  0.00    +0.000 A 
ATOM     12  C   UNL     1       3.974   3.606  16.767  0.00  0.00    +0.000 A 
ATOM     13  C   UNL     1       3.228   4.553  17.484  0.00  0.00    +0.000 A 
ATOM     14  C   UNL     1       3.747   5.831  17.734  0.00  0.00    +0.000 A 
ATOM     15  C   UNL     1       5.035   6.148  17.287  0.00  0.00    +0.000 A 
BRANCH  10  17
ATOM     16  O   UNL     1       7.596   4.812  15.184  0.00  0.00    +0.000 OA
ATOM     17  N   UNL     1       7.086   5.567  16.023  0.00  0.00    +0.000 N 
ATOM     18  O   UNL     1       7.607   6.612  16.436  0.00  0.00    +0.000 OA
ENDBRANCH  10  17
ENDBRANCH   1  14
BRANCH   2  19
ATOM     19  C   UNL     1       1.880   5.510  20.272  0.00  0.00    +0.000 A 
ATOM     20  C   UNL     1       0.863   4.647  19.865  0.00  0.00    +0.000 A 
ATOM     21  C   UNL     1       0.748   3.389  20.461  0.00  0.00    +0.000 A 
ATOM     22  C   UNL     1       1.646   3.009  21.459  0.00  0.00    +0.000 A 
ATOM     23  C   UNL     1       2.643   3.872  21.892  0.00  0.00    +0.000 A 
ATOM     24  C   UNL     1       2.759   5.124  21.297  0.00  0.00    +0.000 A 
BRANCH  22  25
ATOM     25  O   UNL     1       1.599   1.771  22.028  0.00  0.00    +0.000 OA
ATOM     26  H   UNL     1       1.794   1.109  21.343  0.00  0.00    +0.000 HD
ENDBRANCH  22  25
ENDBRANCH   2  19
BRANCH   6  27
ATOM     27  O   UNL     1      -0.425  11.612  19.472  0.00  0.00    +0.000 OA
ATOM     28  H   UNL     1      -0.112  12.064  18.670  0.00  0.00    +0.000 HD
ENDBRANCH   6  27
TORSDOF 5
ENDMDL
MODEL 5
REMARK VINA RESULT:      -8.4      2.293      6.227
REMARK  Name = 
REMARK  5 active torsions:
REMARK  status: ('A' for Active; 'I' for Inactive)
REMARK    1  A    between atoms: N_2  and  C_4
REMARK    2  A    between atoms: C_8  and  C_9
REMARK    3  A    between atoms: C_10  and  C_11
REMARK    4  A    between atoms: C_14  and  O_15
REMARK    5  A    between atoms: C_21  and  O_22
REMARK                            x       y       z     vdW  Elec       q    Type
REMARK                         _______ _______ _______ _____ _____    ______ ____
ROOT
ATOM      1  C   UNL     1       3.121   6.688  18.308  0.00  0.00    +0.000 C 
ATOM      2  C   UNL     1       2.431   6.445  19.444  0.00  0.00    +0.000 C 
ATOM      3  C   UNL     1       1.735   7.690  19.791  0.00  0.00    +0.000 A 
ATOM      4  C   UNL     1       0.948   7.956  20.903  0.00  0.00    +0.000 A 
ATOM      5  C   UNL     1       0.233   9.149  20.939  0.00  0.00    +0.000 A 
ATOM      6  C   UNL     1       0.319  10.039  19.861  0.00  0.00    +0.000 A 
ATOM      7  C   UNL     1       1.170   9.803  18.777  0.00  0.00    +0.000 A 
ATOM      8  C   UNL     1       1.897   8.625  18.770  0.00  0.00    +0.000 A 
ATOM      9  C   UNL     1       2.898   8.103  17.784  0.00  0.00    +0.000 C 
ENDROOT
BRANCH   1  14
ATOM     10  C   UNL     1       5.939   5.332  16.224  0.00  0.00    +0.000 A 
ATOM     11  C   UNL     1       5.476   4.053  15.904  0.00  0.00    +0.000 A 
ATOM     12  C   UNL     1       4.247   3.621  16.405  0.00  0.00    +0.000 A 
ATOM     13  C   UNL     1       3.484   4.474  17.216  0.00  0.00    +0.000 A 
ATOM     14  C   UNL     1       3.944   5.761  17.531  0.00  0.00    +0.000 A 
ATOM     15  C   UNL     1       5.190   6.180  17.053  0.00  0.00    +0.000 A 
BRANCH  10  17
ATOM     16  O   UNL     1       7.590   5.302  14.599  0.00  0.00    +0.000 OA
ATOM     17  N   UNL     1       7.210   5.803  15.667  0.00  0.00    +0.000 N 
ATOM     18  O   UNL     1       7.823   6.681  16.289  0.00  0.00    +0.000 OA
ENDBRANCH  10  17
ENDBRANCH   1  14
BRANCH   2  19
ATOM     19  C   UNL     1       2.210   5.165  20.113  0.00  0.00    +0.000 A 
ATOM     20  C   UNL     1       2.967   4.774  21.218  0.00  0.00    +0.000 A 
ATOM     21  C   UNL     1       2.570   3.662  21.965  0.00  0.00    +0.000 A 
ATOM     22  C   UNL     1       1.427   2.950  21.597  0.00  0.00    +0.000 A 
ATOM     23  C   UNL     1       0.685   3.313  20.483  0.00  0.00    +0.000 A 
ATOM     24  C   UNL     1       1.078   4.422  19.740  0.00  0.00    +0.000 A 
BRANCH  22  25
ATOM     25  O   UNL     1       0.978   1.892  22.331  0.00  0.00    +0.000 OA
ATOM     26  H   UNL     1       1.744   1.441  22.723  0.00  0.00    +0.000 HD
ENDBRANCH  22  25
ENDBRANCH   2  19
BRANCH   6  27
ATOM     27  O   UNL     1      -0.449  11.168  19.835  0.00  0.00    +0.000 OA
ATOM     28  H   UNL     1      -0.145  11.726  19.100  0.00  0.00    +0.000 HD
ENDBRANCH   6  27
TORSDOF 5
ENDMDL
MODEL 6
REMARK VINA RESULT:      -8.2      4.161      8.001
REMARK  Name = 
REMARK  5 active torsions:
REMARK  status: ('A' for Active; 'I' for Inactive)
REMARK    1  A    between atoms: N_2  and  C_4
REMARK    2  A    between atoms: C_8  and  C_9
REMARK    3  A    between atoms: C_10  and  C_11
REMARK    4  A    between atoms: C_14  and  O_15
REMARK    5  A    between atoms: C_21  and  O_22
REMARK                            x       y       z     vdW  Elec       q    Type
REMARK                         _______ _______ _______ _____ _____    ______ ____
ROOT
ATOM      1  C   UNL     1       4.727   4.390  16.240  0.00  0.00    +0.000 C 
ATOM      2  C   UNL     1       4.975   5.152  17.328  0.00  0.00    +0.000 C 
ATOM      3  C   UNL     1       3.952   4.811  18.325  0.00  0.00    +0.000 A 
ATOM      4  C   UNL     1       3.754   5.369  19.580  0.00  0.00    +0.000 A 
ATOM      5  C   UNL     1       2.836   4.767  20.435  0.00  0.00    +0.000 A 
ATOM      6  C   UNL     1       2.148   3.621  20.015  0.00  0.00    +0.000 A 
ATOM      7  C   UNL     1       2.295   3.107  18.724  0.00  0.00    +0.000 A 
ATOM      8  C   UNL     1       3.190   3.735  17.874  0.00  0.00    +0.000 A 
ATOM      9  C   UNL     1       3.545   3.448  16.447  0.00  0.00    +0.000 C 
ENDROOT
BRANCH   1  14
ATOM     10  C   UNL     1       5.719   3.461  12.736  0.00  0.00    +0.000 A 
ATOM     11  C   UNL     1       6.983   4.046  12.626  0.00  0.00    +0.000 A 
ATOM     12  C   UNL     1       7.497   4.780  13.697  0.00  0.00    +0.000 A 
ATOM     13  C   UNL     1       6.747   4.917  14.874  0.00  0.00    +0.000 A 
ATOM     14  C   UNL     1       5.482   4.323  14.988  0.00  0.00    +0.000 A 
ATOM     15  C   UNL     1       4.957   3.614  13.903  0.00  0.00    +0.000 A 
BRANCH  10  17
ATOM     16  O   UNL     1       5.836   1.651  11.294  0.00  0.00    +0.000 OA
ATOM     17  N   UNL     1       5.194   2.657  11.629  0.00  0.00    +0.000 N 
ATOM     18  O   UNL     1       4.134   3.022  11.101  0.00  0.00    +0.000 OA
ENDBRANCH  10  17
ENDBRANCH   1  14
BRANCH   2  19
ATOM     19  C   UNL     1       6.136   5.997  17.596  0.00  0.00    +0.000 A 
ATOM     20  C   UNL     1       6.218   7.305  17.119  0.00  0.00    +0.000 A 
ATOM     21  C   UNL     1       7.226   8.149  17.592  0.00  0.00    +0.000 A 
ATOM     22  C   UNL     1       8.145   7.674  18.530  0.00  0.00    +0.000 A 
ATOM     23  C   UNL     1       8.090   6.366  18.987  0.00  0.00    +0.000 A 
ATOM     24  C   UNL     1       7.085   5.526  18.519  0.00  0.00    +0.000 A 
BRANCH  22  25
ATOM     25  O   UNL     1       9.110   8.482  19.055  0.00  0.00    +0.000 OA
ATOM     26  H   UNL     1       9.958   8.263  18.633  0.00  0.00    +0.000 HD
ENDBRANCH  22  25
ENDBRANCH   2  19
BRANCH   6  27
ATOM     27  O   UNL     1       1.317   2.961  20.875  0.00  0.00    +0.000 OA
ATOM     28  H   UNL     1       1.851   2.331  21.389  0.00  0.00    +0.000 HD
ENDBRANCH   6  27
TORSDOF 5
ENDMDL
MODEL 7
REMARK VINA RESULT:      -8.2      2.435      5.961
REMARK  Name = 
REMARK  5 active torsions:
REMARK  status: ('A' for Active; 'I' for Inactive)
REMARK    1  A    between atoms: N_2  and  C_4
REMARK    2  A    between atoms: C_8  and  C_9
REMARK    3  A    between atoms: C_10  and  C_11
REMARK    4  A    between atoms: C_14  and  O_15
REMARK    5  A    between atoms: C_21  and  O_22
REMARK                            x       y       z     vdW  Elec       q    Type
REMARK                         _______ _______ _______ _____ _____    ______ ____
ROOT
ATOM      1  C   UNL     1       3.246   6.796  18.379  0.00  0.00    +0.000 C 
ATOM      2  C   UNL     1       2.355   6.689  19.390  0.00  0.00    +0.000 C 
ATOM      3  C   UNL     1       1.664   7.980  19.484  0.00  0.00    +0.000 A 
ATOM      4  C   UNL     1       0.706   8.379  20.406  0.00  0.00    +0.000 A 
ATOM      5  C   UNL     1       0.049   9.588  20.197  0.00  0.00    +0.000 A 
ATOM      6  C   UNL     1       0.364  10.361  19.072  0.00  0.00    +0.000 A 
ATOM      7  C   UNL     1       1.382   9.994  18.188  0.00  0.00    +0.000 A 
ATOM      8  C   UNL     1       2.047   8.802  18.425  0.00  0.00    +0.000 A 
ATOM      9  C   UNL     1       3.183   8.156  17.691  0.00  0.00    +0.000 C 
ENDROOT
BRANCH   1  14
ATOM     10  C   UNL     1       6.357   4.770  17.796  0.00  0.00    +0.000 A 
ATOM     11  C   UNL     1       5.962   3.921  16.759  0.00  0.00    +0.000 A 
ATOM     12  C   UNL     1       4.655   3.991  16.273  0.00  0.00    +0.000 A 
ATOM     13  C   UNL     1       3.754   4.915  16.821  0.00  0.00    +0.000 A 
ATOM     14  C   UNL     1       4.152   5.774  17.856  0.00  0.00    +0.000 A 
ATOM     15  C   UNL     1       5.453   5.681  18.362  0.00  0.00    +0.000 A 
BRANCH  10  17
ATOM     16  O   UNL     1       8.017   5.402  19.283  0.00  0.00    +0.000 OA
ATOM     17  N   UNL     1       7.739   4.727  18.281  0.00  0.00    +0.000 N 
ATOM     18  O   UNL     1       8.544   4.011  17.670  0.00  0.00    +0.000 OA
ENDBRANCH  10  17
ENDBRANCH   1  14
BRANCH   2  19
ATOM     19  C   UNL     1       1.963   5.490  20.127  0.00  0.00    +0.000 A 
ATOM     20  C   UNL     1       1.103   4.539  19.577  0.00  0.00    +0.000 A 
ATOM     21  C   UNL     1       0.943   3.305  20.213  0.00  0.00    +0.000 A 
ATOM     22  C   UNL     1       1.639   3.038  21.394  0.00  0.00    +0.000 A 
ATOM     23  C   UNL     1       2.473   3.988  21.964  0.00  0.00    +0.000 A 
ATOM     24  C   UNL     1       2.635   5.216  21.330  0.00  0.00    +0.000 A 
BRANCH  22  25
ATOM     25  O   UNL     1       1.550   1.828  22.016  0.00  0.00    +0.000 OA
ATOM     26  H   UNL     1       0.837   1.871  22.674  0.00  0.00    +0.000 HD
ENDBRANCH  22  25
ENDBRANCH   2  19
BRANCH   6  27
ATOM     27  O   UNL     1      -0.337  11.501  18.801  0.00  0.00    +0.000 OA
ATOM     28  H   UNL     1       0.193  12.261  19.096  0.00  0.00    +0.000 HD
ENDBRANCH   6  27
TORSDOF 5
ENDMDL
MODEL 8
REMARK VINA RESULT:      -8.1      3.070      5.610
REMARK  Name = 
REMARK  5 active torsions:
REMARK  status: ('A' for Active; 'I' for Inactive)
REMARK    1  A    between atoms: N_2  and  C_4
REMARK    2  A    between atoms: C_8  and  C_9
REMARK    3  A    between atoms: C_10  and  C_11
REMARK    4  A    between atoms: C_14  and  O_15
REMARK    5  A    between atoms: C_21  and  O_22
REMARK                            x       y       z     vdW  Elec       q    Type
REMARK                         _______ _______ _______ _____ _____    ______ ____
ROOT
ATOM      1  C   UNL     1       4.693   4.678  17.232  0.00  0.00    +0.000 C 
ATOM      2  C   UNL     1       5.901   5.204  16.932  0.00  0.00    +0.000 C 
ATOM      3  C   UNL     1       6.252   4.720  15.591  0.00  0.00    +0.000 A 
ATOM      4  C   UNL     1       7.421   4.939  14.874  0.00  0.00    +0.000 A 
ATOM      5  C   UNL     1       7.466   4.536  13.543  0.00  0.00    +0.000 A 
ATOM      6  C   UNL     1       6.343   3.933  12.963  0.00  0.00    +0.000 A 
ATOM      7  C   UNL     1       5.196   3.646  13.708  0.00  0.00    +0.000 A 
ATOM      8  C   UNL     1       5.175   4.026  15.040  0.00  0.00    +0.000 A 
ATOM      9  C   UNL     1       4.125   3.839  16.092  0.00  0.00    +0.000 C 
ENDROOT
BRANCH   1  14
ATOM     10  C   UNL     1       2.922   4.014  20.479  0.00  0.00    +0.000 A 
ATOM     11  C   UNL     1       2.219   5.205  20.677  0.00  0.00    +0.000 A 
ATOM     12  C   UNL     1       2.355   6.245  19.756  0.00  0.00    +0.000 A 
ATOM     13  C   UNL     1       3.187   6.084  18.638  0.00  0.00    +0.000 A 
ATOM     14  C   UNL     1       3.887   4.886  18.435  0.00  0.00    +0.000 A 
ATOM     15  C   UNL     1       3.772   3.857  19.375  0.00  0.00    +0.000 A 
BRANCH  10  17
ATOM     16  O   UNL     1       1.680   2.841  22.044  0.00  0.00    +0.000 OA
ATOM     17  N   UNL     1       2.750   2.906  21.422  0.00  0.00    +0.000 N 
ATOM     18  O   UNL     1       3.677   2.093  21.534  0.00  0.00    +0.000 OA
ENDBRANCH  10  17
ENDBRANCH   1  14
BRANCH   2  19
ATOM     19  C   UNL     1       6.650   6.225  17.659  0.00  0.00    +0.000 A 
ATOM     20  C   UNL     1       7.537   5.895  18.684  0.00  0.00    +0.000 A 
ATOM     21  C   UNL     1       8.401   6.871  19.189  0.00  0.00    +0.000 A 
ATOM     22  C   UNL     1       8.365   8.166  18.668  0.00  0.00    +0.000 A 
ATOM     23  C   UNL     1       7.466   8.511  17.671  0.00  0.00    +0.000 A 
ATOM     24  C   UNL     1       6.607   7.540  17.166  0.00  0.00    +0.000 A 
BRANCH  22  25
ATOM     25  O   UNL     1       9.227   9.131  19.098  0.00  0.00    +0.000 OA
ATOM     26  H   UNL     1      10.023   9.102  18.543  0.00  0.00    +0.000 HD
ENDBRANCH  22  25
ENDBRANCH   2  19
BRANCH   6  27
ATOM     27  O   UNL     1       6.337   3.621  11.634  0.00  0.00    +0.000 OA
ATOM     28  H   UNL     1       6.935   4.235  11.176  0.00  0.00    +0.000 HD
ENDBRANCH   6  27
TORSDOF 5
ENDMDL
MODEL 9
REMARK VINA RESULT:      -7.9      2.462      6.028
REMARK  Name = 
REMARK  5 active torsions:
REMARK  status: ('A' for Active; 'I' for Inactive)
REMARK    1  A    between atoms: N_2  and  C_4
REMARK    2  A    between atoms: C_8  and  C_9
REMARK    3  A    between atoms: C_10  and  C_11
REMARK    4  A    between atoms: C_14  and  O_15
REMARK    5  A    between atoms: C_21  and  O_22
REMARK                            x       y       z     vdW  Elec       q    Type
REMARK                         _______ _______ _______ _____ _____    ______ ____
ROOT
ATOM      1  C   UNL     1       3.573   7.398  17.892  0.00  0.00    +0.000 C 
ATOM      2  C   UNL     1       2.679   7.066  18.850  0.00  0.00    +0.000 C 
ATOM      3  C   UNL     1       1.850   8.254  19.084  0.00  0.00    +0.000 A 
ATOM      4  C   UNL     1       0.835   8.427  20.015  0.00  0.00    +0.000 A 
ATOM      5  C   UNL     1       0.056   9.577  19.940  0.00  0.00    +0.000 A 
ATOM      6  C   UNL     1       0.308  10.519  18.934  0.00  0.00    +0.000 A 
ATOM      7  C   UNL     1       1.378  10.379  18.047  0.00  0.00    +0.000 A 
ATOM      8  C   UNL     1       2.163   9.243  18.152  0.00  0.00    +0.000 A 
ATOM      9  C   UNL     1       3.377   8.821  17.381  0.00  0.00    +0.000 C 
ENDROOT
BRANCH   1  14
ATOM     10  C   UNL     1       6.663   5.301  17.461  0.00  0.00    +0.000 A 
ATOM     11  C   UNL     1       6.659   5.056  16.085  0.00  0.00    +0.000 A 
ATOM     12  C   UNL     1       5.616   5.552  15.301  0.00  0.00    +0.000 A 
ATOM     13  C   UNL     1       4.589   6.299  15.896  0.00  0.00    +0.000 A 
ATOM     14  C   UNL     1       4.596   6.553  17.274  0.00  0.00    +0.000 A 
ATOM     15  C   UNL     1       5.626   6.028  18.063  0.00  0.00    +0.000 A 
BRANCH  10  17
ATOM     16  O   UNL     1       8.560   4.008  17.764  0.00  0.00    +0.000 OA
ATOM     17  N   UNL     1       7.776   4.816  18.281  0.00  0.00    +0.000 N 
ATOM     18  O   UNL     1       7.876   5.251  19.436  0.00  0.00    +0.000 OA
ENDBRANCH  10  17
ENDBRANCH   1  14
BRANCH   2  19
ATOM     19  C   UNL     1       2.405   5.747  19.414  0.00  0.00    +0.000 A 
ATOM     20  C   UNL     1       2.613   5.468  20.765  0.00  0.00    +0.000 A 
ATOM     21  C   UNL     1       2.119   4.279  21.307  0.00  0.00    +0.000 A 
ATOM     22  C   UNL     1       1.429   3.379  20.493  0.00  0.00    +0.000 A 
ATOM     23  C   UNL     1       1.243   3.633  19.142  0.00  0.00    +0.000 A 
ATOM     24  C   UNL     1       1.732   4.818  18.602  0.00  0.00    +0.000 A 
BRANCH  22  25
ATOM     25  O   UNL     1       0.887   2.234  20.996  0.00  0.00    +0.000 OA
ATOM     26  H   UNL     1       0.319   1.836  20.315  0.00  0.00    +0.000 HD
ENDBRANCH  22  25
ENDBRANCH   2  19
BRANCH   6  27
ATOM     27  O   UNL     1      -0.507  11.604  18.786  0.00  0.00    +0.000 OA
ATOM     28  H   UNL     1       0.053  12.391  18.671  0.00  0.00    +0.000 HD
ENDBRANCH   6  27
TORSDOF 5
ENDMDL
