MODEL 1
REMARK VINA RESULT:      -7.6      0.000      0.000
REMARK  Name = 
REMARK  7 active torsions:
REMARK  status: ('A' for Active; 'I' for Inactive)
REMARK    1  A    between atoms: C_1  and  C_2
REMARK    2  A    between atoms: C_2  and  N_3
REMARK    3  A    between atoms: C_4  and  C_6
REMARK    4  A    between atoms: C_8  and  N_9
REMARK    5  A    between atoms: N_14  and  C_15
REMARK    6  A    between atoms: C_20  and  O_21
REMARK    7  A    between atoms: C_22  and  O_23
REMARK                            x       y       z     vdW  Elec       q    Type
REMARK                         _______ _______ _______ _____ _____    ______ ____
ROOT
ATOM      1  C   UNL     1       5.135   4.344  19.075  0.00  0.00    +0.000 C 
ATOM      2  O   UNL     1       4.624   5.638  19.420  0.00  0.00    +0.000 OA
ATOM      3  C   UNL     1       3.193   5.616  19.269  0.00  0.00    +0.000 C 
ATOM      4  C   UNL     1       2.862   4.488  18.299  0.00  0.00    +0.000 C 
ATOM      5  C   UNL     1       3.957   3.480  18.615  0.00  0.00    +0.000 C 
ENDROOT
BRANCH   3   6
ATOM      6  N   UNL     1       2.750   6.927  18.851  0.00  0.00    +0.000 N 
ATOM      7  C   UNL     1       3.004   7.502  17.632  0.00  0.00    +0.000 A 
ATOM      8  N   UNL     1       2.426   8.681  17.518  0.00  0.00    +0.000 NA
ATOM      9  C   UNL     1       1.774   8.876  18.718  0.00  0.00    +0.000 A 
ATOM     10  C   UNL     1       0.954   9.921  19.194  0.00  0.00    +0.000 A 
ATOM     11  N   UNL     1       0.603  10.987  18.384  0.00  0.00    +0.000 N 
ATOM     12  C   UNL     1      -0.080  12.131  18.929  0.00  0.00    +0.000 C 
ATOM     13  N   UNL     1       0.476   9.816  20.461  0.00  0.00    +0.000 NA
ATOM     14  C   UNL     1       0.780   8.722  21.185  0.00  0.00    +0.000 A 
ATOM     15  N   UNL     1       1.516   7.648  20.822  0.00  0.00    +0.000 NA
ATOM     16  C   UNL     1       1.979   7.802  19.569  0.00  0.00    +0.000 A 
ATOM     17  H   UNL     1       1.204  11.112  17.577  0.00  0.00    +0.000 HD
ENDBRANCH   3   6
BRANCH   1  19
ATOM     18  N   UNL     1       5.867   4.122  16.730  0.00  0.00    +0.000 N 
ATOM     19  C   UNL     1       6.256   4.377  18.026  0.00  0.00    +0.000 C 
ATOM     20  O   UNL     1       7.429   4.547  18.353  0.00  0.00    +0.000 OA
ATOM     21  H   UNL     1       4.884   4.253  16.488  0.00  0.00    +0.000 HD
BRANCH  18  23
ATOM     22  C   UNL     1       6.143   4.071  14.283  0.00  0.00    +0.000 C 
ATOM     23  C   UNL     1       6.824   4.112  15.640  0.00  0.00    +0.000 C 
ENDBRANCH  18  23
ENDBRANCH   1  19
BRANCH   4  24
ATOM     24  O   UNL     1       1.560   3.946  18.523  0.00  0.00    +0.000 OA
ATOM     25  H   UNL     1       0.993   4.703  18.787  0.00  0.00    +0.000 HD
ENDBRANCH   4  24
BRANCH   5  26
ATOM     26  O   UNL     1       3.459   2.610  19.655  0.00  0.00    +0.000 OA
ATOM     27  H   UNL     1       2.561   2.310  19.429  0.00  0.00    +0.000 HD
ENDBRANCH   5  26
TORSDOF 5
ENDMDL
MODEL 2
REMARK VINA RESULT:      -7.3      1.198      1.332
REMARK  Name = 
REMARK  7 active torsions:
REMARK  status: ('A' for Active; 'I' for Inactive)
REMARK    1  A    between atoms: C_1  and  C_2
REMARK    2  A    between atoms: C_2  and  N_3
REMARK    3  A    between atoms: C_4  and  C_6
REMARK    4  A    between atoms: C_8  and  N_9
REMARK    5  A    between atoms: N_14  and  C_15
REMARK    6  A    between atoms: C_20  and  O_21
REMARK    7  A    between atoms: C_22  and  O_23
REMARK                            x       y       z     vdW  Elec       q    Type
REMARK                         _______ _______ _______ _____ _____    ______ ____
ROOT
ATOM      1  C   UNL     1       4.247   4.346  18.845  0.00  0.00    +0.000 C 
ATOM      2  O   UNL     1       4.178   5.774  18.946  0.00  0.00    +0.000 OA
ATOM      3  C   UNL     1       2.961   6.122  19.632  0.00  0.00    +0.000 C 
ATOM      4  C   UNL     1       2.002   4.949  19.465  0.00  0.00    +0.000 C 
ATOM      5  C   UNL     1       2.962   3.768  19.444  0.00  0.00    +0.000 C 
ENDROOT
BRANCH   3   6
ATOM      6  N   UNL     1       2.479   7.381  19.111  0.00  0.00    +0.000 N 
ATOM      7  C   UNL     1       2.775   7.897  17.875  0.00  0.00    +0.000 A 
ATOM      8  N   UNL     1       2.146   9.034  17.657  0.00  0.00    +0.000 NA
ATOM      9  C   UNL     1       1.416   9.264  18.805  0.00  0.00    +0.000 A 
ATOM     10  C   UNL     1       0.519  10.289  19.170  0.00  0.00    +0.000 A 
ATOM     11  N   UNL     1       0.162  11.286  18.278  0.00  0.00    +0.000 N 
ATOM     12  C   UNL     1      -0.607  12.423  18.713  0.00  0.00    +0.000 C 
ATOM     13  N   UNL     1      -0.027  10.233  20.413  0.00  0.00    +0.000 NA
ATOM     14  C   UNL     1       0.288   9.201  21.218  0.00  0.00    +0.000 A 
ATOM     15  N   UNL     1       1.096   8.149  20.962  0.00  0.00    +0.000 NA
ATOM     16  C   UNL     1       1.624   8.254  19.730  0.00  0.00    +0.000 A 
ATOM     17  H   UNL     1       0.803  11.397  17.500  0.00  0.00    +0.000 HD
ENDBRANCH   3   6
BRANCH   1  19
ATOM     18  N   UNL     1       5.747   4.051  16.908  0.00  0.00    +0.000 N 
ATOM     19  C   UNL     1       4.485   3.835  17.416  0.00  0.00    +0.000 C 
ATOM     20  O   UNL     1       3.574   3.336  16.759  0.00  0.00    +0.000 OA
ATOM     21  H   UNL     1       6.509   4.215  17.568  0.00  0.00    +0.000 HD
BRANCH  18  23
ATOM     22  C   UNL     1       6.129   4.790  14.590  0.00  0.00    +0.000 C 
ATOM     23  C   UNL     1       6.107   3.629  15.568  0.00  0.00    +0.000 C 
ENDBRANCH  18  23
ENDBRANCH   1  19
BRANCH   4  24
ATOM     24  O   UNL     1       1.068   4.856  20.542  0.00  0.00    +0.000 OA
ATOM     25  H   UNL     1       0.496   4.084  20.340  0.00  0.00    +0.000 HD
ENDBRANCH   4  24
BRANCH   5  26
ATOM     26  O   UNL     1       3.129   3.321  20.806  0.00  0.00    +0.000 OA
ATOM     27  H   UNL     1       2.551   3.839  21.396  0.00  0.00    +0.000 HD
ENDBRANCH   5  26
TORSDOF 5
ENDMDL
MODEL 3
REMARK VINA RESULT:      -7.3      1.110      1.238
REMARK  Name = 
REMARK  7 active torsions:
REMARK  status: ('A' for Active; 'I' for Inactive)
REMARK    1  A    between atoms: C_1  and  C_2
REMARK    2  A    between atoms: C_2  and  N_3
REMARK    3  A    between atoms: C_4  and  C_6
REMARK    4  A    between atoms: C_8  and  N_9
REMARK    5  A    between atoms: N_14  and  C_15
REMARK    6  A    between atoms: C_20  and  O_21
REMARK    7  A    between atoms: C_22  and  O_23
REMARK                            x       y       z     vdW  Elec       q    Type
REMARK                         _______ _______ _______ _____ _____    ______ ____
ROOT
ATOM      1  C   UNL     1       5.761   4.739  17.567  0.00  0.00    +0.000 C 
ATOM      2  O   UNL     1       5.236   5.919  18.188  0.00  0.00    +0.000 OA
ATOM      3  C   UNL     1       3.839   5.703  18.462  0.00  0.00    +0.000 C 
ATOM      4  C   UNL     1       3.360   4.612  17.512  0.00  0.00    +0.000 C 
ATOM      5  C   UNL     1       4.607   3.750  17.379  0.00  0.00    +0.000 C 
ENDROOT
BRANCH   3   6
ATOM      6  N   UNL     1       3.142   6.964  18.341  0.00  0.00    +0.000 N 
ATOM      7  C   UNL     1       3.162   7.782  17.240  0.00  0.00    +0.000 A 
ATOM      8  N   UNL     1       2.389   8.836  17.401  0.00  0.00    +0.000 NA
ATOM      9  C   UNL     1       1.849   8.694  18.663  0.00  0.00    +0.000 A 
ATOM     10  C   UNL     1       0.925   9.470  19.393  0.00  0.00    +0.000 A 
ATOM     11  N   UNL     1       0.315  10.580  18.835  0.00  0.00    +0.000 N 
ATOM     12  C   UNL     1      -0.482  11.466  19.642  0.00  0.00    +0.000 C 
ATOM     13  N   UNL     1       0.614   9.057  20.650  0.00  0.00    +0.000 NA
ATOM     14  C   UNL     1       1.172   7.927  21.123  0.00  0.00    +0.000 A 
ATOM     15  N   UNL     1       2.030   7.087  20.503  0.00  0.00    +0.000 NA
ATOM     16  C   UNL     1       2.321   7.542  19.271  0.00  0.00    +0.000 A 
ATOM     17  H   UNL     1       0.795  10.954  18.024  0.00  0.00    +0.000 HD
ENDBRANCH   3   6
BRANCH   1  19
ATOM     18  N   UNL     1       6.083   4.254  15.169  0.00  0.00    +0.000 N 
ATOM     19  C   UNL     1       6.497   5.007  16.245  0.00  0.00    +0.000 C 
ATOM     20  O   UNL     1       7.441   5.793  16.191  0.00  0.00    +0.000 OA
ATOM     21  H   UNL     1       5.153   3.834  15.205  0.00  0.00    +0.000 HD
BRANCH  18  23
ATOM     22  C   UNL     1       5.977   3.587  12.801  0.00  0.00    +0.000 C 
ATOM     23  C   UNL     1       6.698   4.398  13.863  0.00  0.00    +0.000 C 
ENDBRANCH  18  23
ENDBRANCH   1  19
BRANCH   4  24
ATOM     24  O   UNL     1       2.259   3.875  18.046  0.00  0.00    +0.000 OA
ATOM     25  H   UNL     1       1.689   3.645  17.281  0.00  0.00    +0.000 HD
ENDBRANCH   4  24
BRANCH   5  26
ATOM     26  O   UNL     1       4.553   2.747  18.415  0.00  0.00    +0.000 OA
ATOM     27  H   UNL     1       3.724   2.837  18.918  0.00  0.00    +0.000 HD
ENDBRANCH   5  26
TORSDOF 5
ENDMDL
MODEL 4
REMARK VINA RESULT:      -7.3      1.389      1.588
REMARK  Name = 
REMARK  7 active torsions:
REMARK  status: ('A' for Active; 'I' for Inactive)
REMARK    1  A    between atoms: C_1  and  C_2
REMARK    2  A    between atoms: C_2  and  N_3
REMARK    3  A    between atoms: C_4  and  C_6
REMARK    4  A    between atoms: C_8  and  N_9
REMARK    5  A    between atoms: N_14  and  C_15
REMARK    6  A    between atoms: C_20  and  O_21
REMARK    7  A    between atoms: C_22  and  O_23
REMARK                            x       y       z     vdW  Elec       q    Type
REMARK                         _______ _______ _______ _____ _____    ______ ____
ROOT
ATOM      1  C   UNL     1       4.704   4.808  19.215  0.00  0.00    +0.000 C 
ATOM      2  O   UNL     1       4.010   5.966  19.699  0.00  0.00    +0.000 OA
ATOM      3  C   UNL     1       2.683   5.965  19.142  0.00  0.00    +0.000 C 
ATOM      4  C   UNL     1       2.729   5.116  17.877  0.00  0.00    +0.000 C 
ATOM      5  C   UNL     1       3.776   4.074  18.243  0.00  0.00    +0.000 C 
ENDROOT
BRANCH   3   6
ATOM      6  N   UNL     1       2.263   7.333  18.943  0.00  0.00    +0.000 N 
ATOM      7  C   UNL     1       2.393   8.044  17.777  0.00  0.00    +0.000 A 
ATOM      8  N   UNL     1       1.869   9.248  17.877  0.00  0.00    +0.000 NA
ATOM      9  C   UNL     1       1.383   9.319  19.167  0.00  0.00    +0.000 A 
ATOM     10  C   UNL     1       0.686  10.328  19.865  0.00  0.00    +0.000 A 
ATOM     11  N   UNL     1       0.294  11.498  19.238  0.00  0.00    +0.000 N 
ATOM     12  C   UNL     1      -0.253  12.592  19.998  0.00  0.00    +0.000 C 
ATOM     13  N   UNL     1       0.365  10.086  21.163  0.00  0.00    +0.000 NA
ATOM     14  C   UNL     1       0.698   8.900  21.708  0.00  0.00    +0.000 A 
ATOM     15  N   UNL     1       1.324   7.852  21.128  0.00  0.00    +0.000 NA
ATOM     16  C   UNL     1       1.635   8.141  19.852  0.00  0.00    +0.000 A 
ATOM     17  H   UNL     1       0.796  11.699  18.380  0.00  0.00    +0.000 HD
ENDBRANCH   3   6
BRANCH   1  19
ATOM     18  N   UNL     1       6.118   6.279  17.829  0.00  0.00    +0.000 N 
ATOM     19  C   UNL     1       6.064   5.122  18.573  0.00  0.00    +0.000 C 
ATOM     20  O   UNL     1       7.007   4.339  18.666  0.00  0.00    +0.000 OA
ATOM     21  H   UNL     1       5.415   6.998  18.005  0.00  0.00    +0.000 HD
BRANCH  18  23
ATOM     22  C   UNL     1       7.854   8.021  17.683  0.00  0.00    +0.000 C 
ATOM     23  C   UNL     1       7.337   6.692  17.159  0.00  0.00    +0.000 C 
ENDBRANCH  18  23
ENDBRANCH   1  19
BRANCH   4  24
ATOM     24  O   UNL     1       1.466   4.519  17.580  0.00  0.00    +0.000 OA
ATOM     25  H   UNL     1       0.833   5.261  17.473  0.00  0.00    +0.000 HD
ENDBRANCH   4  24
BRANCH   5  26
ATOM     26  O   UNL     1       3.087   2.963  18.855  0.00  0.00    +0.000 OA
ATOM     27  H   UNL     1       2.938   3.148  19.799  0.00  0.00    +0.000 HD
ENDBRANCH   5  26
TORSDOF 5
ENDMDL
MODEL 5
REMARK VINA RESULT:      -7.0      1.613      2.513
REMARK  Name = 
REMARK  7 active torsions:
REMARK  status: ('A' for Active; 'I' for Inactive)
REMARK    1  A    between atoms: C_1  and  C_2
REMARK    2  A    between atoms: C_2  and  N_3
REMARK    3  A    between atoms: C_4  and  C_6
REMARK    4  A    between atoms: C_8  and  N_9
REMARK    5  A    between atoms: N_14  and  C_15
REMARK    6  A    between atoms: C_20  and  O_21
REMARK    7  A    between atoms: C_22  and  O_23
REMARK                            x       y       z     vdW  Elec       q    Type
REMARK                         _______ _______ _______ _____ _____    ______ ____
ROOT
ATOM      1  C   UNL     1       5.332   3.992  18.352  0.00  0.00    +0.000 C 
ATOM      2  O   UNL     1       4.633   4.687  19.393  0.00  0.00    +0.000 OA
ATOM      3  C   UNL     1       3.223   4.445  19.233  0.00  0.00    +0.000 C 
ATOM      4  C   UNL     1       2.997   4.061  17.775  0.00  0.00    +0.000 C 
ATOM      5  C   UNL     1       4.290   3.329  17.446  0.00  0.00    +0.000 C 
ENDROOT
BRANCH   3   6
ATOM      6  N   UNL     1       2.498   5.615  19.673  0.00  0.00    +0.000 N 
ATOM      7  C   UNL     1       1.753   5.704  20.822  0.00  0.00    +0.000 A 
ATOM      8  N   UNL     1       1.254   6.911  20.988  0.00  0.00    +0.000 NA
ATOM      9  C   UNL     1       1.692   7.632  19.897  0.00  0.00    +0.000 A 
ATOM     10  C   UNL     1       1.526   8.982  19.521  0.00  0.00    +0.000 A 
ATOM     11  N   UNL     1       0.872   9.883  20.343  0.00  0.00    +0.000 N 
ATOM     12  C   UNL     1       0.550  11.206  19.874  0.00  0.00    +0.000 C 
ATOM     13  N   UNL     1       2.079   9.379  18.345  0.00  0.00    +0.000 NA
ATOM     14  C   UNL     1       2.775   8.485  17.616  0.00  0.00    +0.000 A 
ATOM     15  N   UNL     1       3.033   7.189  17.895  0.00  0.00    +0.000 NA
ATOM     16  C   UNL     1       2.455   6.836  19.057  0.00  0.00    +0.000 A 
ATOM     17  H   UNL     1       0.280   9.453  21.044  0.00  0.00    +0.000 HD
ENDBRANCH   3   6
BRANCH   1  19
ATOM     18  N   UNL     1       6.179   6.234  17.767  0.00  0.00    +0.000 N 
ATOM     19  C   UNL     1       6.297   4.879  17.551  0.00  0.00    +0.000 C 
ATOM     20  O   UNL     1       7.064   4.396  16.721  0.00  0.00    +0.000 OA
ATOM     21  H   UNL     1       5.734   6.546  18.632  0.00  0.00    +0.000 HD
BRANCH  18  23
ATOM     22  C   UNL     1       7.978   7.898  18.012  0.00  0.00    +0.000 C 
ATOM     23  C   UNL     1       7.021   7.188  17.071  0.00  0.00    +0.000 C 
ENDBRANCH  18  23
ENDBRANCH   1  19
BRANCH   4  24
ATOM     24  O   UNL     1       1.854   3.222  17.607  0.00  0.00    +0.000 OA
ATOM     25  H   UNL     1       1.136   3.804  17.278  0.00  0.00    +0.000 HD
ENDBRANCH   4  24
BRANCH   5  26
ATOM     26  O   UNL     1       4.088   1.933  17.751  0.00  0.00    +0.000 OA
ATOM     27  H   UNL     1       4.648   1.676  18.505  0.00  0.00    +0.000 HD
ENDBRANCH   5  26
TORSDOF 5
ENDMDL
MODEL 6
REMARK VINA RESULT:      -6.9      1.066      1.984
REMARK  Name = 
REMARK  7 active torsions:
REMARK  status: ('A' for Active; 'I' for Inactive)
REMARK    1  A    between atoms: C_1  and  C_2
REMARK    2  A    between atoms: C_2  and  N_3
REMARK    3  A    between atoms: C_4  and  C_6
REMARK    4  A    between atoms: C_8  and  N_9
REMARK    5  A    between atoms: N_14  and  C_15
REMARK    6  A    between atoms: C_20  and  O_21
REMARK    7  A    between atoms: C_22  and  O_23
REMARK                            x       y       z     vdW  Elec       q    Type
REMARK                         _______ _______ _______ _____ _____    ______ ____
ROOT
ATOM      1  C   UNL     1       5.214   4.127  18.476  0.00  0.00    +0.000 C 
ATOM      2  O   UNL     1       4.653   5.054  19.415  0.00  0.00    +0.000 OA
ATOM      3  C   UNL     1       3.283   4.681  19.656  0.00  0.00    +0.000 C 
ATOM      4  C   UNL     1       2.823   3.863  18.455  0.00  0.00    +0.000 C 
ATOM      5  C   UNL     1       4.108   3.155  18.054  0.00  0.00    +0.000 C 
ENDROOT
BRANCH   3   6
ATOM      6  N   UNL     1       2.514   5.878  19.909  0.00  0.00    +0.000 N 
ATOM      7  C   UNL     1       1.731   6.103  21.013  0.00  0.00    +0.000 A 
ATOM      8  N   UNL     1       1.195   7.306  20.995  0.00  0.00    +0.000 NA
ATOM      9  C   UNL     1       1.648   7.881  19.826  0.00  0.00    +0.000 A 
ATOM     10  C   UNL     1       1.457   9.159  19.261  0.00  0.00    +0.000 A 
ATOM     11  N   UNL     1       0.754  10.146  19.930  0.00  0.00    +0.000 N 
ATOM     12  C   UNL     1       0.411  11.380  19.273  0.00  0.00    +0.000 C 
ATOM     13  N   UNL     1       2.036   9.406  18.056  0.00  0.00    +0.000 NA
ATOM     14  C   UNL     1       2.777   8.442  17.478  0.00  0.00    +0.000 A 
ATOM     15  N   UNL     1       3.061   7.205  17.943  0.00  0.00    +0.000 NA
ATOM     16  C   UNL     1       2.457   7.000  19.127  0.00  0.00    +0.000 A 
ATOM     17  H   UNL     1       0.152   9.799  20.668  0.00  0.00    +0.000 HD
ENDBRANCH   3   6
BRANCH   1  19
ATOM     18  N   UNL     1       6.190   3.956  16.216  0.00  0.00    +0.000 N 
ATOM     19  C   UNL     1       5.874   4.796  17.261  0.00  0.00    +0.000 C 
ATOM     20  O   UNL     1       6.162   5.991  17.271  0.00  0.00    +0.000 OA
ATOM     21  H   UNL     1       5.700   3.062  16.154  0.00  0.00    +0.000 HD
BRANCH  18  23
ATOM     22  C   UNL     1       6.173   3.901  13.754  0.00  0.00    +0.000 C 
ATOM     23  C   UNL     1       6.825   4.452  15.010  0.00  0.00    +0.000 C 
ENDBRANCH  18  23
ENDBRANCH   1  19
BRANCH   4  24
ATOM     24  O   UNL     1       1.790   2.938  18.795  0.00  0.00    +0.000 OA
ATOM     25  H   UNL     1       1.463   3.209  19.680  0.00  0.00    +0.000 HD
ENDBRANCH   4  24
BRANCH   5  26
ATOM     26  O   UNL     1       4.157   1.904  18.773  0.00  0.00    +0.000 OA
ATOM     27  H   UNL     1       5.071   1.570  18.790  0.00  0.00    +0.000 HD
ENDBRANCH   5  26
TORSDOF 5
ENDMDL
MODEL 7
REMARK VINA RESULT:      -6.8      2.267      3.365
REMARK  Name = 
REMARK  7 active torsions:
REMARK  status: ('A' for Active; 'I' for Inactive)
REMARK    1  A    between atoms: C_1  and  C_2
REMARK    2  A    between atoms: C_2  and  N_3
REMARK    3  A    between atoms: C_4  and  C_6
REMARK    4  A    between atoms: C_8  and  N_9
REMARK    5  A    between atoms: N_14  and  C_15
REMARK    6  A    between atoms: C_20  and  O_21
REMARK    7  A    between atoms: C_22  and  O_23
REMARK                            x       y       z     vdW  Elec       q    Type
REMARK                         _______ _______ _______ _____ _____    ______ ____
ROOT
ATOM      1  C   UNL     1       6.458   4.640  17.323  0.00  0.00    +0.000 C 
ATOM      2  O   UNL     1       5.725   4.756  18.550  0.00  0.00    +0.000 OA
ATOM      3  C   UNL     1       4.400   4.233  18.337  0.00  0.00    +0.000 C 
ATOM      4  C   UNL     1       4.125   4.304  16.840  0.00  0.00    +0.000 C 
ATOM      5  C   UNL     1       5.512   4.071  16.261  0.00  0.00    +0.000 C 
ENDROOT
BRANCH   3   6
ATOM      6  N   UNL     1       3.472   4.972  19.163  0.00  0.00    +0.000 N 
ATOM      7  C   UNL     1       2.917   4.522  20.335  0.00  0.00    +0.000 A 
ATOM      8  N   UNL     1       2.151   5.436  20.895  0.00  0.00    +0.000 NA
ATOM      9  C   UNL     1       2.211   6.521  20.045  0.00  0.00    +0.000 A 
ATOM     10  C   UNL     1       1.642   7.810  20.109  0.00  0.00    +0.000 A 
ATOM     11  N   UNL     1       0.911   8.221  21.210  0.00  0.00    +0.000 N 
ATOM     12  C   UNL     1       0.184   9.464  21.189  0.00  0.00    +0.000 C 
ATOM     13  N   UNL     1       1.882   8.656  19.072  0.00  0.00    +0.000 NA
ATOM     14  C   UNL     1       2.665   8.240  18.059  0.00  0.00    +0.000 A 
ATOM     15  N   UNL     1       3.293   7.052  17.912  0.00  0.00    +0.000 NA
ATOM     16  C   UNL     1       3.015   6.245  18.951  0.00  0.00    +0.000 A 
ATOM     17  H   UNL     1       0.567   7.462  21.788  0.00  0.00    +0.000 HD
ENDBRANCH   3   6
BRANCH   1  19
ATOM     18  N   UNL     1       7.098   6.978  17.779  0.00  0.00    +0.000 N 
ATOM     19  C   UNL     1       7.106   5.952  16.860  0.00  0.00    +0.000 C 
ATOM     20  O   UNL     1       7.531   6.082  15.714  0.00  0.00    +0.000 OA
ATOM     21  H   UNL     1       6.985   6.739  18.765  0.00  0.00    +0.000 HD
BRANCH  18  23
ATOM     22  C   UNL     1       8.578   8.777  18.580  0.00  0.00    +0.000 C 
ATOM     23  C   UNL     1       7.669   8.275  17.471  0.00  0.00    +0.000 C 
ENDBRANCH  18  23
ENDBRANCH   1  19
BRANCH   4  24
ATOM     24  O   UNL     1       3.196   3.308  16.412  0.00  0.00    +0.000 OA
ATOM     25  H   UNL     1       2.822   3.631  15.565  0.00  0.00    +0.000 HD
ENDBRANCH   4  24
BRANCH   5  26
ATOM     26  O   UNL     1       5.670   2.649  16.072  0.00  0.00    +0.000 OA
ATOM     27  H   UNL     1       6.516   2.358  16.457  0.00  0.00    +0.000 HD
ENDBRANCH   5  26
TORSDOF 5
ENDMDL
MODEL 8
REMARK VINA RESULT:      -6.8      1.919      3.557
REMARK  Name = 
REMARK  7 active torsions:
REMARK  status: ('A' for Active; 'I' for Inactive)
REMARK    1  A    between atoms: C_1  and  C_2
REMARK    2  A    between atoms: C_2  and  N_3
REMARK    3  A    between atoms: C_4  and  C_6
REMARK    4  A    between atoms: C_8  and  N_9
REMARK    5  A    between atoms: N_14  and  C_15
REMARK    6  A    between atoms: C_20  and  O_21
REMARK    7  A    between atoms: C_22  and  O_23
REMARK                            x       y       z     vdW  Elec       q    Type
REMARK                         _______ _______ _______ _____ _____    ______ ____
ROOT
ATOM      1  C   UNL     1       3.883   3.574  17.536  0.00  0.00    +0.000 C 
ATOM      2  O   UNL     1       3.168   4.788  17.272  0.00  0.00    +0.000 OA
ATOM      3  C   UNL     1       4.068   5.895  17.465  0.00  0.00    +0.000 C 
ATOM      4  C   UNL     1       5.183   5.412  18.386  0.00  0.00    +0.000 C 
ATOM      5  C   UNL     1       5.299   3.948  17.986  0.00  0.00    +0.000 C 
ENDROOT
BRANCH   3   6
ATOM      6  N   UNL     1       3.315   7.024  17.962  0.00  0.00    +0.000 N 
ATOM      7  C   UNL     1       3.189   8.236  17.332  0.00  0.00    +0.000 A 
ATOM      8  N   UNL     1       2.396   9.052  17.996  0.00  0.00    +0.000 NA
ATOM      9  C   UNL     1       1.996   8.336  19.105  0.00  0.00    +0.000 A 
ATOM     10  C   UNL     1       1.123   8.644  20.170  0.00  0.00    +0.000 A 
ATOM     11  N   UNL     1       0.416   9.834  20.202  0.00  0.00    +0.000 N 
ATOM     12  C   UNL     1      -0.328  10.217  21.373  0.00  0.00    +0.000 C 
ATOM     13  N   UNL     1       0.959   7.705  21.139  0.00  0.00    +0.000 NA
ATOM     14  C   UNL     1       1.606   6.530  21.026  0.00  0.00    +0.000 A 
ATOM     15  N   UNL     1       2.428   6.112  20.038  0.00  0.00    +0.000 NA
ATOM     16  C   UNL     1       2.572   7.076  19.111  0.00  0.00    +0.000 A 
ATOM     17  H   UNL     1       0.794  10.558  19.602  0.00  0.00    +0.000 HD
ENDBRANCH   3   6
BRANCH   1  19
ATOM     18  N   UNL     1       2.192   3.234  19.299  0.00  0.00    +0.000 N 
ATOM     19  C   UNL     1       3.191   2.652  18.551  0.00  0.00    +0.000 C 
ATOM     20  O   UNL     1       3.571   1.496  18.723  0.00  0.00    +0.000 OA
ATOM     21  H   UNL     1       1.753   4.082  18.938  0.00  0.00    +0.000 HD
BRANCH  18  23
ATOM     22  C   UNL     1       1.887   2.848  21.712  0.00  0.00    +0.000 C 
ATOM     23  C   UNL     1       1.461   2.482  20.301  0.00  0.00    +0.000 C 
ENDBRANCH  18  23
ENDBRANCH   1  19
BRANCH   4  24
ATOM     24  O   UNL     1       6.404   6.120  18.174  0.00  0.00    +0.000 OA
ATOM     25  H   UNL     1       6.250   6.701  17.399  0.00  0.00    +0.000 HD
ENDBRANCH   4  24
BRANCH   5  26
ATOM     26  O   UNL     1       6.268   3.866  16.919  0.00  0.00    +0.000 OA
ATOM     27  H   UNL     1       5.848   3.496  16.122  0.00  0.00    +0.000 HD
ENDBRANCH   5  26
TORSDOF 5
ENDMDL
MODEL 9
REMARK VINA RESULT:      -6.8      3.148      5.274
REMARK  Name = 
REMARK  7 active torsions:
REMARK  status: ('A' for Active; 'I' for Inactive)
REMARK    1  A    between atoms: C_1  and  C_2
REMARK    2  A    between atoms: C_2  and  N_3
REMARK    3  A    between atoms: C_4  and  C_6
REMARK    4  A    between atoms: C_8  and  N_9
REMARK    5  A    between atoms: N_14  and  C_15
REMARK    6  A    between atoms: C_20  and  O_21
REMARK    7  A    between atoms: C_22  and  O_23
REMARK                            x       y       z     vdW  Elec       q    Type
REMARK                         _______ _______ _______ _____ _____    ______ ____
ROOT
ATOM      1  C   UNL     1       6.004   5.699  15.606  0.00  0.00    +0.000 C 
ATOM      2  O   UNL     1       4.835   5.982  16.388  0.00  0.00    +0.000 OA
ATOM      3  C   UNL     1       5.252   6.289  17.731  0.00  0.00    +0.000 C 
ATOM      4  C   UNL     1       6.625   5.656  17.930  0.00  0.00    +0.000 C 
ATOM      5  C   UNL     1       7.220   5.767  16.534  0.00  0.00    +0.000 C 
ENDROOT
BRANCH   3   6
ATOM      6  N   UNL     1       4.233   5.833  18.649  0.00  0.00    +0.000 N 
ATOM      7  C   UNL     1       3.138   6.558  19.046  0.00  0.00    +0.000 A 
ATOM      8  N   UNL     1       2.355   5.862  19.845  0.00  0.00    +0.000 NA
ATOM      9  C   UNL     1       2.975   4.636  19.972  0.00  0.00    +0.000 A 
ATOM     10  C   UNL     1       2.616   3.457  20.660  0.00  0.00    +0.000 A 
ATOM     11  N   UNL     1       1.406   3.351  21.324  0.00  0.00    +0.000 N 
ATOM     12  C   UNL     1       1.128   2.219  22.170  0.00  0.00    +0.000 C 
ATOM     13  N   UNL     1       3.478   2.409  20.601  0.00  0.00    +0.000 NA
ATOM     14  C   UNL     1       4.606   2.531  19.877  0.00  0.00    +0.000 A 
ATOM     15  N   UNL     1       5.030   3.588  19.149  0.00  0.00    +0.000 NA
ATOM     16  C   UNL     1       4.156   4.605  19.248  0.00  0.00    +0.000 A 
ATOM     17  H   UNL     1       0.968   4.240  21.535  0.00  0.00    +0.000 HD
ENDBRANCH   3   6
BRANCH   1  19
ATOM     18  N   UNL     1       6.163   4.428  13.497  0.00  0.00    +0.000 N 
ATOM     19  C   UNL     1       5.939   4.361  14.855  0.00  0.00    +0.000 C 
ATOM     20  O   UNL     1       5.632   3.320  15.433  0.00  0.00    +0.000 OA
ATOM     21  H   UNL     1       6.662   5.240  13.132  0.00  0.00    +0.000 HD
BRANCH  18  23
ATOM     22  C   UNL     1       4.885   3.202  11.785  0.00  0.00    +0.000 C 
ATOM     23  C   UNL     1       6.123   3.241  12.664  0.00  0.00    +0.000 C 
ENDBRANCH  18  23
ENDBRANCH   1  19
BRANCH   4  24
ATOM     24  O   UNL     1       7.407   6.355  18.899  0.00  0.00    +0.000 OA
ATOM     25  H   UNL     1       7.408   7.296  18.620  0.00  0.00    +0.000 HD
ENDBRANCH   4  24
BRANCH   5  26
ATOM     26  O   UNL     1       7.914   7.031  16.458  0.00  0.00    +0.000 OA
ATOM     27  H   UNL     1       7.484   7.678  17.045  0.00  0.00    +0.000 HD
ENDBRANCH   5  26
TORSDOF 5
ENDMDL
