MODEL 1
REMARK VINA RESULT:      -7.3      0.000      0.000
REMARK  Name = 
REMARK  3 active torsions:
REMARK  status: ('A' for Active; 'I' for Inactive)
REMARK    1  A    between atoms: O_1  and  C_2
REMARK    2  A    between atoms: C_7  and  C_8
REMARK    3  A    between atoms: C_8  and  N_9
REMARK                            x       y       z     vdW  Elec       q    Type
REMARK                         _______ _______ _______ _____ _____    ______ ____
ROOT
ATOM      1  C   UNL     1       1.650   3.772  19.918  0.00  0.00    +0.000 A 
ATOM      2  C   UNL     1       1.895   5.139  19.963  0.00  0.00    +0.000 A 
ATOM      3  F   UNL     1       1.277   5.884  20.891  0.00  0.00    +0.000 F 
ATOM      4  C   UNL     1       2.763   5.731  19.048  0.00  0.00    +0.000 A 
ATOM      5  F   UNL     1       2.968   7.053  19.105  0.00  0.00    +0.000 F 
ATOM      6  C   UNL     1       3.402   4.968  18.065  0.00  0.00    +0.000 A 
ATOM      7  C   UNL     1       3.158   3.592  18.045  0.00  0.00    +0.000 A 
ATOM      8  F   UNL     1       3.766   2.826  17.126  0.00  0.00    +0.000 F 
ATOM      9  C   UNL     1       2.289   2.995  18.959  0.00  0.00    +0.000 A 
ATOM     10  F   UNL     1       2.071   1.674  18.902  0.00  0.00    +0.000 F 
ENDROOT
BRANCH   1  11
ATOM     11  O   UNL     1       0.785   3.191  20.804  0.00  0.00    +0.000 OA
ATOM     12  H   UNL     1      -0.064   3.672  20.758  0.00  0.00    +0.000 HD
ENDBRANCH   1  11
BRANCH   6  13
ATOM     13  C   UNL     1       4.328   5.604  17.069  0.00  0.00    +0.000 C 
BRANCH  13  14
ATOM     14  N   UNL     1       5.714   5.202  17.243  0.00  0.00    +0.000 N 
ATOM     15  C   UNL     1       6.433   5.368  18.416  0.00  0.00    +0.000 A 
ATOM     16  C   UNL     1       7.663   4.868  18.250  0.00  0.00    +0.000 A 
ATOM     17  N   UNL     1       7.763   4.359  16.984  0.00  0.00    +0.000 N 
ATOM     18  C   UNL     1       6.542   4.535  16.311  0.00  0.00    +0.000 A 
ATOM     19  S   UNL     1       6.242   4.015  14.773  0.00  0.00    +0.000 S 
ATOM     20  H   UNL     1       8.571   3.903  16.581  0.00  0.00    +0.000 HD
ENDBRANCH  13  14
ENDBRANCH   6  13
TORSDOF 3
ENDMDL
MODEL 2
REMARK VINA RESULT:      -7.3      0.034      2.499
REMARK  Name = 
REMARK  3 active torsions:
REMARK  status: ('A' for Active; 'I' for Inactive)
REMARK    1  A    between atoms: O_1  and  C_2
REMARK    2  A    between atoms: C_7  and  C_8
REMARK    3  A    between atoms: C_8  and  N_9
REMARK                            x       y       z     vdW  Elec       q    Type
REMARK                         _______ _______ _______ _____ _____    ______ ____
ROOT
ATOM      1  C   UNL     1       1.665   3.802  19.931  0.00  0.00    +0.000 A 
ATOM      2  C   UNL     1       2.285   3.028  18.958  0.00  0.00    +0.000 A 
ATOM      3  F   UNL     1       2.056   1.706  18.930  0.00  0.00    +0.000 F 
ATOM      4  C   UNL     1       3.143   3.613  18.030  0.00  0.00    +0.000 A 
ATOM      5  F   UNL     1       3.738   2.839  17.114  0.00  0.00    +0.000 F 
ATOM      6  C   UNL     1       3.403   4.986  18.057  0.00  0.00    +0.000 A 
ATOM      7  C   UNL     1       2.758   5.755  19.032  0.00  0.00    +0.000 A 
ATOM      8  F   UNL     1       2.971   7.078  19.078  0.00  0.00    +0.000 F 
ATOM      9  C   UNL     1       1.898   5.171  19.963  0.00  0.00    +0.000 A 
ATOM     10  F   UNL     1       1.307   5.938  20.890  0.00  0.00    +0.000 F 
ENDROOT
BRANCH   1  11
ATOM     11  O   UNL     1       0.836   3.227  20.854  0.00  0.00    +0.000 OA
ATOM     12  H   UNL     1       0.196   3.904  21.150  0.00  0.00    +0.000 HD
ENDBRANCH   1  11
BRANCH   6  13
ATOM     13  C   UNL     1       4.338   5.620  17.067  0.00  0.00    +0.000 C 
BRANCH  13  14
ATOM     14  N   UNL     1       5.720   5.205  17.243  0.00  0.00    +0.000 N 
ATOM     15  C   UNL     1       6.438   5.366  18.417  0.00  0.00    +0.000 A 
ATOM     16  C   UNL     1       7.665   4.856  18.254  0.00  0.00    +0.000 A 
ATOM     17  N   UNL     1       7.762   4.345  16.988  0.00  0.00    +0.000 N 
ATOM     18  C   UNL     1       6.544   4.531  16.313  0.00  0.00    +0.000 A 
ATOM     19  S   UNL     1       6.242   4.013  14.775  0.00  0.00    +0.000 S 
ATOM     20  H   UNL     1       8.567   3.881  16.587  0.00  0.00    +0.000 HD
ENDBRANCH  13  14
ENDBRANCH   6  13
TORSDOF 3
ENDMDL
MODEL 3
REMARK VINA RESULT:      -7.0      1.547      2.754
REMARK  Name = 
REMARK  3 active torsions:
REMARK  status: ('A' for Active; 'I' for Inactive)
REMARK    1  A    between atoms: O_1  and  C_2
REMARK    2  A    between atoms: C_7  and  C_8
REMARK    3  A    between atoms: C_8  and  N_9
REMARK                            x       y       z     vdW  Elec       q    Type
REMARK                         _______ _______ _______ _____ _____    ______ ____
ROOT
ATOM      1  C   UNL     1       2.185   6.431  20.079  0.00  0.00    +0.000 A 
ATOM      2  C   UNL     1       2.342   5.057  20.215  0.00  0.00    +0.000 A 
ATOM      3  F   UNL     1       1.883   4.452  21.321  0.00  0.00    +0.000 F 
ATOM      4  C   UNL     1       2.981   4.318  19.222  0.00  0.00    +0.000 A 
ATOM      5  F   UNL     1       3.133   2.998  19.389  0.00  0.00    +0.000 F 
ATOM      6  C   UNL     1       3.480   4.937  18.073  0.00  0.00    +0.000 A 
ATOM      7  C   UNL     1       3.298   6.317  17.943  0.00  0.00    +0.000 A 
ATOM      8  F   UNL     1       3.749   6.943  16.845  0.00  0.00    +0.000 F 
ATOM      9  C   UNL     1       2.659   7.061  18.935  0.00  0.00    +0.000 A 
ATOM     10  F   UNL     1       2.512   8.385  18.781  0.00  0.00    +0.000 F 
ENDROOT
BRANCH   1  11
ATOM     11  O   UNL     1       1.573   7.162  21.061  0.00  0.00    +0.000 OA
ATOM     12  H   UNL     1       0.991   6.562  21.567  0.00  0.00    +0.000 HD
ENDBRANCH   1  11
BRANCH   6  13
ATOM     13  C   UNL     1       4.181   4.146  17.006  0.00  0.00    +0.000 C 
BRANCH  13  14
ATOM     14  N   UNL     1       5.620   4.350  16.999  0.00  0.00    +0.000 N 
ATOM     15  C   UNL     1       6.384   4.556  18.137  0.00  0.00    +0.000 A 
ATOM     16  C   UNL     1       7.669   4.680  17.785  0.00  0.00    +0.000 A 
ATOM     17  N   UNL     1       7.767   4.546  16.427  0.00  0.00    +0.000 N 
ATOM     18  C   UNL     1       6.491   4.319  15.885  0.00  0.00    +0.000 A 
ATOM     19  S   UNL     1       6.190   4.061  14.283  0.00  0.00    +0.000 S 
ATOM     20  H   UNL     1       8.617   4.577  15.879  0.00  0.00    +0.000 HD
ENDBRANCH  13  14
ENDBRANCH   6  13
TORSDOF 3
ENDMDL
MODEL 4
REMARK VINA RESULT:      -7.0      2.089      2.320
REMARK  Name = 
REMARK  3 active torsions:
REMARK  status: ('A' for Active; 'I' for Inactive)
REMARK    1  A    between atoms: O_1  and  C_2
REMARK    2  A    between atoms: C_7  and  C_8
REMARK    3  A    between atoms: C_8  and  N_9
REMARK                            x       y       z     vdW  Elec       q    Type
REMARK                         _______ _______ _______ _____ _____    ______ ____
ROOT
ATOM      1  C   UNL     1       1.682   3.165  18.391  0.00  0.00    +0.000 A 
ATOM      2  C   UNL     1       1.928   4.421  17.850  0.00  0.00    +0.000 A 
ATOM      3  F   UNL     1       0.933   5.072  17.230  0.00  0.00    +0.000 F 
ATOM      4  C   UNL     1       3.196   4.992  17.939  0.00  0.00    +0.000 A 
ATOM      5  F   UNL     1       3.408   6.196  17.394  0.00  0.00    +0.000 F 
ATOM      6  C   UNL     1       4.246   4.317  18.568  0.00  0.00    +0.000 A 
ATOM      7  C   UNL     1       3.978   3.062  19.123  0.00  0.00    +0.000 A 
ATOM      8  F   UNL     1       4.957   2.393  19.748  0.00  0.00    +0.000 F 
ATOM      9  C   UNL     1       2.710   2.487  19.035  0.00  0.00    +0.000 A 
ATOM     10  F   UNL     1       2.493   1.277  19.569  0.00  0.00    +0.000 F 
ENDROOT
BRANCH   1  11
ATOM     11  O   UNL     1       0.443   2.595  18.290  0.00  0.00    +0.000 OA
ATOM     12  H   UNL     1       0.224   2.515  17.341  0.00  0.00    +0.000 HD
ENDBRANCH   1  11
BRANCH   6  13
ATOM     13  C   UNL     1       5.617   4.924  18.654  0.00  0.00    +0.000 C 
BRANCH  13  14
ATOM     14  N   UNL     1       6.277   5.027  17.363  0.00  0.00    +0.000 N 
ATOM     15  C   UNL     1       6.172   4.080  16.356  0.00  0.00    +0.000 A 
ATOM     16  C   UNL     1       6.875   4.490  15.294  0.00  0.00    +0.000 A 
ATOM     17  N   UNL     1       7.433   5.706  15.581  0.00  0.00    +0.000 N 
ATOM     18  C   UNL     1       7.068   6.095  16.880  0.00  0.00    +0.000 A 
ATOM     19  S   UNL     1       7.504   7.523  17.584  0.00  0.00    +0.000 S 
ATOM     20  H   UNL     1       8.004   6.267  14.961  0.00  0.00    +0.000 HD
ENDBRANCH  13  14
ENDBRANCH   6  13
TORSDOF 3
ENDMDL
MODEL 5
REMARK VINA RESULT:      -7.0      2.110      2.977
REMARK  Name = 
REMARK  3 active torsions:
REMARK  status: ('A' for Active; 'I' for Inactive)
REMARK    1  A    between atoms: O_1  and  C_2
REMARK    2  A    between atoms: C_7  and  C_8
REMARK    3  A    between atoms: C_8  and  N_9
REMARK                            x       y       z     vdW  Elec       q    Type
REMARK                         _______ _______ _______ _____ _____    ______ ____
ROOT
ATOM      1  C   UNL     1       1.568   3.046  18.385  0.00  0.00    +0.000 A 
ATOM      2  C   UNL     1       2.605   2.381  19.028  0.00  0.00    +0.000 A 
ATOM      3  F   UNL     1       2.367   1.188  19.592  0.00  0.00    +0.000 F 
ATOM      4  C   UNL     1       3.875   2.951  19.096  0.00  0.00    +0.000 A 
ATOM      5  F   UNL     1       4.850   2.295  19.736  0.00  0.00    +0.000 F 
ATOM      6  C   UNL     1       4.133   4.201  18.527  0.00  0.00    +0.000 A 
ATOM      7  C   UNL     1       3.083   4.849  17.868  0.00  0.00    +0.000 A 
ATOM      8  F   UNL     1       3.299   6.043  17.296  0.00  0.00    +0.000 F 
ATOM      9  C   UNL     1       1.810   4.282  17.798  0.00  0.00    +0.000 A 
ATOM     10  F   UNL     1       0.826   4.938  17.169  0.00  0.00    +0.000 F 
ENDROOT
BRANCH   1  11
ATOM     11  O   UNL     1       0.317   2.496  18.332  0.00  0.00    +0.000 OA
ATOM     12  H   UNL     1      -0.329   3.223  18.238  0.00  0.00    +0.000 HD
ENDBRANCH   1  11
BRANCH   6  13
ATOM     13  C   UNL     1       5.496   4.825  18.609  0.00  0.00    +0.000 C 
BRANCH  13  14
ATOM     14  N   UNL     1       6.155   4.927  17.317  0.00  0.00    +0.000 N 
ATOM     15  C   UNL     1       6.002   4.009  16.290  0.00  0.00    +0.000 A 
ATOM     16  C   UNL     1       6.719   4.411  15.233  0.00  0.00    +0.000 A 
ATOM     17  N   UNL     1       7.335   5.593  15.545  0.00  0.00    +0.000 N 
ATOM     18  C   UNL     1       6.993   5.968  16.855  0.00  0.00    +0.000 A 
ATOM     19  S   UNL     1       7.498   7.357  17.588  0.00  0.00    +0.000 S 
ATOM     20  H   UNL     1       7.928   6.140  14.935  0.00  0.00    +0.000 HD
ENDBRANCH  13  14
ENDBRANCH   6  13
TORSDOF 3
ENDMDL
MODEL 6
REMARK VINA RESULT:      -6.9      3.864      5.811
REMARK  Name = 
REMARK  3 active torsions:
REMARK  status: ('A' for Active; 'I' for Inactive)
REMARK    1  A    between atoms: O_1  and  C_2
REMARK    2  A    between atoms: C_7  and  C_8
REMARK    3  A    between atoms: C_8  and  N_9
REMARK                            x       y       z     vdW  Elec       q    Type
REMARK                         _______ _______ _______ _____ _____    ______ ____
ROOT
ATOM      1  C   UNL     1       6.785   5.276  16.165  0.00  0.00    +0.000 A 
ATOM      2  C   UNL     1       5.680   4.487  15.871  0.00  0.00    +0.000 A 
ATOM      3  F   UNL     1       5.388   4.222  14.589  0.00  0.00    +0.000 F 
ATOM      4  C   UNL     1       4.877   3.986  16.894  0.00  0.00    +0.000 A 
ATOM      5  F   UNL     1       3.810   3.242  16.580  0.00  0.00    +0.000 F 
ATOM      6  C   UNL     1       5.160   4.268  18.234  0.00  0.00    +0.000 A 
ATOM      7  C   UNL     1       6.286   5.050  18.514  0.00  0.00    +0.000 A 
ATOM      8  F   UNL     1       6.598   5.327  19.788  0.00  0.00    +0.000 F 
ATOM      9  C   UNL     1       7.092   5.553  17.492  0.00  0.00    +0.000 A 
ATOM     10  F   UNL     1       8.156   6.308  17.798  0.00  0.00    +0.000 F 
ENDROOT
BRANCH   1  11
ATOM     11  O   UNL     1       7.564   5.784  15.162  0.00  0.00    +0.000 OA
ATOM     12  H   UNL     1       8.263   5.131  14.963  0.00  0.00    +0.000 HD
ENDBRANCH   1  11
BRANCH   6  13
ATOM     13  C   UNL     1       4.291   3.741  19.339  0.00  0.00    +0.000 C 
BRANCH  13  14
ATOM     14  N   UNL     1       3.332   4.720  19.824  0.00  0.00    +0.000 N 
ATOM     15  C   UNL     1       3.240   6.021  19.354  0.00  0.00    +0.000 A 
ATOM     16  C   UNL     1       2.240   6.645  19.988  0.00  0.00    +0.000 A 
ATOM     17  N   UNL     1       1.660   5.769  20.864  0.00  0.00    +0.000 N 
ATOM     18  C   UNL     1       2.311   4.526  20.783  0.00  0.00    +0.000 A 
ATOM     19  S   UNL     1       1.880   3.190  21.651  0.00  0.00    +0.000 S 
ATOM     20  H   UNL     1       0.870   5.956  21.467  0.00  0.00    +0.000 HD
ENDBRANCH  13  14
ENDBRANCH   6  13
TORSDOF 3
ENDMDL
MODEL 7
REMARK VINA RESULT:      -6.9      3.854      5.472
REMARK  Name = 
REMARK  3 active torsions:
REMARK  status: ('A' for Active; 'I' for Inactive)
REMARK    1  A    between atoms: O_1  and  C_2
REMARK    2  A    between atoms: C_7  and  C_8
REMARK    3  A    between atoms: C_8  and  N_9
REMARK                            x       y       z     vdW  Elec       q    Type
REMARK                         _______ _______ _______ _____ _____    ______ ____
ROOT
ATOM      1  C   UNL     1       6.704   5.234  16.121  0.00  0.00    +0.000 A 
ATOM      2  C   UNL     1       7.015   5.551  17.437  0.00  0.00    +0.000 A 
ATOM      3  F   UNL     1       8.084   6.321  17.689  0.00  0.00    +0.000 F 
ATOM      4  C   UNL     1       6.234   5.066  18.484  0.00  0.00    +0.000 A 
ATOM      5  F   UNL     1       6.567   5.375  19.743  0.00  0.00    +0.000 F 
ATOM      6  C   UNL     1       5.127   4.249  18.237  0.00  0.00    +0.000 A 
ATOM      7  C   UNL     1       4.817   3.953  16.905  0.00  0.00    +0.000 A 
ATOM      8  F   UNL     1       3.752   3.186  16.630  0.00  0.00    +0.000 F 
ATOM      9  C   UNL     1       5.597   4.437  15.855  0.00  0.00    +0.000 A 
ATOM     10  F   UNL     1       5.276   4.123  14.592  0.00  0.00    +0.000 F 
ENDROOT
BRANCH   1  11
ATOM     11  O   UNL     1       7.480   5.694  15.092  0.00  0.00    +0.000 OA
ATOM     12  H   UNL     1       7.325   5.120  14.317  0.00  0.00    +0.000 HD
ENDBRANCH   1  11
BRANCH   6  13
ATOM     13  C   UNL     1       4.290   3.714  19.363  0.00  0.00    +0.000 C 
BRANCH  13  14
ATOM     14  N   UNL     1       3.321   4.677  19.860  0.00  0.00    +0.000 N 
ATOM     15  C   UNL     1       3.237   5.991  19.428  0.00  0.00    +0.000 A 
ATOM     16  C   UNL     1       2.226   6.597  20.062  0.00  0.00    +0.000 A 
ATOM     17  N   UNL     1       1.630   5.694  20.900  0.00  0.00    +0.000 N 
ATOM     18  C   UNL     1       2.284   4.454  20.794  0.00  0.00    +0.000 A 
ATOM     19  S   UNL     1       1.837   3.092  21.612  0.00  0.00    +0.000 S 
ATOM     20  H   UNL     1       0.829   5.863  21.495  0.00  0.00    +0.000 HD
ENDBRANCH  13  14
ENDBRANCH   6  13
TORSDOF 3
ENDMDL
MODEL 8
REMARK VINA RESULT:      -6.8      1.386      2.901
REMARK  Name = 
REMARK  3 active torsions:
REMARK  status: ('A' for Active; 'I' for Inactive)
REMARK    1  A    between atoms: O_1  and  C_2
REMARK    2  A    between atoms: C_7  and  C_8
REMARK    3  A    between atoms: C_8  and  N_9
REMARK                            x       y       z     vdW  Elec       q    Type
REMARK                         _______ _______ _______ _____ _____    ______ ____
ROOT
ATOM      1  C   UNL     1       1.402   3.616  19.981  0.00  0.00    +0.000 A 
ATOM      2  C   UNL     1       1.585   3.125  18.694  0.00  0.00    +0.000 A 
ATOM      3  F   UNL     1       1.011   1.963  18.349  0.00  0.00    +0.000 F 
ATOM      4  C   UNL     1       2.366   3.825  17.776  0.00  0.00    +0.000 A 
ATOM      5  F   UNL     1       2.539   3.319  16.548  0.00  0.00    +0.000 F 
ATOM      6  C   UNL     1       2.984   5.029  18.127  0.00  0.00    +0.000 A 
ATOM      7  C   UNL     1       2.775   5.518  19.420  0.00  0.00    +0.000 A 
ATOM      8  F   UNL     1       3.338   6.678  19.787  0.00  0.00    +0.000 F 
ATOM      9  C   UNL     1       1.994   4.820  20.342  0.00  0.00    +0.000 A 
ATOM     10  F   UNL     1       1.826   5.314  21.577  0.00  0.00    +0.000 F 
ENDROOT
BRANCH   1  11
ATOM     11  O   UNL     1       0.650   2.922  20.889  0.00  0.00    +0.000 OA
ATOM     12  H   UNL     1      -0.258   2.850  20.537  0.00  0.00    +0.000 HD
ENDBRANCH   1  11
BRANCH   6  13
ATOM     13  C   UNL     1       3.836   5.779  17.145  0.00  0.00    +0.000 C 
BRANCH  13  14
ATOM     14  N   UNL     1       5.075   5.089  16.823  0.00  0.00    +0.000 N 
ATOM     15  C   UNL     1       5.352   4.521  15.590  0.00  0.00    +0.000 A 
ATOM     16  C   UNL     1       6.582   3.992  15.618  0.00  0.00    +0.000 A 
ATOM     17  N   UNL     1       7.128   4.217  16.853  0.00  0.00    +0.000 N 
ATOM     18  C   UNL     1       6.211   4.925  17.648  0.00  0.00    +0.000 A 
ATOM     19  S   UNL     1       6.510   5.427  19.192  0.00  0.00    +0.000 S 
ATOM     20  H   UNL     1       8.053   3.946  17.159  0.00  0.00    +0.000 HD
ENDBRANCH  13  14
ENDBRANCH   6  13
TORSDOF 3
ENDMDL
MODEL 9
REMARK VINA RESULT:      -6.8      1.845      2.680
REMARK  Name = 
REMARK  3 active torsions:
REMARK  status: ('A' for Active; 'I' for Inactive)
REMARK    1  A    between atoms: O_1  and  C_2
REMARK    2  A    between atoms: C_7  and  C_8
REMARK    3  A    between atoms: C_8  and  N_9
REMARK                            x       y       z     vdW  Elec       q    Type
REMARK                         _______ _______ _______ _____ _____    ______ ____
ROOT
ATOM      1  C   UNL     1       2.221   7.333  19.418  0.00  0.00    +0.000 A 
ATOM      2  C   UNL     1       2.906   7.682  18.261  0.00  0.00    +0.000 A 
ATOM      3  F   UNL     1       2.931   8.967  17.878  0.00  0.00    +0.000 F 
ATOM      4  C   UNL     1       3.549   6.707  17.500  0.00  0.00    +0.000 A 
ATOM      5  F   UNL     1       4.188   7.071  16.381  0.00  0.00    +0.000 F 
ATOM      6  C   UNL     1       3.517   5.362  17.878  0.00  0.00    +0.000 A 
ATOM      7  C   UNL     1       2.838   5.030  19.055  0.00  0.00    +0.000 A 
ATOM      8  F   UNL     1       2.801   3.751  19.457  0.00  0.00    +0.000 F 
ATOM      9  C   UNL     1       2.193   6.003  19.819  0.00  0.00    +0.000 A 
ATOM     10  F   UNL     1       1.542   5.644  20.935  0.00  0.00    +0.000 F 
ENDROOT
BRANCH   1  11
ATOM     11  O   UNL     1       1.574   8.284  20.157  0.00  0.00    +0.000 OA
ATOM     12  H   UNL     1       1.648   8.038  21.100  0.00  0.00    +0.000 HD
ENDBRANCH   1  11
BRANCH   6  13
ATOM     13  C   UNL     1       4.198   4.308  17.054  0.00  0.00    +0.000 C 
BRANCH  13  14
ATOM     14  N   UNL     1       5.646   4.437  17.048  0.00  0.00    +0.000 N 
ATOM     15  C   UNL     1       6.421   4.588  18.187  0.00  0.00    +0.000 A 
ATOM     16  C   UNL     1       7.710   4.650  17.835  0.00  0.00    +0.000 A 
ATOM     17  N   UNL     1       7.800   4.529  16.475  0.00  0.00    +0.000 N 
ATOM     18  C   UNL     1       6.513   4.376  15.932  0.00  0.00    +0.000 A 
ATOM     19  S   UNL     1       6.199   4.156  14.327  0.00  0.00    +0.000 S 
ATOM     20  H   UNL     1       8.650   4.524  15.927  0.00  0.00    +0.000 HD
ENDBRANCH  13  14
ENDBRANCH   6  13
TORSDOF 3
ENDMDL
