MODEL 1
REMARK VINA RESULT:      -7.3      0.000      0.000
REMARK  Name = 
REMARK  5 active torsions:
REMARK  status: ('A' for Active; 'I' for Inactive)
REMARK    1  A    between atoms: C_2  and  C_3
REMARK    2  A    between atoms: C_3  and  C_4
REMARK    3  A    between atoms: C_4  and  C_5
REMARK    4  A    between atoms: N_11  and  N_12
REMARK    5  A    between atoms: N_12  and  C_13
REMARK                            x       y       z     vdW  Elec       q    Type
REMARK                         _______ _______ _______ _____ _____    ______ ____
ROOT
ATOM      1  O   UNL     1       2.805   3.187  17.901  0.00  0.00    +0.000 OA
ATOM      2  C   UNL     1       3.002   3.936  18.853  0.00  0.00    +0.000 C 
ATOM      3  N   UNL     1       4.240   4.118  19.442  0.00  0.00    +0.000 N 
ATOM      4  H   UNL     1       4.423   4.914  20.047  0.00  0.00    +0.000 HD
ENDROOT
BRANCH   3   5
ATOM      5  N   UNL     1       5.360   3.560  18.815  0.00  0.00    +0.000 N 
ATOM      6  H   UNL     1       5.919   2.961  19.439  0.00  0.00    +0.000 HD
BRANCH   5   7
ATOM      7  C   UNL     1       6.157   4.459  18.059  0.00  0.00    +0.000 A 
ATOM      8  C   UNL     1       6.917   5.504  18.603  0.00  0.00    +0.000 A 
ATOM      9  F   UNL     1       7.043   5.666  19.931  0.00  0.00    +0.000 F 
ATOM     10  C   UNL     1       7.561   6.403  17.763  0.00  0.00    +0.000 A 
ATOM     11  N   UNL     1       7.486   6.366  16.413  0.00  0.00    +0.000 NA
ATOM     12  C   UNL     1       6.733   5.369  15.893  0.00  0.00    +0.000 A 
ATOM     13  C   UNL     1       6.075   4.417  16.661  0.00  0.00    +0.000 A 
ATOM     14  F   UNL     1       5.341   3.473  16.053  0.00  0.00    +0.000 F 
ENDBRANCH   5   7
ENDBRANCH   3   5
BRANCH   2  15
ATOM     15  C   UNL     1       1.929   4.788  19.508  0.00  0.00    +0.000 C 
BRANCH  15  16
ATOM     16  C   UNL     1       2.534   5.973  20.252  0.00  0.00    +0.000 C 
BRANCH  16  17
ATOM     17  C   UNL     1       2.116   7.289  19.642  0.00  0.00    +0.000 A 
ATOM     18  C   UNL     1       2.467   7.601  18.321  0.00  0.00    +0.000 A 
ATOM     19  C   UNL     1       2.083   8.821  17.758  0.00  0.00    +0.000 A 
ATOM     20  C   UNL     1       1.355   9.741  18.508  0.00  0.00    +0.000 A 
ATOM     21  C   UNL     1       1.007   9.444  19.826  0.00  0.00    +0.000 A 
ATOM     22  C   UNL     1       1.389   8.223  20.391  0.00  0.00    +0.000 A 
ENDBRANCH  16  17
ENDBRANCH  15  16
ENDBRANCH   2  15
TORSDOF 5
ENDMDL
MODEL 2
REMARK VINA RESULT:      -7.3      3.265      5.000
REMARK  Name = 
REMARK  5 active torsions:
REMARK  status: ('A' for Active; 'I' for Inactive)
REMARK    1  A    between atoms: C_2  and  C_3
REMARK    2  A    between atoms: C_3  and  C_4
REMARK    3  A    between atoms: C_4  and  C_5
REMARK    4  A    between atoms: N_11  and  N_12
REMARK    5  A    between atoms: N_12  and  C_13
REMARK                            x       y       z     vdW  Elec       q    Type
REMARK                         _______ _______ _______ _____ _____    ______ ____
ROOT
ATOM      1  O   UNL     1       8.092   4.391  17.936  0.00  0.00    +0.000 OA
ATOM      2  C   UNL     1       7.033   4.980  17.737  0.00  0.00    +0.000 C 
ATOM      3  N   UNL     1       6.729   5.633  16.557  0.00  0.00    +0.000 N 
ATOM      4  H   UNL     1       5.772   5.888  16.327  0.00  0.00    +0.000 HD
ENDROOT
BRANCH   3   5
ATOM      5  N   UNL     1       7.593   5.470  15.467  0.00  0.00    +0.000 N 
ATOM      6  H   UNL     1       8.150   6.310  15.261  0.00  0.00    +0.000 HD
BRANCH   5   7
ATOM      7  C   UNL     1       7.020   4.893  14.305  0.00  0.00    +0.000 A 
ATOM      8  C   UNL     1       5.906   4.041  14.302  0.00  0.00    +0.000 A 
ATOM      9  F   UNL     1       5.207   3.794  15.422  0.00  0.00    +0.000 F 
ATOM     10  C   UNL     1       5.502   3.431  13.121  0.00  0.00    +0.000 A 
ATOM     11  N   UNL     1       6.141   3.576  11.937  0.00  0.00    +0.000 NA
ATOM     12  C   UNL     1       7.228   4.380  11.950  0.00  0.00    +0.000 A 
ATOM     13  C   UNL     1       7.684   5.045  13.081  0.00  0.00    +0.000 A 
ATOM     14  F   UNL     1       8.782   5.812  12.996  0.00  0.00    +0.000 F 
ENDBRANCH   5   7
ENDBRANCH   3   5
BRANCH   2  15
ATOM     15  C   UNL     1       5.896   5.058  18.740  0.00  0.00    +0.000 C 
BRANCH  15  16
ATOM     16  C   UNL     1       4.586   5.452  18.070  0.00  0.00    +0.000 C 
BRANCH  16  17
ATOM     17  C   UNL     1       3.549   4.359  18.181  0.00  0.00    +0.000 A 
ATOM     18  C   UNL     1       2.184   4.665  18.093  0.00  0.00    +0.000 A 
ATOM     19  C   UNL     1       1.226   3.654  18.200  0.00  0.00    +0.000 A 
ATOM     20  C   UNL     1       1.619   2.334  18.403  0.00  0.00    +0.000 A 
ATOM     21  C   UNL     1       2.976   2.019  18.499  0.00  0.00    +0.000 A 
ATOM     22  C   UNL     1       3.936   3.030  18.390  0.00  0.00    +0.000 A 
ENDBRANCH  16  17
ENDBRANCH  15  16
ENDBRANCH   2  15
TORSDOF 5
ENDMDL
MODEL 3
REMARK VINA RESULT:      -7.3      1.278      1.702
REMARK  Name = 
REMARK  5 active torsions:
REMARK  status: ('A' for Active; 'I' for Inactive)
REMARK    1  A    between atoms: C_2  and  C_3
REMARK    2  A    between atoms: C_3  and  C_4
REMARK    3  A    between atoms: C_4  and  C_5
REMARK    4  A    between atoms: N_11  and  N_12
REMARK    5  A    between atoms: N_12  and  C_13
REMARK                            x       y       z     vdW  Elec       q    Type
REMARK                         _______ _______ _______ _____ _____    ______ ____
ROOT
ATOM      1  O   UNL     1       3.953   2.266  18.036  0.00  0.00    +0.000 OA
ATOM      2  C   UNL     1       4.131   2.906  19.069  0.00  0.00    +0.000 C 
ATOM      3  N   UNL     1       5.303   3.577  19.363  0.00  0.00    +0.000 N 
ATOM      4  H   UNL     1       5.334   4.291  20.086  0.00  0.00    +0.000 HD
ENDROOT
BRANCH   3   5
ATOM      5  N   UNL     1       6.274   3.685  18.360  0.00  0.00    +0.000 N 
ATOM      6  H   UNL     1       7.117   3.126  18.549  0.00  0.00    +0.000 HD
BRANCH   5   7
ATOM      7  C   UNL     1       6.575   5.004  17.931  0.00  0.00    +0.000 A 
ATOM      8  C   UNL     1       7.566   5.821  18.494  0.00  0.00    +0.000 A 
ATOM      9  F   UNL     1       8.408   5.360  19.433  0.00  0.00    +0.000 F 
ATOM     10  C   UNL     1       7.694   7.141  18.081  0.00  0.00    +0.000 A 
ATOM     11  N   UNL     1       6.888   7.730  17.167  0.00  0.00    +0.000 NA
ATOM     12  C   UNL     1       5.919   6.945  16.644  0.00  0.00    +0.000 A 
ATOM     13  C   UNL     1       5.738   5.610  16.984  0.00  0.00    +0.000 A 
ATOM     14  F   UNL     1       4.739   4.916  16.420  0.00  0.00    +0.000 F 
ENDBRANCH   5   7
ENDBRANCH   3   5
BRANCH   2  15
ATOM     15  C   UNL     1       3.089   3.074  20.161  0.00  0.00    +0.000 C 
BRANCH  15  16
ATOM     16  C   UNL     1       1.805   3.690  19.617  0.00  0.00    +0.000 C 
BRANCH  16  17
ATOM     17  C   UNL     1       1.938   5.182  19.422  0.00  0.00    +0.000 A 
ATOM     18  C   UNL     1       2.251   5.706  18.161  0.00  0.00    +0.000 A 
ATOM     19  C   UNL     1       2.377   7.086  17.982  0.00  0.00    +0.000 A 
ATOM     20  C   UNL     1       2.202   7.952  19.058  0.00  0.00    +0.000 A 
ATOM     21  C   UNL     1       1.898   7.440  20.320  0.00  0.00    +0.000 A 
ATOM     22  C   UNL     1       1.769   6.059  20.501  0.00  0.00    +0.000 A 
ENDBRANCH  16  17
ENDBRANCH  15  16
ENDBRANCH   2  15
TORSDOF 5
ENDMDL
MODEL 4
REMARK VINA RESULT:      -7.2      1.237      2.437
REMARK  Name = 
REMARK  5 active torsions:
REMARK  status: ('A' for Active; 'I' for Inactive)
REMARK    1  A    between atoms: C_2  and  C_3
REMARK    2  A    between atoms: C_3  and  C_4
REMARK    3  A    between atoms: C_4  and  C_5
REMARK    4  A    between atoms: N_11  and  N_12
REMARK    5  A    between atoms: N_12  and  C_13
REMARK                            x       y       z     vdW  Elec       q    Type
REMARK                         _______ _______ _______ _____ _____    ______ ____
ROOT
ATOM      1  O   UNL     1       3.336   1.830  19.069  0.00  0.00    +0.000 OA
ATOM      2  C   UNL     1       3.524   2.692  19.923  0.00  0.00    +0.000 C 
ATOM      3  N   UNL     1       4.683   3.441  20.014  0.00  0.00    +0.000 N 
ATOM      4  H   UNL     1       4.713   4.301  20.555  0.00  0.00    +0.000 HD
ENDROOT
BRANCH   3   5
ATOM      5  N   UNL     1       5.619   3.341  18.978  0.00  0.00    +0.000 N 
ATOM      6  H   UNL     1       6.538   3.000  19.292  0.00  0.00    +0.000 HD
BRANCH   5   7
ATOM      7  C   UNL     1       5.717   4.469  18.122  0.00  0.00    +0.000 A 
ATOM      8  C   UNL     1       5.090   4.580  16.873  0.00  0.00    +0.000 A 
ATOM      9  F   UNL     1       4.230   3.647  16.432  0.00  0.00    +0.000 F 
ATOM     10  C   UNL     1       5.353   5.675  16.059  0.00  0.00    +0.000 A 
ATOM     11  N   UNL     1       6.221   6.663  16.377  0.00  0.00    +0.000 NA
ATOM     12  C   UNL     1       6.841   6.539  17.573  0.00  0.00    +0.000 A 
ATOM     13  C   UNL     1       6.618   5.489  18.454  0.00  0.00    +0.000 A 
ATOM     14  F   UNL     1       7.292   5.447  19.613  0.00  0.00    +0.000 F 
ENDBRANCH   5   7
ENDBRANCH   3   5
BRANCH   2  15
ATOM     15  C   UNL     1       2.511   3.079  20.985  0.00  0.00    +0.000 C 
BRANCH  15  16
ATOM     16  C   UNL     1       1.299   3.773  20.374  0.00  0.00    +0.000 C 
BRANCH  16  17
ATOM     17  C   UNL     1       1.636   5.163  19.887  0.00  0.00    +0.000 A 
ATOM     18  C   UNL     1       2.054   5.368  18.566  0.00  0.00    +0.000 A 
ATOM     19  C   UNL     1       2.369   6.654  18.117  0.00  0.00    +0.000 A 
ATOM     20  C   UNL     1       2.277   7.740  18.982  0.00  0.00    +0.000 A 
ATOM     21  C   UNL     1       1.869   7.546  20.302  0.00  0.00    +0.000 A 
ATOM     22  C   UNL     1       1.551   6.260  20.753  0.00  0.00    +0.000 A 
ENDBRANCH  16  17
ENDBRANCH  15  16
ENDBRANCH   2  15
TORSDOF 5
ENDMDL
MODEL 5
REMARK VINA RESULT:      -7.2      1.382      2.857
REMARK  Name = 
REMARK  5 active torsions:
REMARK  status: ('A' for Active; 'I' for Inactive)
REMARK    1  A    between atoms: C_2  and  C_3
REMARK    2  A    between atoms: C_3  and  C_4
REMARK    3  A    between atoms: C_4  and  C_5
REMARK    4  A    between atoms: N_11  and  N_12
REMARK    5  A    between atoms: N_12  and  C_13
REMARK                            x       y       z     vdW  Elec       q    Type
REMARK                         _______ _______ _______ _____ _____    ______ ____
ROOT
ATOM      1  O   UNL     1       3.690   1.740  17.860  0.00  0.00    +0.000 OA
ATOM      2  C   UNL     1       3.683   2.327  18.938  0.00  0.00    +0.000 C 
ATOM      3  N   UNL     1       4.745   3.078  19.408  0.00  0.00    +0.000 N 
ATOM      4  H   UNL     1       4.624   3.746  20.165  0.00  0.00    +0.000 HD
ENDROOT
BRANCH   3   5
ATOM      5  N   UNL     1       5.814   3.331  18.540  0.00  0.00    +0.000 N 
ATOM      6  H   UNL     1       6.735   3.184  18.975  0.00  0.00    +0.000 HD
BRANCH   5   7
ATOM      7  C   UNL     1       5.741   4.543  17.807  0.00  0.00    +0.000 A 
ATOM      8  C   UNL     1       5.334   4.645  16.469  0.00  0.00    +0.000 A 
ATOM      9  F   UNL     1       4.857   3.585  15.796  0.00  0.00    +0.000 F 
ATOM     10  C   UNL     1       5.419   5.864  15.808  0.00  0.00    +0.000 A 
ATOM     11  N   UNL     1       5.911   6.994  16.365  0.00  0.00    +0.000 NA
ATOM     12  C   UNL     1       6.324   6.886  17.649  0.00  0.00    +0.000 A 
ATOM     13  C   UNL     1       6.252   5.712  18.387  0.00  0.00    +0.000 A 
ATOM     14  F   UNL     1       6.700   5.700  19.651  0.00  0.00    +0.000 F 
ENDBRANCH   5   7
ENDBRANCH   3   5
BRANCH   2  15
ATOM     15  C   UNL     1       2.509   2.338  19.900  0.00  0.00    +0.000 C 
BRANCH  15  16
ATOM     16  C   UNL     1       1.363   3.193  19.373  0.00  0.00    +0.000 C 
BRANCH  16  17
ATOM     17  C   UNL     1       1.738   4.655  19.309  0.00  0.00    +0.000 A 
ATOM     18  C   UNL     1       1.690   5.451  20.461  0.00  0.00    +0.000 A 
ATOM     19  C   UNL     1       2.034   6.804  20.400  0.00  0.00    +0.000 A 
ATOM     20  C   UNL     1       2.422   7.374  19.191  0.00  0.00    +0.000 A 
ATOM     21  C   UNL     1       2.467   6.592  18.035  0.00  0.00    +0.000 A 
ATOM     22  C   UNL     1       2.124   5.238  18.095  0.00  0.00    +0.000 A 
ENDBRANCH  16  17
ENDBRANCH  15  16
ENDBRANCH   2  15
TORSDOF 5
ENDMDL
MODEL 6
REMARK VINA RESULT:      -7.2      0.430      1.866
REMARK  Name = 
REMARK  5 active torsions:
REMARK  status: ('A' for Active; 'I' for Inactive)
REMARK    1  A    between atoms: C_2  and  C_3
REMARK    2  A    between atoms: C_3  and  C_4
REMARK    3  A    between atoms: C_4  and  C_5
REMARK    4  A    between atoms: N_11  and  N_12
REMARK    5  A    between atoms: N_12  and  C_13
REMARK                            x       y       z     vdW  Elec       q    Type
REMARK                         _______ _______ _______ _____ _____    ______ ____
ROOT
ATOM      1  O   UNL     1       3.101   3.222  17.383  0.00  0.00    +0.000 OA
ATOM      2  C   UNL     1       3.155   3.723  18.502  0.00  0.00    +0.000 C 
ATOM      3  N   UNL     1       4.315   3.801  19.251  0.00  0.00    +0.000 N 
ATOM      4  H   UNL     1       4.388   4.432  20.045  0.00  0.00    +0.000 HD
ENDROOT
BRANCH   3   5
ATOM      5  N   UNL     1       5.525   3.453  18.638  0.00  0.00    +0.000 N 
ATOM      6  H   UNL     1       6.205   3.036  19.288  0.00  0.00    +0.000 HD
BRANCH   5   7
ATOM      7  C   UNL     1       6.102   4.445  17.803  0.00  0.00    +0.000 A 
ATOM      8  C   UNL     1       6.283   4.317  16.418  0.00  0.00    +0.000 A 
ATOM      9  F   UNL     1       5.801   3.262  15.740  0.00  0.00    +0.000 F 
ATOM     10  C   UNL     1       6.973   5.296  15.715  0.00  0.00    +0.000 A 
ATOM     11  N   UNL     1       7.532   6.388  16.287  0.00  0.00    +0.000 NA
ATOM     12  C   UNL     1       7.375   6.495  17.627  0.00  0.00    +0.000 A 
ATOM     13  C   UNL     1       6.680   5.573  18.400  0.00  0.00    +0.000 A 
ATOM     14  F   UNL     1       6.590   5.760  19.725  0.00  0.00    +0.000 F 
ENDBRANCH   5   7
ENDBRANCH   3   5
BRANCH   2  15
ATOM     15  C   UNL     1       1.972   4.351  19.217  0.00  0.00    +0.000 C 
BRANCH  15  16
ATOM     16  C   UNL     1       2.420   5.430  20.197  0.00  0.00    +0.000 C 
BRANCH  16  17
ATOM     17  C   UNL     1       2.098   6.815  19.689  0.00  0.00    +0.000 A 
ATOM     18  C   UNL     1       2.390   7.171  18.366  0.00  0.00    +0.000 A 
ATOM     19  C   UNL     1       2.095   8.455  17.898  0.00  0.00    +0.000 A 
ATOM     20  C   UNL     1       1.514   9.393  18.747  0.00  0.00    +0.000 A 
ATOM     21  C   UNL     1       1.225   9.051  20.069  0.00  0.00    +0.000 A 
ATOM     22  C   UNL     1       1.519   7.767  20.538  0.00  0.00    +0.000 A 
ENDBRANCH  16  17
ENDBRANCH  15  16
ENDBRANCH   2  15
TORSDOF 5
ENDMDL
MODEL 7
REMARK VINA RESULT:      -7.2      3.231      6.570
REMARK  Name = 
REMARK  5 active torsions:
REMARK  status: ('A' for Active; 'I' for Inactive)
REMARK    1  A    between atoms: C_2  and  C_3
REMARK    2  A    between atoms: C_3  and  C_4
REMARK    3  A    between atoms: C_4  and  C_5
REMARK    4  A    between atoms: N_11  and  N_12
REMARK    5  A    between atoms: N_12  and  C_13
REMARK                            x       y       z     vdW  Elec       q    Type
REMARK                         _______ _______ _______ _____ _____    ______ ____
ROOT
ATOM      1  O   UNL     1       6.344   5.798  19.040  0.00  0.00    +0.000 OA
ATOM      2  C   UNL     1       6.329   4.879  18.226  0.00  0.00    +0.000 C 
ATOM      3  N   UNL     1       5.786   3.634  18.486  0.00  0.00    +0.000 N 
ATOM      4  H   UNL     1       5.563   2.990  17.732  0.00  0.00    +0.000 HD
ENDROOT
BRANCH   3   5
ATOM      5  N   UNL     1       5.058   3.462  19.669  0.00  0.00    +0.000 N 
ATOM      6  H   UNL     1       5.509   2.819  20.334  0.00  0.00    +0.000 HD
BRANCH   5   7
ATOM      7  C   UNL     1       3.672   3.203  19.509  0.00  0.00    +0.000 A 
ATOM      8  C   UNL     1       3.138   2.068  18.883  0.00  0.00    +0.000 A 
ATOM      9  F   UNL     1       3.921   1.054  18.479  0.00  0.00    +0.000 F 
ATOM     10  C   UNL     1       1.769   1.973  18.668  0.00  0.00    +0.000 A 
ATOM     11  N   UNL     1       0.882   2.939  19.000  0.00  0.00    +0.000 NA
ATOM     12  C   UNL     1       1.404   4.042  19.583  0.00  0.00    +0.000 A 
ATOM     13  C   UNL     1       2.756   4.207  19.854  0.00  0.00    +0.000 A 
ATOM     14  F   UNL     1       3.181   5.344  20.424  0.00  0.00    +0.000 F 
ENDBRANCH   5   7
ENDBRANCH   3   5
BRANCH   2  15
ATOM     15  C   UNL     1       6.880   4.977  16.815  0.00  0.00    +0.000 C 
BRANCH  15  16
ATOM     16  C   UNL     1       5.761   5.084  15.785  0.00  0.00    +0.000 C 
BRANCH  16  17
ATOM     17  C   UNL     1       6.232   4.694  14.404  0.00  0.00    +0.000 A 
ATOM     18  C   UNL     1       7.332   5.338  13.823  0.00  0.00    +0.000 A 
ATOM     19  C   UNL     1       7.765   4.978  12.543  0.00  0.00    +0.000 A 
ATOM     20  C   UNL     1       7.101   3.982  11.833  0.00  0.00    +0.000 A 
ATOM     21  C   UNL     1       5.999   3.340  12.399  0.00  0.00    +0.000 A 
ATOM     22  C   UNL     1       5.566   3.697  13.680  0.00  0.00    +0.000 A 
ENDBRANCH  16  17
ENDBRANCH  15  16
ENDBRANCH   2  15
TORSDOF 5
ENDMDL
MODEL 8
REMARK VINA RESULT:      -7.2      3.388      6.398
REMARK  Name = 
REMARK  5 active torsions:
REMARK  status: ('A' for Active; 'I' for Inactive)
REMARK    1  A    between atoms: C_2  and  C_3
REMARK    2  A    between atoms: C_3  and  C_4
REMARK    3  A    between atoms: C_4  and  C_5
REMARK    4  A    between atoms: N_11  and  N_12
REMARK    5  A    between atoms: N_12  and  C_13
REMARK                            x       y       z     vdW  Elec       q    Type
REMARK                         _______ _______ _______ _____ _____    ______ ____
ROOT
ATOM      1  O   UNL     1       5.229   5.651  18.931  0.00  0.00    +0.000 OA
ATOM      2  C   UNL     1       5.640   4.674  18.311  0.00  0.00    +0.000 C 
ATOM      3  N   UNL     1       5.500   3.372  18.754  0.00  0.00    +0.000 N 
ATOM      4  H   UNL     1       5.616   2.584  18.121  0.00  0.00    +0.000 HD
ENDROOT
BRANCH   3   5
ATOM      5  N   UNL     1       4.696   3.136  19.876  0.00  0.00    +0.000 N 
ATOM      6  H   UNL     1       5.015   2.340  20.445  0.00  0.00    +0.000 HD
BRANCH   5   7
ATOM      7  C   UNL     1       3.297   3.114  19.640  0.00  0.00    +0.000 A 
ATOM      8  C   UNL     1       2.369   3.964  20.259  0.00  0.00    +0.000 A 
ATOM      9  F   UNL     1       2.760   4.971  21.057  0.00  0.00    +0.000 F 
ATOM     10  C   UNL     1       1.008   3.774  20.050  0.00  0.00    +0.000 A 
ATOM     11  N   UNL     1       0.489   2.779  19.296  0.00  0.00    +0.000 NA
ATOM     12  C   UNL     1       1.387   1.948  18.720  0.00  0.00    +0.000 A 
ATOM     13  C   UNL     1       2.762   2.081  18.858  0.00  0.00    +0.000 A 
ATOM     14  F   UNL     1       3.574   1.197  18.258  0.00  0.00    +0.000 F 
ENDBRANCH   5   7
ENDBRANCH   3   5
BRANCH   2  15
ATOM     15  C   UNL     1       6.336   4.745  16.964  0.00  0.00    +0.000 C 
BRANCH  15  16
ATOM     16  C   UNL     1       5.334   4.878  15.823  0.00  0.00    +0.000 C 
BRANCH  16  17
ATOM     17  C   UNL     1       5.970   4.593  14.484  0.00  0.00    +0.000 A 
ATOM     18  C   UNL     1       5.382   3.680  13.599  0.00  0.00    +0.000 A 
ATOM     19  C   UNL     1       5.973   3.414  12.361  0.00  0.00    +0.000 A 
ATOM     20  C   UNL     1       7.157   4.050  11.999  0.00  0.00    +0.000 A 
ATOM     21  C   UNL     1       7.756   4.957  12.875  0.00  0.00    +0.000 A 
ATOM     22  C   UNL     1       7.165   5.225  14.114  0.00  0.00    +0.000 A 
ENDBRANCH  16  17
ENDBRANCH  15  16
ENDBRANCH   2  15
TORSDOF 5
ENDMDL
MODEL 9
REMARK VINA RESULT:      -7.1      3.578      6.720
REMARK  Name = 
REMARK  5 active torsions:
REMARK  status: ('A' for Active; 'I' for Inactive)
REMARK    1  A    between atoms: C_2  and  C_3
REMARK    2  A    between atoms: C_3  and  C_4
REMARK    3  A    between atoms: C_4  and  C_5
REMARK    4  A    between atoms: N_11  and  N_12
REMARK    5  A    between atoms: N_12  and  C_13
REMARK                            x       y       z     vdW  Elec       q    Type
REMARK                         _______ _______ _______ _____ _____    ______ ____
ROOT
ATOM      1  O   UNL     1       6.335   4.263  18.521  0.00  0.00    +0.000 OA
ATOM      2  C   UNL     1       5.538   4.307  17.588  0.00  0.00    +0.000 C 
ATOM      3  N   UNL     1       4.549   3.364  17.378  0.00  0.00    +0.000 N 
ATOM      4  H   UNL     1       3.762   3.554  16.765  0.00  0.00    +0.000 HD
ENDROOT
BRANCH   3   5
ATOM      5  N   UNL     1       4.327   2.405  18.374  0.00  0.00    +0.000 N 
ATOM      6  H   UNL     1       4.365   1.438  18.023  0.00  0.00    +0.000 HD
BRANCH   5   7
ATOM      7  C   UNL     1       3.210   2.638  19.218  0.00  0.00    +0.000 A 
ATOM      8  C   UNL     1       1.988   3.178  18.794  0.00  0.00    +0.000 A 
ATOM      9  F   UNL     1       1.734   3.413  17.496  0.00  0.00    +0.000 F 
ATOM     10  C   UNL     1       1.003   3.482  19.726  0.00  0.00    +0.000 A 
ATOM     11  N   UNL     1       1.149   3.320  21.062  0.00  0.00    +0.000 NA
ATOM     12  C   UNL     1       2.338   2.821  21.468  0.00  0.00    +0.000 A 
ATOM     13  C   UNL     1       3.365   2.470  20.601  0.00  0.00    +0.000 A 
ATOM     14  F   UNL     1       4.515   1.994  21.100  0.00  0.00    +0.000 F 
ENDBRANCH   5   7
ENDBRANCH   3   5
BRANCH   2  15
ATOM     15  C   UNL     1       5.503   5.410  16.545  0.00  0.00    +0.000 C 
BRANCH  15  16
ATOM     16  C   UNL     1       6.839   5.539  15.822  0.00  0.00    +0.000 C 
BRANCH  16  17
ATOM     17  C   UNL     1       6.787   4.938  14.438  0.00  0.00    +0.000 A 
ATOM     18  C   UNL     1       5.838   3.955  14.126  0.00  0.00    +0.000 A 
ATOM     19  C   UNL     1       5.793   3.398  12.846  0.00  0.00    +0.000 A 
ATOM     20  C   UNL     1       6.697   3.809  11.870  0.00  0.00    +0.000 A 
ATOM     21  C   UNL     1       7.651   4.782  12.172  0.00  0.00    +0.000 A 
ATOM     22  C   UNL     1       7.696   5.342  13.452  0.00  0.00    +0.000 A 
ENDBRANCH  16  17
ENDBRANCH  15  16
ENDBRANCH   2  15
TORSDOF 5
ENDMDL
