MODEL 1
REMARK VINA RESULT:      -8.6      0.000      0.000
REMARK  Name = 
REMARK  4 active torsions:
REMARK  status: ('A' for Active; 'I' for Inactive)
REMARK    1  A    between atoms: C_3  and  C_4
REMARK    2  A    between atoms: N_6  and  C_7
REMARK    3  A    between atoms: C_10  and  C_11
REMARK    4  A    between atoms: C_22  and  C_23
REMARK                            x       y       z     vdW  Elec       q    Type
REMARK                         _______ _______ _______ _____ _____    ______ ____
ROOT
ATOM      1  C   UNL     1       1.475   7.724  20.523  0.00  0.00    +0.000 A 
ATOM      2  C   UNL     1       2.241   7.804  19.380  0.00  0.00    +0.000 A 
ATOM      3  N   UNL     1       2.713   6.570  19.145  0.00  0.00    +0.000 N 
ATOM      4  N   UNL     1       2.266   5.770  20.104  0.00  0.00    +0.000 NA
ATOM      5  N   UNL     1       1.512   6.448  20.959  0.00  0.00    +0.000 NA
ENDROOT
BRANCH   1   8
ATOM      6  C   UNL     1      -0.472  10.931  20.964  0.00  0.00    +0.000 A 
ATOM      7  C   UNL     1       0.268   9.905  20.386  0.00  0.00    +0.000 A 
ATOM      8  C   UNL     1       0.710   8.818  21.154  0.00  0.00    +0.000 A 
ATOM      9  C   UNL     1       0.394   8.780  22.521  0.00  0.00    +0.000 A 
ATOM     10  C   UNL     1      -0.355   9.812  23.101  0.00  0.00    +0.000 A 
ATOM     11  C   UNL     1      -0.797  10.900  22.327  0.00  0.00    +0.000 A 
BRANCH  11  12
ATOM     12  C   UNL     1      -1.601  11.988  22.939  0.00  0.00    +0.000 C 
ATOM     13  N   UNL     1      -1.163  13.180  23.091  0.00  0.00    +0.000 NA
ATOM     14  C   UNL     1      -2.152  14.009  23.739  0.00  0.00    +0.000 C 
ATOM     15  C   UNL     1      -3.388  13.104  23.878  0.00  0.00    +0.000 C 
ATOM     16  N   UNL     1      -2.914  11.834  23.419  0.00  0.00    +0.000 N 
ATOM     17  H   UNL     1      -3.488  10.980  23.387  0.00  0.00    +0.000 HD
ENDBRANCH  11  12
ENDBRANCH   1   8
BRANCH   3  18
ATOM     18  C   UNL     1       3.536   6.142  18.042  0.00  0.00    +0.000 A 
ATOM     19  C   UNL     1       3.686   4.778  17.726  0.00  0.00    +0.000 A 
ATOM     20  C   UNL     1       4.492   4.383  16.654  0.00  0.00    +0.000 A 
ATOM     21  C   UNL     1       5.171   5.338  15.880  0.00  0.00    +0.000 A 
ATOM     22  C   UNL     1       5.023   6.699  16.202  0.00  0.00    +0.000 A 
ATOM     23  C   UNL     1       4.214   7.094  17.268  0.00  0.00    +0.000 A 
BRANCH  21  24
ATOM     24  C   UNL     1       6.016   4.911  14.734  0.00  0.00    +0.000 C 
ATOM     25  N   UNL     1       5.637   4.041  13.876  0.00  0.00    +0.000 NA
ATOM     26  C   UNL     1       6.653   3.840  12.869  0.00  0.00    +0.000 C 
ATOM     27  C   UNL     1       7.741   4.872  13.206  0.00  0.00    +0.000 C 
ATOM     28  N   UNL     1       7.289   5.432  14.444  0.00  0.00    +0.000 N 
ATOM     29  H   UNL     1       7.790   6.161  14.969  0.00  0.00    +0.000 HD
ENDBRANCH  21  24
ENDBRANCH   3  18
TORSDOF 4
ENDMDL
MODEL 2
REMARK VINA RESULT:      -8.6      0.120      1.316
REMARK  Name = 
REMARK  4 active torsions:
REMARK  status: ('A' for Active; 'I' for Inactive)
REMARK    1  A    between atoms: C_3  and  C_4
REMARK    2  A    between atoms: N_6  and  C_7
REMARK    3  A    between atoms: C_10  and  C_11
REMARK    4  A    between atoms: C_22  and  C_23
REMARK                            x       y       z     vdW  Elec       q    Type
REMARK                         _______ _______ _______ _____ _____    ______ ____
ROOT
ATOM      1  C   UNL     1       1.480   7.711  20.470  0.00  0.00    +0.000 A 
ATOM      2  C   UNL     1       2.232   7.803  19.319  0.00  0.00    +0.000 A 
ATOM      3  N   UNL     1       2.743   6.583  19.093  0.00  0.00    +0.000 N 
ATOM      4  N   UNL     1       2.331   5.780  20.065  0.00  0.00    +0.000 NA
ATOM      5  N   UNL     1       1.563   6.442  20.919  0.00  0.00    +0.000 NA
ENDROOT
BRANCH   1   8
ATOM      6  C   UNL     1      -0.175   9.865  23.095  0.00  0.00    +0.000 A 
ATOM      7  C   UNL     1       0.554   8.846  22.492  0.00  0.00    +0.000 A 
ATOM      8  C   UNL     1       0.684   8.785  21.096  0.00  0.00    +0.000 A 
ATOM      9  C   UNL     1       0.064   9.772  20.314  0.00  0.00    +0.000 A 
ATOM     10  C   UNL     1      -0.666  10.800  20.923  0.00  0.00    +0.000 A 
ATOM     11  C   UNL     1      -0.793  10.858  22.323  0.00  0.00    +0.000 A 
BRANCH  11  12
ATOM     12  C   UNL     1      -1.557  11.956  22.969  0.00  0.00    +0.000 C 
ATOM     13  N   UNL     1      -1.042  13.090  23.256  0.00  0.00    +0.000 NA
ATOM     14  C   UNL     1      -2.012  13.942  23.903  0.00  0.00    +0.000 C 
ATOM     15  C   UNL     1      -3.321  13.135  23.873  0.00  0.00    +0.000 C 
ATOM     16  N   UNL     1      -2.912  11.872  23.338  0.00  0.00    +0.000 N 
ATOM     17  H   UNL     1      -3.545  11.074  23.190  0.00  0.00    +0.000 HD
ENDBRANCH  11  12
ENDBRANCH   1   8
BRANCH   3  18
ATOM     18  C   UNL     1       3.570   6.171  17.987  0.00  0.00    +0.000 A 
ATOM     19  C   UNL     1       4.282   7.109  17.215  0.00  0.00    +0.000 A 
ATOM     20  C   UNL     1       5.076   6.690  16.144  0.00  0.00    +0.000 A 
ATOM     21  C   UNL     1       5.172   5.327  15.816  0.00  0.00    +0.000 A 
ATOM     22  C   UNL     1       4.456   4.394  16.586  0.00  0.00    +0.000 A 
ATOM     23  C   UNL     1       3.668   4.812  17.658  0.00  0.00    +0.000 A 
BRANCH  21  24
ATOM     24  C   UNL     1       6.030   4.888  14.684  0.00  0.00    +0.000 C 
ATOM     25  N   UNL     1       5.667   3.996  13.842  0.00  0.00    +0.000 NA
ATOM     26  C   UNL     1       6.691   3.788  12.844  0.00  0.00    +0.000 C 
ATOM     27  C   UNL     1       7.764   4.840  13.167  0.00  0.00    +0.000 C 
ATOM     28  N   UNL     1       7.297   5.420  14.391  0.00  0.00    +0.000 N 
ATOM     29  H   UNL     1       7.786   6.165  14.904  0.00  0.00    +0.000 HD
ENDBRANCH  21  24
ENDBRANCH   3  18
TORSDOF 4
ENDMDL
MODEL 3
REMARK VINA RESULT:      -8.5      0.439     10.938
REMARK  Name = 
REMARK  4 active torsions:
REMARK  status: ('A' for Active; 'I' for Inactive)
REMARK    1  A    between atoms: C_3  and  C_4
REMARK    2  A    between atoms: N_6  and  C_7
REMARK    3  A    between atoms: C_10  and  C_11
REMARK    4  A    between atoms: C_22  and  C_23
REMARK                            x       y       z     vdW  Elec       q    Type
REMARK                         _______ _______ _______ _____ _____    ______ ____
ROOT
ATOM      1  C   UNL     1       2.720   6.611  19.056  0.00  0.00    +0.000 A 
ATOM      2  C   UNL     1       2.168   7.858  19.250  0.00  0.00    +0.000 A 
ATOM      3  N   UNL     1       1.492   7.805  20.408  0.00  0.00    +0.000 N 
ATOM      4  N   UNL     1       1.615   6.579  20.899  0.00  0.00    +0.000 NA
ATOM      5  N   UNL     1       2.356   5.829  20.093  0.00  0.00    +0.000 NA
ENDROOT
BRANCH   1   8
ATOM      6  C   UNL     1       4.493   4.431  16.530  0.00  0.00    +0.000 A 
ATOM      7  C   UNL     1       3.693   4.837  17.593  0.00  0.00    +0.000 A 
ATOM      8  C   UNL     1       3.591   6.192  17.939  0.00  0.00    +0.000 A 
ATOM      9  C   UNL     1       4.311   7.138  17.194  0.00  0.00    +0.000 A 
ATOM     10  C   UNL     1       5.113   6.730  16.121  0.00  0.00    +0.000 A 
ATOM     11  C   UNL     1       5.213   5.370  15.777  0.00  0.00    +0.000 A 
BRANCH  11  12
ATOM     12  C   UNL     1       6.054   4.937  14.631  0.00  0.00    +0.000 C 
ATOM     13  N   UNL     1       5.699   4.023  13.811  0.00  0.00    +0.000 NA
ATOM     14  C   UNL     1       6.727   3.798  12.823  0.00  0.00    +0.000 C 
ATOM     15  C   UNL     1       7.798   4.860  13.124  0.00  0.00    +0.000 C 
ATOM     16  N   UNL     1       7.317   5.473  14.326  0.00  0.00    +0.000 N 
ATOM     17  H   UNL     1       7.804   6.231  14.823  0.00  0.00    +0.000 HD
ENDBRANCH  11  12
ENDBRANCH   1   8
BRANCH   3  18
ATOM     18  C   UNL     1       0.773   8.874  21.053  0.00  0.00    +0.000 A 
ATOM     19  C   UNL     1       0.234   8.720  22.345  0.00  0.00    +0.000 A 
ATOM     20  C   UNL     1      -0.463   9.768  22.953  0.00  0.00    +0.000 A 
ATOM     21  C   UNL     1      -0.645  10.989  22.283  0.00  0.00    +0.000 A 
ATOM     22  C   UNL     1      -0.111  11.137  20.990  0.00  0.00    +0.000 A 
ATOM     23  C   UNL     1       0.590  10.094  20.387  0.00  0.00    +0.000 A 
BRANCH  21  24
ATOM     24  C   UNL     1      -1.377  12.103  22.941  0.00  0.00    +0.000 C 
ATOM     25  N   UNL     1      -0.824  13.217  23.242  0.00  0.00    +0.000 NA
ATOM     26  C   UNL     1      -1.779  14.113  23.851  0.00  0.00    +0.000 C 
ATOM     27  C   UNL     1      -3.119  13.363  23.772  0.00  0.00    +0.000 C 
ATOM     28  N   UNL     1      -2.744  12.077  23.266  0.00  0.00    +0.000 N 
ATOM     29  H   UNL     1      -3.403  11.306  23.095  0.00  0.00    +0.000 HD
ENDBRANCH  21  24
ENDBRANCH   3  18
TORSDOF 4
ENDMDL
MODEL 4
REMARK VINA RESULT:      -8.5      0.074      1.189
REMARK  Name = 
REMARK  4 active torsions:
REMARK  status: ('A' for Active; 'I' for Inactive)
REMARK    1  A    between atoms: C_3  and  C_4
REMARK    2  A    between atoms: N_6  and  C_7
REMARK    3  A    between atoms: C_10  and  C_11
REMARK    4  A    between atoms: C_22  and  C_23
REMARK                            x       y       z     vdW  Elec       q    Type
REMARK                         _______ _______ _______ _____ _____    ______ ____
ROOT
ATOM      1  C   UNL     1       1.471   7.768  20.537  0.00  0.00    +0.000 A 
ATOM      2  C   UNL     1       2.231   7.857  19.391  0.00  0.00    +0.000 A 
ATOM      3  N   UNL     1       2.715   6.628  19.153  0.00  0.00    +0.000 N 
ATOM      4  N   UNL     1       2.279   5.823  20.112  0.00  0.00    +0.000 NA
ATOM      5  N   UNL     1       1.522   6.492  20.971  0.00  0.00    +0.000 NA
ENDROOT
BRANCH   1   8
ATOM      6  C   UNL     1      -0.412  11.009  21.014  0.00  0.00    +0.000 A 
ATOM      7  C   UNL     1       0.335   9.989  20.433  0.00  0.00    +0.000 A 
ATOM      8  C   UNL     1       0.698   8.854  21.173  0.00  0.00    +0.000 A 
ATOM      9  C   UNL     1       0.295   8.761  22.514  0.00  0.00    +0.000 A 
ATOM     10  C   UNL     1      -0.460   9.786  23.097  0.00  0.00    +0.000 A 
ATOM     11  C   UNL     1      -0.823  10.923  22.352  0.00  0.00    +0.000 A 
BRANCH  11  12
ATOM     12  C   UNL     1      -1.634  12.005  22.966  0.00  0.00    +0.000 C 
ATOM     13  N   UNL     1      -2.824  11.825  23.398  0.00  0.00    +0.000 NA
ATOM     14  C   UNL     1      -3.371  13.059  23.912  0.00  0.00    +0.000 C 
ATOM     15  C   UNL     1      -2.216  14.069  23.814  0.00  0.00    +0.000 C 
ATOM     16  N   UNL     1      -1.195  13.330  23.135  0.00  0.00    +0.000 N 
ATOM     17  H   UNL     1      -0.272  13.712  22.888  0.00  0.00    +0.000 HD
ENDBRANCH  11  12
ENDBRANCH   1   8
BRANCH   3  18
ATOM     18  C   UNL     1       3.538   6.210  18.046  0.00  0.00    +0.000 A 
ATOM     19  C   UNL     1       4.226   7.146  17.251  0.00  0.00    +0.000 A 
ATOM     20  C   UNL     1       5.017   6.721  16.179  0.00  0.00    +0.000 A 
ATOM     21  C   UNL     1       5.132   5.355  15.873  0.00  0.00    +0.000 A 
ATOM     22  C   UNL     1       4.438   4.423  16.666  0.00  0.00    +0.000 A 
ATOM     23  C   UNL     1       3.654   4.847  17.740  0.00  0.00    +0.000 A 
BRANCH  21  24
ATOM     24  C   UNL     1       5.985   4.909  14.740  0.00  0.00    +0.000 C 
ATOM     25  N   UNL     1       5.614   4.023  13.896  0.00  0.00    +0.000 NA
ATOM     26  C   UNL     1       6.636   3.807  12.899  0.00  0.00    +0.000 C 
ATOM     27  C   UNL     1       7.720   4.848  13.223  0.00  0.00    +0.000 C 
ATOM     28  N   UNL     1       7.258   5.430  14.449  0.00  0.00    +0.000 N 
ATOM     29  H   UNL     1       7.753   6.169  14.964  0.00  0.00    +0.000 HD
ENDBRANCH  21  24
ENDBRANCH   3  18
TORSDOF 4
ENDMDL
MODEL 5
REMARK VINA RESULT:      -8.4      0.489     10.897
REMARK  Name = 
REMARK  4 active torsions:
REMARK  status: ('A' for Active; 'I' for Inactive)
REMARK    1  A    between atoms: C_3  and  C_4
REMARK    2  A    between atoms: N_6  and  C_7
REMARK    3  A    between atoms: C_10  and  C_11
REMARK    4  A    between atoms: C_22  and  C_23
REMARK                            x       y       z     vdW  Elec       q    Type
REMARK                         _______ _______ _______ _____ _____    ______ ____
ROOT
ATOM      1  C   UNL     1       2.812   6.507  18.946  0.00  0.00    +0.000 A 
ATOM      2  C   UNL     1       2.248   7.749  19.143  0.00  0.00    +0.000 A 
ATOM      3  N   UNL     1       1.626   7.706  20.332  0.00  0.00    +0.000 N 
ATOM      4  N   UNL     1       1.792   6.492  20.837  0.00  0.00    +0.000 NA
ATOM      5  N   UNL     1       2.508   5.739  20.012  0.00  0.00    +0.000 NA
ENDROOT
BRANCH   1   8
ATOM      6  C   UNL     1       5.195   6.635  16.017  0.00  0.00    +0.000 A 
ATOM      7  C   UNL     1       4.396   7.025  17.086  0.00  0.00    +0.000 A 
ATOM      8  C   UNL     1       3.638   6.083  17.798  0.00  0.00    +0.000 A 
ATOM      9  C   UNL     1       3.699   4.735  17.414  0.00  0.00    +0.000 A 
ATOM     10  C   UNL     1       4.507   4.342  16.340  0.00  0.00    +0.000 A 
ATOM     11  C   UNL     1       5.266   5.290  15.629  0.00  0.00    +0.000 A 
BRANCH  11  12
ATOM     12  C   UNL     1       6.132   4.872  14.497  0.00  0.00    +0.000 C 
ATOM     13  N   UNL     1       7.291   5.369  14.286  0.00  0.00    +0.000 NA
ATOM     14  C   UNL     1       7.884   4.794  13.102  0.00  0.00    +0.000 C 
ATOM     15  C   UNL     1       6.883   3.719  12.646  0.00  0.00    +0.000 C 
ATOM     16  N   UNL     1       5.781   3.902  13.542  0.00  0.00    +0.000 N 
ATOM     17  H   UNL     1       4.915   3.347  13.514  0.00  0.00    +0.000 HD
ENDBRANCH  11  12
ENDBRANCH   1   8
BRANCH   3  18
ATOM     18  C   UNL     1       0.919   8.776  20.990  0.00  0.00    +0.000 A 
ATOM     19  C   UNL     1       0.488   8.656  22.325  0.00  0.00    +0.000 A 
ATOM     20  C   UNL     1      -0.200   9.703  22.945  0.00  0.00    +0.000 A 
ATOM     21  C   UNL     1      -0.479  10.889  22.245  0.00  0.00    +0.000 A 
ATOM     22  C   UNL     1      -0.052  11.002  20.910  0.00  0.00    +0.000 A 
ATOM     23  C   UNL     1       0.640   9.960  20.293  0.00  0.00    +0.000 A 
BRANCH  21  24
ATOM     24  C   UNL     1      -1.199  12.003  22.915  0.00  0.00    +0.000 C 
ATOM     25  N   UNL     1      -0.636  13.110  23.224  0.00  0.00    +0.000 NA
ATOM     26  C   UNL     1      -1.582  14.008  23.844  0.00  0.00    +0.000 C 
ATOM     27  C   UNL     1      -2.928  13.270  23.763  0.00  0.00    +0.000 C 
ATOM     28  N   UNL     1      -2.565  11.985  23.245  0.00  0.00    +0.000 N 
ATOM     29  H   UNL     1      -3.231  11.221  23.068  0.00  0.00    +0.000 HD
ENDBRANCH  21  24
ENDBRANCH   3  18
TORSDOF 4
ENDMDL
MODEL 6
REMARK VINA RESULT:      -8.4      0.444     10.958
REMARK  Name = 
REMARK  4 active torsions:
REMARK  status: ('A' for Active; 'I' for Inactive)
REMARK    1  A    between atoms: C_3  and  C_4
REMARK    2  A    between atoms: N_6  and  C_7
REMARK    3  A    between atoms: C_10  and  C_11
REMARK    4  A    between atoms: C_22  and  C_23
REMARK                            x       y       z     vdW  Elec       q    Type
REMARK                         _______ _______ _______ _____ _____    ______ ____
ROOT
ATOM      1  C   UNL     1       2.794   6.584  18.973  0.00  0.00    +0.000 A 
ATOM      2  C   UNL     1       2.188   7.813  19.128  0.00  0.00    +0.000 A 
ATOM      3  N   UNL     1       1.546   7.780  20.306  0.00  0.00    +0.000 N 
ATOM      4  N   UNL     1       1.741   6.585  20.846  0.00  0.00    +0.000 NA
ATOM      5  N   UNL     1       2.495   5.834  20.054  0.00  0.00    +0.000 NA
ENDROOT
BRANCH   1   8
ATOM      6  C   UNL     1       4.537   4.385  16.444  0.00  0.00    +0.000 A 
ATOM      7  C   UNL     1       3.748   4.799  17.512  0.00  0.00    +0.000 A 
ATOM      8  C   UNL     1       3.654   6.157  17.851  0.00  0.00    +0.000 A 
ATOM      9  C   UNL     1       4.371   7.096  17.095  0.00  0.00    +0.000 A 
ATOM     10  C   UNL     1       5.162   6.679  16.017  0.00  0.00    +0.000 A 
ATOM     11  C   UNL     1       5.254   5.316  15.680  0.00  0.00    +0.000 A 
BRANCH  11  12
ATOM     12  C   UNL     1       6.084   4.875  14.530  0.00  0.00    +0.000 C 
ATOM     13  N   UNL     1       5.713   3.966  13.710  0.00  0.00    +0.000 NA
ATOM     14  C   UNL     1       6.733   3.729  12.716  0.00  0.00    +0.000 C 
ATOM     15  C   UNL     1       7.819   4.776  13.014  0.00  0.00    +0.000 C 
ATOM     16  N   UNL     1       7.353   5.394  14.219  0.00  0.00    +0.000 N 
ATOM     17  H   UNL     1       7.852   6.145  14.714  0.00  0.00    +0.000 HD
ENDBRANCH  11  12
ENDBRANCH   1   8
BRANCH   3  18
ATOM     18  C   UNL     1       0.795   8.843  20.924  0.00  0.00    +0.000 A 
ATOM     19  C   UNL     1       0.529  10.045  20.240  0.00  0.00    +0.000 A 
ATOM     20  C   UNL     1      -0.199  11.066  20.858  0.00  0.00    +0.000 A 
ATOM     21  C   UNL     1      -0.671  10.914  22.172  0.00  0.00    +0.000 A 
ATOM     22  C   UNL     1      -0.398   9.715  22.854  0.00  0.00    +0.000 A 
ATOM     23  C   UNL     1       0.323   8.693  22.235  0.00  0.00    +0.000 A 
BRANCH  21  24
ATOM     24  C   UNL     1      -1.455  11.999  22.818  0.00  0.00    +0.000 C 
ATOM     25  N   UNL     1      -2.635  11.825  23.280  0.00  0.00    +0.000 NA
ATOM     26  C   UNL     1      -3.141  13.045  23.864  0.00  0.00    +0.000 C 
ATOM     27  C   UNL     1      -1.965  14.032  23.779  0.00  0.00    +0.000 C 
ATOM     28  N   UNL     1      -0.984  13.307  23.026  0.00  0.00    +0.000 N 
ATOM     29  H   UNL     1      -0.060  13.677  22.770  0.00  0.00    +0.000 HD
ENDBRANCH  21  24
ENDBRANCH   3  18
TORSDOF 4
ENDMDL
MODEL 7
REMARK VINA RESULT:      -8.3      0.435     10.899
REMARK  Name = 
REMARK  4 active torsions:
REMARK  status: ('A' for Active; 'I' for Inactive)
REMARK    1  A    between atoms: C_3  and  C_4
REMARK    2  A    between atoms: N_6  and  C_7
REMARK    3  A    between atoms: C_10  and  C_11
REMARK    4  A    between atoms: C_22  and  C_23
REMARK                            x       y       z     vdW  Elec       q    Type
REMARK                         _______ _______ _______ _____ _____    ______ ____
ROOT
ATOM      1  C   UNL     1       2.763   6.592  19.010  0.00  0.00    +0.000 A 
ATOM      2  C   UNL     1       2.153   7.817  19.170  0.00  0.00    +0.000 A 
ATOM      3  N   UNL     1       1.541   7.791  20.364  0.00  0.00    +0.000 N 
ATOM      4  N   UNL     1       1.758   6.601  20.909  0.00  0.00    +0.000 NA
ATOM      5  N   UNL     1       2.497   5.849  20.104  0.00  0.00    +0.000 NA
ENDROOT
BRANCH   1   8
ATOM      6  C   UNL     1       5.136   6.708  16.073  0.00  0.00    +0.000 A 
ATOM      7  C   UNL     1       4.329   7.104  17.134  0.00  0.00    +0.000 A 
ATOM      8  C   UNL     1       3.598   6.160  17.871  0.00  0.00    +0.000 A 
ATOM      9  C   UNL     1       3.692   4.805  17.519  0.00  0.00    +0.000 A 
ATOM     10  C   UNL     1       4.507   4.407  16.453  0.00  0.00    +0.000 A 
ATOM     11  C   UNL     1       5.240   5.356  15.717  0.00  0.00    +0.000 A 
BRANCH  11  12
ATOM     12  C   UNL     1       6.115   4.933  14.593  0.00  0.00    +0.000 C 
ATOM     13  N   UNL     1       5.795   4.009  13.770  0.00  0.00    +0.000 NA
ATOM     14  C   UNL     1       6.850   3.797  12.807  0.00  0.00    +0.000 C 
ATOM     15  C   UNL     1       7.895   4.879  13.128  0.00  0.00    +0.000 C 
ATOM     16  N   UNL     1       7.376   5.489  14.315  0.00  0.00    +0.000 N 
ATOM     17  H   UNL     1       7.838   6.259  14.819  0.00  0.00    +0.000 HD
ENDBRANCH  11  12
ENDBRANCH   1   8
BRANCH   3  18
ATOM     18  C   UNL     1       0.798   8.854  20.991  0.00  0.00    +0.000 A 
ATOM     19  C   UNL     1       0.551   8.855  22.378  0.00  0.00    +0.000 A 
ATOM     20  C   UNL     1      -0.176   9.894  22.967  0.00  0.00    +0.000 A 
ATOM     21  C   UNL     1      -0.677  10.949  22.186  0.00  0.00    +0.000 A 
ATOM     22  C   UNL     1      -0.433  10.941  20.802  0.00  0.00    +0.000 A 
ATOM     23  C   UNL     1       0.298   9.908  20.214  0.00  0.00    +0.000 A 
BRANCH  21  24
ATOM     24  C   UNL     1      -1.438  12.057  22.823  0.00  0.00    +0.000 C 
ATOM     25  N   UNL     1      -2.621  11.912  23.286  0.00  0.00    +0.000 NA
ATOM     26  C   UNL     1      -3.100  13.148  23.860  0.00  0.00    +0.000 C 
ATOM     27  C   UNL     1      -1.902  14.108  23.766  0.00  0.00    +0.000 C 
ATOM     28  N   UNL     1      -0.938  13.356  23.019  0.00  0.00    +0.000 N 
ATOM     29  H   UNL     1      -0.006  13.703  22.760  0.00  0.00    +0.000 HD
ENDBRANCH  21  24
ENDBRANCH   3  18
TORSDOF 4
ENDMDL
MODEL 8
REMARK VINA RESULT:      -8.3      0.149      1.196
REMARK  Name = 
REMARK  4 active torsions:
REMARK  status: ('A' for Active; 'I' for Inactive)
REMARK    1  A    between atoms: C_3  and  C_4
REMARK    2  A    between atoms: N_6  and  C_7
REMARK    3  A    between atoms: C_10  and  C_11
REMARK    4  A    between atoms: C_22  and  C_23
REMARK                            x       y       z     vdW  Elec       q    Type
REMARK                         _______ _______ _______ _____ _____    ______ ____
ROOT
ATOM      1  C   UNL     1       1.410   7.819  20.575  0.00  0.00    +0.000 A 
ATOM      2  C   UNL     1       2.167   7.913  19.427  0.00  0.00    +0.000 A 
ATOM      3  N   UNL     1       2.656   6.687  19.186  0.00  0.00    +0.000 N 
ATOM      4  N   UNL     1       2.226   5.878  20.146  0.00  0.00    +0.000 NA
ATOM      5  N   UNL     1       1.468   6.543  21.008  0.00  0.00    +0.000 NA
ENDROOT
BRANCH   1   8
ATOM      6  C   UNL     1      -0.626  10.969  21.028  0.00  0.00    +0.000 A 
ATOM      7  C   UNL     1       0.125   9.956  20.442  0.00  0.00    +0.000 A 
ATOM      8  C   UNL     1       0.633   8.900  21.214  0.00  0.00    +0.000 A 
ATOM      9  C   UNL     1       0.370   8.881  22.592  0.00  0.00    +0.000 A 
ATOM     10  C   UNL     1      -0.391   9.898  23.181  0.00  0.00    +0.000 A 
ATOM     11  C   UNL     1      -0.898  10.956  22.403  0.00  0.00    +0.000 A 
BRANCH  11  12
ATOM     12  C   UNL     1      -1.715  12.029  23.025  0.00  0.00    +0.000 C 
ATOM     13  N   UNL     1      -1.277  13.214  23.220  0.00  0.00    +0.000 NA
ATOM     14  C   UNL     1      -2.280  14.028  23.866  0.00  0.00    +0.000 C 
ATOM     15  C   UNL     1      -3.522  13.125  23.948  0.00  0.00    +0.000 C 
ATOM     16  N   UNL     1      -3.040  11.866  23.466  0.00  0.00    +0.000 N 
ATOM     17  H   UNL     1      -3.615  11.015  23.395  0.00  0.00    +0.000 HD
ENDBRANCH  11  12
ENDBRANCH   1   8
BRANCH   3  18
ATOM     18  C   UNL     1       3.478   6.274  18.077  0.00  0.00    +0.000 A 
ATOM     19  C   UNL     1       4.188   7.212  17.303  0.00  0.00    +0.000 A 
ATOM     20  C   UNL     1       4.978   6.792  16.229  0.00  0.00    +0.000 A 
ATOM     21  C   UNL     1       5.071   5.430  15.899  0.00  0.00    +0.000 A 
ATOM     22  C   UNL     1       4.356   4.497  16.671  0.00  0.00    +0.000 A 
ATOM     23  C   UNL     1       3.573   4.915  17.747  0.00  0.00    +0.000 A 
BRANCH  21  24
ATOM     24  C   UNL     1       5.923   4.990  14.763  0.00  0.00    +0.000 C 
ATOM     25  N   UNL     1       7.112   5.423  14.576  0.00  0.00    +0.000 NA
ATOM     26  C   UNL     1       7.703   4.809  13.411  0.00  0.00    +0.000 C 
ATOM     27  C   UNL     1       6.659   3.782  12.943  0.00  0.00    +0.000 C 
ATOM     28  N   UNL     1       5.542   4.036  13.804  0.00  0.00    +0.000 N 
ATOM     29  H   UNL     1       4.650   3.527  13.763  0.00  0.00    +0.000 HD
ENDBRANCH  21  24
ENDBRANCH   3  18
TORSDOF 4
ENDMDL
MODEL 9
REMARK VINA RESULT:      -8.3      0.156      1.053
REMARK  Name = 
REMARK  4 active torsions:
REMARK  status: ('A' for Active; 'I' for Inactive)
REMARK    1  A    between atoms: C_3  and  C_4
REMARK    2  A    between atoms: N_6  and  C_7
REMARK    3  A    between atoms: C_10  and  C_11
REMARK    4  A    between atoms: C_22  and  C_23
REMARK                            x       y       z     vdW  Elec       q    Type
REMARK                         _______ _______ _______ _____ _____    ______ ____
ROOT
ATOM      1  C   UNL     1       1.438   7.783  20.589  0.00  0.00    +0.000 A 
ATOM      2  C   UNL     1       2.152   7.855  19.412  0.00  0.00    +0.000 A 
ATOM      3  N   UNL     1       2.663   6.633  19.196  0.00  0.00    +0.000 N 
ATOM      4  N   UNL     1       2.289   5.849  20.198  0.00  0.00    +0.000 NA
ATOM      5  N   UNL     1       1.545   6.525  21.063  0.00  0.00    +0.000 NA
ENDROOT
BRANCH   1   8
ATOM      6  C   UNL     1      -0.435  11.031  21.054  0.00  0.00    +0.000 A 
ATOM      7  C   UNL     1       0.320  10.013  20.482  0.00  0.00    +0.000 A 
ATOM      8  C   UNL     1       0.656   8.867  21.217  0.00  0.00    +0.000 A 
ATOM      9  C   UNL     1       0.219   8.762  22.546  0.00  0.00    +0.000 A 
ATOM     10  C   UNL     1      -0.544   9.785  23.122  0.00  0.00    +0.000 A 
ATOM     11  C   UNL     1      -0.880  10.933  22.381  0.00  0.00    +0.000 A 
BRANCH  11  12
ATOM     12  C   UNL     1      -1.700  12.014  22.986  0.00  0.00    +0.000 C 
ATOM     13  N   UNL     1      -2.882  11.825  23.434  0.00  0.00    +0.000 NA
ATOM     14  C   UNL     1      -3.441  13.059  23.935  0.00  0.00    +0.000 C 
ATOM     15  C   UNL     1      -2.301  14.083  23.808  0.00  0.00    +0.000 C 
ATOM     16  N   UNL     1      -1.277  13.347  23.129  0.00  0.00    +0.000 N 
ATOM     17  H   UNL     1      -0.362  13.738  22.866  0.00  0.00    +0.000 HD
ENDBRANCH  11  12
ENDBRANCH   1   8
BRANCH   3  18
ATOM     18  C   UNL     1       3.457   6.201  18.074  0.00  0.00    +0.000 A 
ATOM     19  C   UNL     1       3.492   4.850  17.678  0.00  0.00    +0.000 A 
ATOM     20  C   UNL     1       4.271   4.451  16.588  0.00  0.00    +0.000 A 
ATOM     21  C   UNL     1       5.037   5.387  15.875  0.00  0.00    +0.000 A 
ATOM     22  C   UNL     1       5.004   6.735  16.276  0.00  0.00    +0.000 A 
ATOM     23  C   UNL     1       4.221   7.135  17.360  0.00  0.00    +0.000 A 
BRANCH  21  24
ATOM     24  C   UNL     1       5.853   4.957  14.709  0.00  0.00    +0.000 C 
ATOM     25  N   UNL     1       6.993   5.466  14.431  0.00  0.00    +0.000 NA
ATOM     26  C   UNL     1       7.560   4.841  13.259  0.00  0.00    +0.000 C 
ATOM     27  C   UNL     1       6.570   3.720  12.901  0.00  0.00    +0.000 C 
ATOM     28  N   UNL     1       5.489   3.933  13.816  0.00  0.00    +0.000 N 
ATOM     29  H   UNL     1       4.637   3.360  13.852  0.00  0.00    +0.000 HD
ENDBRANCH  21  24
ENDBRANCH   3  18
TORSDOF 4
ENDMDL
