MODEL 1
REMARK VINA RESULT:      -7.4      0.000      0.000
REMARK  Name = 
REMARK  13 active torsions:
REMARK  status: ('A' for Active; 'I' for Inactive)
REMARK    1  A    between atoms: C_1  and  O_2
REMARK    2  A    between atoms: O_2  and  C_3
REMARK    3  A    between atoms: C_6  and  O_7
REMARK    4  A    between atoms: O_7  and  C_8
REMARK    5  A    between atoms: C_9  and  N_10
REMARK    6  A    between atoms: C_16  and  N_17
REMARK    7  A    between atoms: N_17  and  C_18
REMARK    8  A    between atoms: C_18  and  C_19
REMARK    9  A    between atoms: C_19  and  C_20
REMARK   10  A    between atoms: C_20  and  N_21
REMARK   11  A    between atoms: C_26  and  C_28
REMARK   12  A    between atoms: C_28  and  C_29
REMARK   13  A    between atoms: C_28  and  C_30
REMARK                            x       y       z     vdW  Elec       q    Type
REMARK                         _______ _______ _______ _____ _____    ______ ____
ROOT
ATOM      1  N   UNL     1       2.390   6.928  18.773  0.00  0.00    +0.000 N 
ATOM      2  C   UNL     1       2.110   8.227  18.421  0.00  0.00    +0.000 C 
ATOM      3  O   UNL     1       2.347   8.757  17.342  0.00  0.00    +0.000 OA
ATOM      4  N   UNL     1       1.450   8.961  19.402  0.00  0.00    +0.000 N 
ATOM      5  C   UNL     1       1.069   8.595  20.754  0.00  0.00    +0.000 C 
ATOM      6  C   UNL     1      -0.173   9.435  20.997  0.00  0.00    +0.000 C 
ATOM      7  C   UNL     1       0.137  10.759  20.278  0.00  0.00    +0.000 C 
ATOM      8  C   UNL     1       1.133  10.368  19.165  0.00  0.00    +0.000 C 
ATOM      9  H   UNL     1       1.880   6.588  19.576  0.00  0.00    +0.000 HD
ENDROOT
BRANCH   1  14
ATOM     10  C   UNL     1       5.126   5.387  16.818  0.00  0.00    +0.000 A 
ATOM     11  C   UNL     1       4.672   4.090  16.611  0.00  0.00    +0.000 A 
ATOM     12  C   UNL     1       3.420   3.707  17.079  0.00  0.00    +0.000 A 
ATOM     13  C   UNL     1       2.589   4.605  17.765  0.00  0.00    +0.000 A 
ATOM     14  C   UNL     1       3.061   5.902  18.045  0.00  0.00    +0.000 A 
ATOM     15  C   UNL     1       4.324   6.284  17.529  0.00  0.00    +0.000 A 
BRANCH  10  17
ATOM     16  C   UNL     1       7.271   6.396  17.062  0.00  0.00    +0.000 C 
ATOM     17  O   UNL     1       6.357   5.643  16.280  0.00  0.00    +0.000 OA
ENDBRANCH  10  17
BRANCH  13  18
ATOM     18  O   UNL     1       1.327   4.269  18.156  0.00  0.00    +0.000 OA
ATOM     19  C   UNL     1       1.130   2.996  18.752  0.00  0.00    +0.000 C 
ENDBRANCH  13  18
ENDBRANCH   1  14
BRANCH   7  20
ATOM     20  N   UNL     1      -1.042  11.553  19.845  0.00  0.00    +0.000 N 
ATOM     21  C   UNL     1      -1.733  12.404  20.728  0.00  0.00    +0.000 C 
ATOM     22  O   UNL     1      -2.789  12.965  20.437  0.00  0.00    +0.000 OA
BRANCH  21  23
ATOM     23  C   UNL     1      -1.192  12.604  22.145  0.00  0.00    +0.000 C 
ATOM     24  C   UNL     1      -1.039  14.103  22.447  0.00  0.00    +0.000 C 
ATOM     25  C   UNL     1      -2.166  11.995  23.155  0.00  0.00    +0.000 C 
ENDBRANCH  21  23
BRANCH  20  26
ATOM     26  C   UNL     1      -1.546  11.337  18.453  0.00  0.00    +0.000 C 
BRANCH  26  27
ATOM     27  C   UNL     1      -2.682  10.328  18.254  0.00  0.00    +0.000 C 
BRANCH  27  28
ATOM     28  C   UNL     1      -3.864  10.811  17.398  0.00  0.00    +0.000 C 
BRANCH  28  29
ATOM     29  N   UNL     1      -4.634  11.825  18.146  0.00  0.00    +0.000 NA
ATOM     30  C   UNL     1      -5.452  11.262  19.227  0.00  0.00    +0.000 C 
ATOM     31  C   UNL     1      -6.758  10.883  18.559  0.00  0.00    +0.000 C 
ATOM     32  C   UNL     1      -6.962  11.979  17.529  0.00  0.00    +0.000 C 
ATOM     33  C   UNL     1      -5.581  12.578  17.305  0.00  0.00    +0.000 C 
ENDBRANCH  28  29
ENDBRANCH  27  28
ENDBRANCH  26  27
ENDBRANCH  20  26
ENDBRANCH   7  20
TORSDOF 9
ENDMDL
MODEL 2
REMARK VINA RESULT:      -7.2      0.797      2.441
REMARK  Name = 
REMARK  13 active torsions:
REMARK  status: ('A' for Active; 'I' for Inactive)
REMARK    1  A    between atoms: C_1  and  O_2
REMARK    2  A    between atoms: O_2  and  C_3
REMARK    3  A    between atoms: C_6  and  O_7
REMARK    4  A    between atoms: O_7  and  C_8
REMARK    5  A    between atoms: C_9  and  N_10
REMARK    6  A    between atoms: C_16  and  N_17
REMARK    7  A    between atoms: N_17  and  C_18
REMARK    8  A    between atoms: C_18  and  C_19
REMARK    9  A    between atoms: C_19  and  C_20
REMARK   10  A    between atoms: C_20  and  N_21
REMARK   11  A    between atoms: C_26  and  C_28
REMARK   12  A    between atoms: C_28  and  C_29
REMARK   13  A    between atoms: C_28  and  C_30
REMARK                            x       y       z     vdW  Elec       q    Type
REMARK                         _______ _______ _______ _____ _____    ______ ____
ROOT
ATOM      1  N   UNL     1       2.215   7.273  18.870  0.00  0.00    +0.000 N 
ATOM      2  C   UNL     1       1.886   8.513  18.375  0.00  0.00    +0.000 C 
ATOM      3  O   UNL     1       1.995   8.886  17.213  0.00  0.00    +0.000 OA
ATOM      4  N   UNL     1       1.333   9.379  19.313  0.00  0.00    +0.000 N 
ATOM      5  C   UNL     1       1.109   9.205  20.737  0.00  0.00    +0.000 C 
ATOM      6  C   UNL     1      -0.106  10.079  21.000  0.00  0.00    +0.000 C 
ATOM      7  C   UNL     1       0.108  11.288  20.074  0.00  0.00    +0.000 C 
ATOM      8  C   UNL     1       0.977  10.741  18.922  0.00  0.00    +0.000 C 
ATOM      9  H   UNL     1       1.801   7.050  19.764  0.00  0.00    +0.000 HD
ENDROOT
BRANCH   1  14
ATOM     10  C   UNL     1       2.496   3.766  17.727  0.00  0.00    +0.000 A 
ATOM     11  C   UNL     1       3.678   3.768  16.996  0.00  0.00    +0.000 A 
ATOM     12  C   UNL     1       4.438   4.928  16.901  0.00  0.00    +0.000 A 
ATOM     13  C   UNL     1       4.040   6.117  17.533  0.00  0.00    +0.000 A 
ATOM     14  C   UNL     1       2.811   6.152  18.219  0.00  0.00    +0.000 A 
ATOM     15  C   UNL     1       2.070   4.951  18.334  0.00  0.00    +0.000 A 
BRANCH  10  17
ATOM     16  C   UNL     1       0.803   2.399  18.697  0.00  0.00    +0.000 C 
ATOM     17  O   UNL     1       1.864   2.555  17.767  0.00  0.00    +0.000 OA
ENDBRANCH  10  17
BRANCH  13  18
ATOM     18  O   UNL     1       4.815   7.238  17.519  0.00  0.00    +0.000 OA
ATOM     19  C   UNL     1       6.194   7.092  17.218  0.00  0.00    +0.000 C 
ENDBRANCH  13  18
ENDBRANCH   1  14
BRANCH   7  20
ATOM     20  N   UNL     1      -1.119  12.022  19.671  0.00  0.00    +0.000 N 
ATOM     21  C   UNL     1      -1.753  12.941  20.527  0.00  0.00    +0.000 C 
ATOM     22  O   UNL     1      -2.842  13.458  20.276  0.00  0.00    +0.000 OA
BRANCH  21  23
ATOM     23  C   UNL     1      -1.102  13.280  21.870  0.00  0.00    +0.000 C 
ATOM     24  C   UNL     1      -0.974  14.803  22.027  0.00  0.00    +0.000 C 
ATOM     25  C   UNL     1      -1.968  12.739  23.008  0.00  0.00    +0.000 C 
ENDBRANCH  21  23
BRANCH  20  26
ATOM     26  C   UNL     1      -1.731  11.671  18.351  0.00  0.00    +0.000 C 
BRANCH  26  27
ATOM     27  C   UNL     1      -2.464  10.330  18.239  0.00  0.00    +0.000 C 
BRANCH  27  28
ATOM     28  C   UNL     1      -3.923  10.402  17.760  0.00  0.00    +0.000 C 
BRANCH  28  29
ATOM     29  N   UNL     1      -4.511  11.697  18.160  0.00  0.00    +0.000 NA
ATOM     30  C   UNL     1      -5.331  11.619  19.374  0.00  0.00    +0.000 C 
ATOM     31  C   UNL     1      -6.712  11.239  18.877  0.00  0.00    +0.000 C 
ATOM     32  C   UNL     1      -6.831  11.978  17.558  0.00  0.00    +0.000 C 
ATOM     33  C   UNL     1      -5.398  12.277  17.137  0.00  0.00    +0.000 C 
ENDBRANCH  28  29
ENDBRANCH  27  28
ENDBRANCH  26  27
ENDBRANCH  20  26
ENDBRANCH   7  20
TORSDOF 9
ENDMDL
MODEL 3
REMARK VINA RESULT:      -7.1      2.918     10.396
REMARK  Name = 
REMARK  13 active torsions:
REMARK  status: ('A' for Active; 'I' for Inactive)
REMARK    1  A    between atoms: C_1  and  O_2
REMARK    2  A    between atoms: O_2  and  C_3
REMARK    3  A    between atoms: C_6  and  O_7
REMARK    4  A    between atoms: O_7  and  C_8
REMARK    5  A    between atoms: C_9  and  N_10
REMARK    6  A    between atoms: C_16  and  N_17
REMARK    7  A    between atoms: N_17  and  C_18
REMARK    8  A    between atoms: C_18  and  C_19
REMARK    9  A    between atoms: C_19  and  C_20
REMARK   10  A    between atoms: C_20  and  N_21
REMARK   11  A    between atoms: C_26  and  C_28
REMARK   12  A    between atoms: C_28  and  C_29
REMARK   13  A    between atoms: C_28  and  C_30
REMARK                            x       y       z     vdW  Elec       q    Type
REMARK                         _______ _______ _______ _____ _____    ______ ____
ROOT
ATOM      1  N   UNL     1       1.237   8.854  19.371  0.00  0.00    +0.000 N 
ATOM      2  C   UNL     1       2.019   8.684  18.253  0.00  0.00    +0.000 C 
ATOM      3  O   UNL     1       2.127   9.463  17.314  0.00  0.00    +0.000 OA
ATOM      4  N   UNL     1       2.781   7.519  18.255  0.00  0.00    +0.000 N 
ATOM      5  C   UNL     1       2.833   6.431  19.214  0.00  0.00    +0.000 C 
ATOM      6  C   UNL     1       4.259   5.924  19.077  0.00  0.00    +0.000 C 
ATOM      7  C   UNL     1       4.552   6.062  17.574  0.00  0.00    +0.000 C 
ATOM      8  C   UNL     1       3.624   7.202  17.104  0.00  0.00    +0.000 C 
ATOM      9  H   UNL     1       1.484   8.265  20.155  0.00  0.00    +0.000 HD
ENDROOT
BRANCH   1  14
ATOM     10  C   UNL     1      -0.235  11.540  21.445  0.00  0.00    +0.000 A 
ATOM     11  C   UNL     1      -1.259  12.030  20.643  0.00  0.00    +0.000 A 
ATOM     12  C   UNL     1      -1.516  11.448  19.407  0.00  0.00    +0.000 A 
ATOM     13  C   UNL     1      -0.760  10.363  18.938  0.00  0.00    +0.000 A 
ATOM     14  C   UNL     1       0.326   9.899  19.706  0.00  0.00    +0.000 A 
ATOM     15  C   UNL     1       0.549  10.481  20.977  0.00  0.00    +0.000 A 
BRANCH  10  17
ATOM     16  C   UNL     1      -1.228  12.914  23.119  0.00  0.00    +0.000 C 
ATOM     17  O   UNL     1      -0.109  12.179  22.647  0.00  0.00    +0.000 OA
ENDBRANCH  10  17
BRANCH  13  18
ATOM     18  O   UNL     1      -1.052   9.729  17.767  0.00  0.00    +0.000 OA
ATOM     19  C   UNL     1      -2.064  10.287  16.942  0.00  0.00    +0.000 C 
ENDBRANCH  13  18
ENDBRANCH   1  14
BRANCH   7  20
ATOM     20  N   UNL     1       5.984   6.194  17.201  0.00  0.00    +0.000 N 
ATOM     21  C   UNL     1       6.528   5.533  16.084  0.00  0.00    +0.000 C 
ATOM     22  O   UNL     1       7.733   5.513  15.832  0.00  0.00    +0.000 OA
BRANCH  21  23
ATOM     23  C   UNL     1       5.599   4.742  15.161  0.00  0.00    +0.000 C 
ATOM     24  C   UNL     1       6.351   4.315  13.892  0.00  0.00    +0.000 C 
ATOM     25  C   UNL     1       5.104   3.490  15.886  0.00  0.00    +0.000 C 
ENDBRANCH  21  23
BRANCH  20  26
ATOM     26  C   UNL     1       6.868   6.976  18.122  0.00  0.00    +0.000 C 
BRANCH  26  27
ATOM     27  C   UNL     1       7.439   8.301  17.608  0.00  0.00    +0.000 C 
BRANCH  27  28
ATOM     28  C   UNL     1       8.720   8.792  18.302  0.00  0.00    +0.000 C 
BRANCH  28  29
ATOM     29  N   UNL     1       8.520  10.170  18.793  0.00  0.00    +0.000 NA
ATOM     30  C   UNL     1       8.780  11.198  17.779  0.00  0.00    +0.000 C 
ATOM     31  C   UNL     1      10.268  11.466  17.881  0.00  0.00    +0.000 C 
ATOM     32  C   UNL     1      10.551  11.340  19.367  0.00  0.00    +0.000 C 
ATOM     33  C   UNL     1       9.395  10.521  19.924  0.00  0.00    +0.000 C 
ENDBRANCH  28  29
ENDBRANCH  27  28
ENDBRANCH  26  27
ENDBRANCH  20  26
ENDBRANCH   7  20
TORSDOF 9
ENDMDL
MODEL 4
REMARK VINA RESULT:      -6.9      2.124      3.263
REMARK  Name = 
REMARK  13 active torsions:
REMARK  status: ('A' for Active; 'I' for Inactive)
REMARK    1  A    between atoms: C_1  and  O_2
REMARK    2  A    between atoms: O_2  and  C_3
REMARK    3  A    between atoms: C_6  and  O_7
REMARK    4  A    between atoms: O_7  and  C_8
REMARK    5  A    between atoms: C_9  and  N_10
REMARK    6  A    between atoms: C_16  and  N_17
REMARK    7  A    between atoms: N_17  and  C_18
REMARK    8  A    between atoms: C_18  and  C_19
REMARK    9  A    between atoms: C_19  and  C_20
REMARK   10  A    between atoms: C_20  and  N_21
REMARK   11  A    between atoms: C_26  and  C_28
REMARK   12  A    between atoms: C_28  and  C_29
REMARK   13  A    between atoms: C_28  and  C_30
REMARK                            x       y       z     vdW  Elec       q    Type
REMARK                         _______ _______ _______ _____ _____    ______ ____
ROOT
ATOM      1  N   UNL     1       2.371   6.729  19.184  0.00  0.00    +0.000 N 
ATOM      2  C   UNL     1       2.167   8.063  18.919  0.00  0.00    +0.000 C 
ATOM      3  O   UNL     1       2.515   8.668  17.912  0.00  0.00    +0.000 OA
ATOM      4  N   UNL     1       1.447   8.741  19.898  0.00  0.00    +0.000 N 
ATOM      5  C   UNL     1       0.936   8.283  21.177  0.00  0.00    +0.000 C 
ATOM      6  C   UNL     1      -0.294   9.150  21.383  0.00  0.00    +0.000 C 
ATOM      7  C   UNL     1       0.122  10.514  20.806  0.00  0.00    +0.000 C 
ATOM      8  C   UNL     1       1.198  10.174  19.754  0.00  0.00    +0.000 C 
ATOM      9  H   UNL     1       1.781   6.346  19.909  0.00  0.00    +0.000 HD
ENDROOT
BRANCH   1  14
ATOM     10  C   UNL     1       5.237   5.213  17.403  0.00  0.00    +0.000 A 
ATOM     11  C   UNL     1       4.742   3.977  17.007  0.00  0.00    +0.000 A 
ATOM     12  C   UNL     1       3.424   3.632  17.284  0.00  0.00    +0.000 A 
ATOM     13  C   UNL     1       2.565   4.510  17.962  0.00  0.00    +0.000 A 
ATOM     14  C   UNL     1       3.069   5.739  18.432  0.00  0.00    +0.000 A 
ATOM     15  C   UNL     1       4.404   6.086  18.109  0.00  0.00    +0.000 A 
BRANCH  10  17
ATOM     16  C   UNL     1       7.525   5.349  18.054  0.00  0.00    +0.000 C 
ATOM     17  O   UNL     1       6.536   5.440  17.041  0.00  0.00    +0.000 OA
ENDBRANCH  10  17
BRANCH  13  18
ATOM     18  O   UNL     1       1.249   4.222  18.167  0.00  0.00    +0.000 OA
ATOM     19  C   UNL     1       0.930   3.061  18.920  0.00  0.00    +0.000 C 
ENDBRANCH  13  18
ENDBRANCH   1  14
BRANCH   7  20
ATOM     20  N   UNL     1      -0.987  11.387  20.342  0.00  0.00    +0.000 N 
ATOM     21  C   UNL     1      -1.797  12.105  21.242  0.00  0.00    +0.000 C 
ATOM     22  O   UNL     1      -2.804  12.724  20.898  0.00  0.00    +0.000 OA
BRANCH  21  23
ATOM     23  C   UNL     1      -1.460  12.074  22.734  0.00  0.00    +0.000 C 
ATOM     24  C   UNL     1      -0.901  13.434  23.179  0.00  0.00    +0.000 C 
ATOM     25  C   UNL     1      -2.727  11.777  23.538  0.00  0.00    +0.000 C 
ENDBRANCH  21  23
BRANCH  20  26
ATOM     26  C   UNL     1      -1.291  11.398  18.877  0.00  0.00    +0.000 C 
BRANCH  26  27
ATOM     27  C   UNL     1      -1.011  12.689  18.100  0.00  0.00    +0.000 C 
BRANCH  27  28
ATOM     28  C   UNL     1       0.409  13.262  18.244  0.00  0.00    +0.000 C 
BRANCH  28  29
ATOM     29  N   UNL     1       0.446  14.215  19.372  0.00  0.00    +0.000 NA
ATOM     30  C   UNL     1      -0.656  15.183  19.359  0.00  0.00    +0.000 C 
ATOM     31  C   UNL     1      -0.155  16.319  18.490  0.00  0.00    +0.000 C 
ATOM     32  C   UNL     1       1.324  16.394  18.821  0.00  0.00    +0.000 C 
ATOM     33  C   UNL     1       1.671  15.032  19.407  0.00  0.00    +0.000 C 
ENDBRANCH  28  29
ENDBRANCH  27  28
ENDBRANCH  26  27
ENDBRANCH  20  26
ENDBRANCH   7  20
TORSDOF 9
ENDMDL
MODEL 5
REMARK VINA RESULT:      -6.9      2.221      4.410
REMARK  Name = 
REMARK  13 active torsions:
REMARK  status: ('A' for Active; 'I' for Inactive)
REMARK    1  A    between atoms: C_1  and  O_2
REMARK    2  A    between atoms: O_2  and  C_3
REMARK    3  A    between atoms: C_6  and  O_7
REMARK    4  A    between atoms: O_7  and  C_8
REMARK    5  A    between atoms: C_9  and  N_10
REMARK    6  A    between atoms: C_16  and  N_17
REMARK    7  A    between atoms: N_17  and  C_18
REMARK    8  A    between atoms: C_18  and  C_19
REMARK    9  A    between atoms: C_19  and  C_20
REMARK   10  A    between atoms: C_20  and  N_21
REMARK   11  A    between atoms: C_26  and  C_28
REMARK   12  A    between atoms: C_28  and  C_29
REMARK   13  A    between atoms: C_28  and  C_30
REMARK                            x       y       z     vdW  Elec       q    Type
REMARK                         _______ _______ _______ _____ _____    ______ ____
ROOT
ATOM      1  N   UNL     1       2.263   7.099  19.018  0.00  0.00    +0.000 N 
ATOM      2  C   UNL     1       2.004   8.392  18.630  0.00  0.00    +0.000 C 
ATOM      3  O   UNL     1       2.179   8.867  17.515  0.00  0.00    +0.000 OA
ATOM      4  N   UNL     1       1.445   9.190  19.624  0.00  0.00    +0.000 N 
ATOM      5  C   UNL     1       1.152   8.894  21.014  0.00  0.00    +0.000 C 
ATOM      6  C   UNL     1      -0.038   9.791  21.311  0.00  0.00    +0.000 C 
ATOM      7  C   UNL     1       0.264  11.071  20.513  0.00  0.00    +0.000 C 
ATOM      8  C   UNL     1       1.160  10.597  19.350  0.00  0.00    +0.000 C 
ATOM      9  H   UNL     1       1.802   6.811  19.870  0.00  0.00    +0.000 HD
ENDROOT
BRANCH   1  14
ATOM     10  C   UNL     1       2.519   3.663  17.671  0.00  0.00    +0.000 A 
ATOM     11  C   UNL     1       3.679   3.711  16.908  0.00  0.00    +0.000 A 
ATOM     12  C   UNL     1       4.433   4.878  16.857  0.00  0.00    +0.000 A 
ATOM     13  C   UNL     1       4.051   6.027  17.565  0.00  0.00    +0.000 A 
ATOM     14  C   UNL     1       2.842   6.018  18.288  0.00  0.00    +0.000 A 
ATOM     15  C   UNL     1       2.107   4.809  18.356  0.00  0.00    +0.000 A 
BRANCH  10  17
ATOM     16  C   UNL     1       0.932   2.198  18.677  0.00  0.00    +0.000 C 
ATOM     17  O   UNL     1       1.892   2.448  17.662  0.00  0.00    +0.000 OA
ENDBRANCH  10  17
BRANCH  13  18
ATOM     18  O   UNL     1       4.822   7.151  17.593  0.00  0.00    +0.000 OA
ATOM     19  C   UNL     1       6.186   7.032  17.218  0.00  0.00    +0.000 C 
ENDBRANCH  13  18
ENDBRANCH   1  14
BRANCH   7  20
ATOM     20  N   UNL     1      -0.915  11.892  20.133  0.00  0.00    +0.000 N 
ATOM     21  C   UNL     1      -1.788  12.433  21.095  0.00  0.00    +0.000 C 
ATOM     22  O   UNL     1      -2.844  12.997  20.807  0.00  0.00    +0.000 OA
BRANCH  21  23
ATOM     23  C   UNL     1      -1.456  12.267  22.579  0.00  0.00    +0.000 C 
ATOM     24  C   UNL     1      -0.869  13.571  23.140  0.00  0.00    +0.000 C 
ATOM     25  C   UNL     1      -2.732  11.928  23.353  0.00  0.00    +0.000 C 
ENDBRANCH  21  23
BRANCH  20  26
ATOM     26  C   UNL     1      -1.212  12.039  18.674  0.00  0.00    +0.000 C 
BRANCH  26  27
ATOM     27  C   UNL     1      -0.511  13.169  17.913  0.00  0.00    +0.000 C 
BRANCH  27  28
ATOM     28  C   UNL     1      -0.192  14.430  18.734  0.00  0.00    +0.000 C 
BRANCH  28  29
ATOM     29  N   UNL     1       1.168  14.320  19.301  0.00  0.00    +0.000 NA
ATOM     30  C   UNL     1       1.652  15.563  19.911  0.00  0.00    +0.000 C 
ATOM     31  C   UNL     1       2.281  16.330  18.766  0.00  0.00    +0.000 C 
ATOM     32  C   UNL     1       2.915  15.243  17.917  0.00  0.00    +0.000 C 
ATOM     33  C   UNL     1       2.190  13.961  18.304  0.00  0.00    +0.000 C 
ENDBRANCH  28  29
ENDBRANCH  27  28
ENDBRANCH  26  27
ENDBRANCH  20  26
ENDBRANCH   7  20
TORSDOF 9
ENDMDL
MODEL 6
REMARK VINA RESULT:      -6.8      1.106      1.316
REMARK  Name = 
REMARK  13 active torsions:
REMARK  status: ('A' for Active; 'I' for Inactive)
REMARK    1  A    between atoms: C_1  and  O_2
REMARK    2  A    between atoms: O_2  and  C_3
REMARK    3  A    between atoms: C_6  and  O_7
REMARK    4  A    between atoms: O_7  and  C_8
REMARK    5  A    between atoms: C_9  and  N_10
REMARK    6  A    between atoms: C_16  and  N_17
REMARK    7  A    between atoms: N_17  and  C_18
REMARK    8  A    between atoms: C_18  and  C_19
REMARK    9  A    between atoms: C_19  and  C_20
REMARK   10  A    between atoms: C_20  and  N_21
REMARK   11  A    between atoms: C_26  and  C_28
REMARK   12  A    between atoms: C_28  and  C_29
REMARK   13  A    between atoms: C_28  and  C_30
REMARK                            x       y       z     vdW  Elec       q    Type
REMARK                         _______ _______ _______ _____ _____    ______ ____
ROOT
ATOM      1  N   UNL     1       2.493   6.889  18.735  0.00  0.00    +0.000 N 
ATOM      2  C   UNL     1       2.215   8.184  18.371  0.00  0.00    +0.000 C 
ATOM      3  O   UNL     1       2.409   8.691  17.272  0.00  0.00    +0.000 OA
ATOM      4  N   UNL     1       1.610   8.945  19.367  0.00  0.00    +0.000 N 
ATOM      5  C   UNL     1       1.286   8.609  20.741  0.00  0.00    +0.000 C 
ATOM      6  C   UNL     1       0.067   9.471  21.025  0.00  0.00    +0.000 C 
ATOM      7  C   UNL     1       0.360  10.777  20.267  0.00  0.00    +0.000 C 
ATOM      8  C   UNL     1       1.299  10.351  19.118  0.00  0.00    +0.000 C 
ATOM      9  H   UNL     1       2.016   6.570  19.567  0.00  0.00    +0.000 HD
ENDROOT
BRANCH   1  14
ATOM     10  C   UNL     1       5.135   5.261  16.721  0.00  0.00    +0.000 A 
ATOM     11  C   UNL     1       4.641   3.976  16.534  0.00  0.00    +0.000 A 
ATOM     12  C   UNL     1       3.392   3.629  17.038  0.00  0.00    +0.000 A 
ATOM     13  C   UNL     1       2.604   4.554  17.739  0.00  0.00    +0.000 A 
ATOM     14  C   UNL     1       3.118   5.840  17.997  0.00  0.00    +0.000 A 
ATOM     15  C   UNL     1       4.376   6.184  17.445  0.00  0.00    +0.000 A 
BRANCH  10  17
ATOM     16  C   UNL     1       6.769   4.592  15.121  0.00  0.00    +0.000 C 
ATOM     17  O   UNL     1       6.357   5.481  16.148  0.00  0.00    +0.000 OA
ENDBRANCH  10  17
BRANCH  13  18
ATOM     18  O   UNL     1       1.344   4.255  18.165  0.00  0.00    +0.000 OA
ATOM     19  C   UNL     1       1.205   3.370  19.266  0.00  0.00    +0.000 C 
ENDBRANCH  13  18
ENDBRANCH   1  14
BRANCH   7  20
ATOM     20  N   UNL     1      -0.827  11.579  19.873  0.00  0.00    +0.000 N 
ATOM     21  C   UNL     1      -0.886  12.970  20.072  0.00  0.00    +0.000 C 
ATOM     22  O   UNL     1      -1.904  13.637  19.884  0.00  0.00    +0.000 OA
BRANCH  21  23
ATOM     23  C   UNL     1       0.348  13.699  20.608  0.00  0.00    +0.000 C 
ATOM     24  C   UNL     1       0.954  14.591  19.514  0.00  0.00    +0.000 C 
ATOM     25  C   UNL     1      -0.053  14.578  21.795  0.00  0.00    +0.000 C 
ENDBRANCH  21  23
BRANCH  20  26
ATOM     26  C   UNL     1      -2.017  10.838  19.350  0.00  0.00    +0.000 C 
BRANCH  26  27
ATOM     27  C   UNL     1      -2.377  11.020  17.871  0.00  0.00    +0.000 C 
BRANCH  27  28
ATOM     28  C   UNL     1      -3.742  11.669  17.589  0.00  0.00    +0.000 C 
BRANCH  28  29
ATOM     29  N   UNL     1      -4.647  11.433  18.733  0.00  0.00    +0.000 NA
ATOM     30  C   UNL     1      -5.845  10.662  18.383  0.00  0.00    +0.000 C 
ATOM     31  C   UNL     1      -6.843  11.701  17.913  0.00  0.00    +0.000 C 
ATOM     32  C   UNL     1      -6.568  12.891  18.814  0.00  0.00    +0.000 C 
ATOM     33  C   UNL     1      -5.156  12.674  19.341  0.00  0.00    +0.000 C 
ENDBRANCH  28  29
ENDBRANCH  27  28
ENDBRANCH  26  27
ENDBRANCH  20  26
ENDBRANCH   7  20
TORSDOF 9
ENDMDL
MODEL 7
REMARK VINA RESULT:      -6.7      1.488      1.819
REMARK  Name = 
REMARK  13 active torsions:
REMARK  status: ('A' for Active; 'I' for Inactive)
REMARK    1  A    between atoms: C_1  and  O_2
REMARK    2  A    between atoms: O_2  and  C_3
REMARK    3  A    between atoms: C_6  and  O_7
REMARK    4  A    between atoms: O_7  and  C_8
REMARK    5  A    between atoms: C_9  and  N_10
REMARK    6  A    between atoms: C_16  and  N_17
REMARK    7  A    between atoms: N_17  and  C_18
REMARK    8  A    between atoms: C_18  and  C_19
REMARK    9  A    between atoms: C_19  and  C_20
REMARK   10  A    between atoms: C_20  and  N_21
REMARK   11  A    between atoms: C_26  and  C_28
REMARK   12  A    between atoms: C_28  and  C_29
REMARK   13  A    between atoms: C_28  and  C_30
REMARK                            x       y       z     vdW  Elec       q    Type
REMARK                         _______ _______ _______ _____ _____    ______ ____
ROOT
ATOM      1  N   UNL     1       2.113   6.553  20.248  0.00  0.00    +0.000 N 
ATOM      2  C   UNL     1       2.046   7.836  19.759  0.00  0.00    +0.000 C 
ATOM      3  O   UNL     1       2.447   8.221  18.667  0.00  0.00    +0.000 OA
ATOM      4  N   UNL     1       1.410   8.741  20.602  0.00  0.00    +0.000 N 
ATOM      5  C   UNL     1       0.866   8.562  21.936  0.00  0.00    +0.000 C 
ATOM      6  C   UNL     1      -0.265   9.576  21.981  0.00  0.00    +0.000 C 
ATOM      7  C   UNL     1       0.285  10.771  21.185  0.00  0.00    +0.000 C 
ATOM      8  C   UNL     1       1.311  10.147  20.215  0.00  0.00    +0.000 C 
ATOM      9  H   UNL     1       1.492   6.362  21.022  0.00  0.00    +0.000 HD
ENDROOT
BRANCH   1  14
ATOM     10  C   UNL     1       4.477   4.599  18.180  0.00  0.00    +0.000 A 
ATOM     11  C   UNL     1       4.111   3.285  18.441  0.00  0.00    +0.000 A 
ATOM     12  C   UNL     1       3.036   3.014  19.279  0.00  0.00    +0.000 A 
ATOM     13  C   UNL     1       2.298   4.046  19.879  0.00  0.00    +0.000 A 
ATOM     14  C   UNL     1       2.698   5.382  19.681  0.00  0.00    +0.000 A 
ATOM     15  C   UNL     1       3.773   5.638  18.795  0.00  0.00    +0.000 A 
BRANCH  10  17
ATOM     16  C   UNL     1       6.837   4.695  17.861  0.00  0.00    +0.000 C 
ATOM     17  O   UNL     1       5.528   4.727  17.314  0.00  0.00    +0.000 OA
ENDBRANCH  10  17
BRANCH  13  18
ATOM     18  O   UNL     1       1.191   3.799  20.636  0.00  0.00    +0.000 OA
ATOM     19  C   UNL     1       1.272   2.783  21.624  0.00  0.00    +0.000 C 
ENDBRANCH  13  18
ENDBRANCH   1  14
BRANCH   7  20
ATOM     20  N   UNL     1      -0.732  11.664  20.570  0.00  0.00    +0.000 N 
ATOM     21  C   UNL     1      -1.646  12.399  21.347  0.00  0.00    +0.000 C 
ATOM     22  O   UNL     1      -2.583  13.036  20.864  0.00  0.00    +0.000 OA
BRANCH  21  23
ATOM     23  C   UNL     1      -1.522  12.366  22.872  0.00  0.00    +0.000 C 
ATOM     24  C   UNL     1      -1.133  13.755  23.401  0.00  0.00    +0.000 C 
ATOM     25  C   UNL     1      -2.865  11.964  23.484  0.00  0.00    +0.000 C 
ENDBRANCH  21  23
BRANCH  20  26
ATOM     26  C   UNL     1      -0.826  11.676  19.076  0.00  0.00    +0.000 C 
BRANCH  26  27
ATOM     27  C   UNL     1      -1.660  10.579  18.406  0.00  0.00    +0.000 C 
BRANCH  27  28
ATOM     28  C   UNL     1      -2.071  10.848  16.948  0.00  0.00    +0.000 C 
BRANCH  28  29
ATOM     29  N   UNL     1      -3.364  10.191  16.670  0.00  0.00    +0.000 NA
ATOM     30  C   UNL     1      -4.271  11.002  15.851  0.00  0.00    +0.000 C 
ATOM     31  C   UNL     1      -5.018  11.864  16.849  0.00  0.00    +0.000 C 
ATOM     32  C   UNL     1      -5.196  10.948  18.046  0.00  0.00    +0.000 C 
ATOM     33  C   UNL     1      -4.131   9.872  17.886  0.00  0.00    +0.000 C 
ENDBRANCH  28  29
ENDBRANCH  27  28
ENDBRANCH  26  27
ENDBRANCH  20  26
ENDBRANCH   7  20
TORSDOF 9
ENDMDL
MODEL 8
REMARK VINA RESULT:      -6.7      1.263      2.728
REMARK  Name = 
REMARK  13 active torsions:
REMARK  status: ('A' for Active; 'I' for Inactive)
REMARK    1  A    between atoms: C_1  and  O_2
REMARK    2  A    between atoms: O_2  and  C_3
REMARK    3  A    between atoms: C_6  and  O_7
REMARK    4  A    between atoms: O_7  and  C_8
REMARK    5  A    between atoms: C_9  and  N_10
REMARK    6  A    between atoms: C_16  and  N_17
REMARK    7  A    between atoms: N_17  and  C_18
REMARK    8  A    between atoms: C_18  and  C_19
REMARK    9  A    between atoms: C_19  and  C_20
REMARK   10  A    between atoms: C_20  and  N_21
REMARK   11  A    between atoms: C_26  and  C_28
REMARK   12  A    between atoms: C_28  and  C_29
REMARK   13  A    between atoms: C_28  and  C_30
REMARK                            x       y       z     vdW  Elec       q    Type
REMARK                         _______ _______ _______ _____ _____    ______ ____
ROOT
ATOM      1  N   UNL     1       2.350   7.185  18.921  0.00  0.00    +0.000 N 
ATOM      2  C   UNL     1       2.080   8.455  18.472  0.00  0.00    +0.000 C 
ATOM      3  O   UNL     1       2.200   8.864  17.324  0.00  0.00    +0.000 OA
ATOM      4  N   UNL     1       1.577   9.315  19.445  0.00  0.00    +0.000 N 
ATOM      5  C   UNL     1       1.354   9.103  20.863  0.00  0.00    +0.000 C 
ATOM      6  C   UNL     1       0.187  10.026  21.167  0.00  0.00    +0.000 C 
ATOM      7  C   UNL     1       0.455  11.255  20.282  0.00  0.00    +0.000 C 
ATOM      8  C   UNL     1       1.288  10.706  19.104  0.00  0.00    +0.000 C 
ATOM      9  H   UNL     1       1.931   6.951  19.811  0.00  0.00    +0.000 HD
ENDROOT
BRANCH   1  14
ATOM     10  C   UNL     1       2.440   3.715  17.641  0.00  0.00    +0.000 A 
ATOM     11  C   UNL     1       3.621   3.680  16.911  0.00  0.00    +0.000 A 
ATOM     12  C   UNL     1       4.444   4.800  16.862  0.00  0.00    +0.000 A 
ATOM     13  C   UNL     1       4.111   5.983  17.539  0.00  0.00    +0.000 A 
ATOM     14  C   UNL     1       2.884   6.058  18.227  0.00  0.00    +0.000 A 
ATOM     15  C   UNL     1       2.078   4.896  18.295  0.00  0.00    +0.000 A 
BRANCH  10  17
ATOM     16  C   UNL     1       0.918   2.259  18.756  0.00  0.00    +0.000 C 
ATOM     17  O   UNL     1       1.742   2.539  17.635  0.00  0.00    +0.000 OA
ENDBRANCH  10  17
BRANCH  13  18
ATOM     18  O   UNL     1       4.946   7.059  17.570  0.00  0.00    +0.000 OA
ATOM     19  C   UNL     1       6.289   6.874  17.148  0.00  0.00    +0.000 C 
ENDBRANCH  13  18
ENDBRANCH   1  14
BRANCH   7  20
ATOM     20  N   UNL     1      -0.736  12.063  19.915  0.00  0.00    +0.000 N 
ATOM     21  C   UNL     1      -0.729  13.469  19.968  0.00  0.00    +0.000 C 
ATOM     22  O   UNL     1      -1.737  14.157  19.804  0.00  0.00    +0.000 OA
BRANCH  21  23
ATOM     23  C   UNL     1       0.575  14.195  20.308  0.00  0.00    +0.000 C 
ATOM     24  C   UNL     1       0.845  15.306  19.282  0.00  0.00    +0.000 C 
ATOM     25  C   UNL     1       0.462  14.824  21.698  0.00  0.00    +0.000 C 
ENDBRANCH  21  23
BRANCH  20  26
ATOM     26  C   UNL     1      -1.996  11.325  19.585  0.00  0.00    +0.000 C 
BRANCH  26  27
ATOM     27  C   UNL     1      -2.414  11.252  18.113  0.00  0.00    +0.000 C 
BRANCH  27  28
ATOM     28  C   UNL     1      -3.903  10.965  17.854  0.00  0.00    +0.000 C 
BRANCH  28  29
ATOM     29  N   UNL     1      -4.702  12.162  18.186  0.00  0.00    +0.000 NA
ATOM     30  C   UNL     1      -5.328  12.099  19.512  0.00  0.00    +0.000 C 
ATOM     31  C   UNL     1      -6.645  11.386  19.278  0.00  0.00    +0.000 C 
ATOM     32  C   UNL     1      -7.084  11.889  17.915  0.00  0.00    +0.000 C 
ATOM     33  C   UNL     1      -5.813  12.401  17.251  0.00  0.00    +0.000 C 
ENDBRANCH  28  29
ENDBRANCH  27  28
ENDBRANCH  26  27
ENDBRANCH  20  26
ENDBRANCH   7  20
TORSDOF 9
ENDMDL
MODEL 9
REMARK VINA RESULT:      -6.7      2.786      9.620
REMARK  Name = 
REMARK  13 active torsions:
REMARK  status: ('A' for Active; 'I' for Inactive)
REMARK    1  A    between atoms: C_1  and  O_2
REMARK    2  A    between atoms: O_2  and  C_3
REMARK    3  A    between atoms: C_6  and  O_7
REMARK    4  A    between atoms: O_7  and  C_8
REMARK    5  A    between atoms: C_9  and  N_10
REMARK    6  A    between atoms: C_16  and  N_17
REMARK    7  A    between atoms: N_17  and  C_18
REMARK    8  A    between atoms: C_18  and  C_19
REMARK    9  A    between atoms: C_19  and  C_20
REMARK   10  A    between atoms: C_20  and  N_21
REMARK   11  A    between atoms: C_26  and  C_28
REMARK   12  A    between atoms: C_28  and  C_29
REMARK   13  A    between atoms: C_28  and  C_30
REMARK                            x       y       z     vdW  Elec       q    Type
REMARK                         _______ _______ _______ _____ _____    ______ ____
ROOT
ATOM      1  N   UNL     1       1.121  10.025  19.296  0.00  0.00    +0.000 N 
ATOM      2  C   UNL     1       1.815   9.132  18.515  0.00  0.00    +0.000 C 
ATOM      3  O   UNL     1       2.360   9.369  17.444  0.00  0.00    +0.000 OA
ATOM      4  N   UNL     1       1.922   7.855  19.058  0.00  0.00    +0.000 N 
ATOM      5  C   UNL     1       1.367   7.302  20.279  0.00  0.00    +0.000 C 
ATOM      6  C   UNL     1       2.381   6.239  20.665  0.00  0.00    +0.000 C 
ATOM      7  C   UNL     1       2.827   5.654  19.314  0.00  0.00    +0.000 C 
ATOM      8  C   UNL     1       2.601   6.801  18.306  0.00  0.00    +0.000 C 
ATOM      9  H   UNL     1       0.990   9.737  20.255  0.00  0.00    +0.000 HD
ENDROOT
BRANCH   1  14
ATOM     10  C   UNL     1       1.740  13.663  19.038  0.00  0.00    +0.000 A 
ATOM     11  C   UNL     1       0.512  14.162  18.620  0.00  0.00    +0.000 A 
ATOM     12  C   UNL     1      -0.569  13.304  18.454  0.00  0.00    +0.000 A 
ATOM     13  C   UNL     1      -0.455  11.927  18.702  0.00  0.00    +0.000 A 
ATOM     14  C   UNL     1       0.799  11.395  19.060  0.00  0.00    +0.000 A 
ATOM     15  C   UNL     1       1.878  12.290  19.258  0.00  0.00    +0.000 A 
BRANCH  10  17
ATOM     16  C   UNL     1       3.809  14.583  18.298  0.00  0.00    +0.000 C 
ATOM     17  O   UNL     1       2.708  14.616  19.193  0.00  0.00    +0.000 OA
ENDBRANCH  10  17
BRANCH  13  18
ATOM     18  O   UNL     1      -1.526  11.087  18.626  0.00  0.00    +0.000 OA
ATOM     19  C   UNL     1      -2.716  11.576  18.026  0.00  0.00    +0.000 C 
ENDBRANCH  13  18
ENDBRANCH   1  14
BRANCH   7  20
ATOM     20  N   UNL     1       4.172   5.025  19.292  0.00  0.00    +0.000 N 
ATOM     21  C   UNL     1       4.341   3.628  19.251  0.00  0.00    +0.000 C 
ATOM     22  O   UNL     1       5.436   3.077  19.370  0.00  0.00    +0.000 OA
BRANCH  21  23
ATOM     23  C   UNL     1       3.108   2.733  19.114  0.00  0.00    +0.000 C 
ATOM     24  C   UNL     1       3.469   1.447  18.355  0.00  0.00    +0.000 C 
ATOM     25  C   UNL     1       2.595   2.356  20.505  0.00  0.00    +0.000 C 
ENDBRANCH  21  23
BRANCH  20  26
ATOM     26  C   UNL     1       5.359   5.927  19.424  0.00  0.00    +0.000 C 
BRANCH  26  27
ATOM     27  C   UNL     1       6.428   5.864  18.328  0.00  0.00    +0.000 C 
BRANCH  27  28
ATOM     28  C   UNL     1       6.124   6.662  17.049  0.00  0.00    +0.000 C 
BRANCH  28  29
ATOM     29  N   UNL     1       6.591   5.904  15.871  0.00  0.00    +0.000 NA
ATOM     30  C   UNL     1       5.543   5.670  14.871  0.00  0.00    +0.000 C 
ATOM     31  C   UNL     1       4.865   4.392  15.321  0.00  0.00    +0.000 C 
ATOM     32  C   UNL     1       6.006   3.563  15.882  0.00  0.00    +0.000 C 
ATOM     33  C   UNL     1       7.106   4.565  16.203  0.00  0.00    +0.000 C 
ENDBRANCH  28  29
ENDBRANCH  27  28
ENDBRANCH  26  27
ENDBRANCH  20  26
ENDBRANCH   7  20
TORSDOF 9
ENDMDL
