MODEL 1
REMARK VINA RESULT:      -8.1      0.000      0.000
REMARK  Name = 
REMARK  8 active torsions:
REMARK  status: ('A' for Active; 'I' for Inactive)
REMARK    1  A    between atoms: C_1  and  O_2
REMARK    2  A    between atoms: O_2  and  C_3
REMARK    3  A    between atoms: C_6  and  C_7
REMARK    4  A    between atoms: N_9  and  C_10
REMARK    5  A    between atoms: N_9  and  C_11
REMARK    6  A    between atoms: C_15  and  C_16
REMARK    7  A    between atoms: C_19  and  C_20
REMARK    8  A    between atoms: C_20  and  O_21
REMARK                            x       y       z     vdW  Elec       q    Type
REMARK                         _______ _______ _______ _____ _____    ______ ____
ROOT
ATOM      1  C   UNL     1       3.135   4.481  18.724  0.00  0.00    +0.000 A 
ATOM      2  C   UNL     1       2.765   3.777  19.872  0.00  0.00    +0.000 A 
ATOM      3  C   UNL     1       2.189   4.470  20.930  0.00  0.00    +0.000 A 
ATOM      4  C   UNL     1       1.934   5.843  20.814  0.00  0.00    +0.000 A 
ATOM      5  C   UNL     1       2.240   6.556  19.637  0.00  0.00    +0.000 A 
ATOM      6  C   UNL     1       2.871   5.850  18.606  0.00  0.00    +0.000 A 
ENDROOT
BRANCH   5   7
ATOM      7  C   UNL     1       1.841   7.967  19.454  0.00  0.00    +0.000 A 
ATOM      8  C   UNL     1       2.017   8.649  18.237  0.00  0.00    +0.000 A 
ATOM      9  C   UNL     1       1.548   9.961  18.062  0.00  0.00    +0.000 A 
ATOM     10  C   UNL     1       0.889  10.624  19.104  0.00  0.00    +0.000 A 
ATOM     11  C   UNL     1       0.752   9.973  20.331  0.00  0.00    +0.000 A 
ATOM     12  C   UNL     1       1.204   8.664  20.494  0.00  0.00    +0.000 A 
BRANCH  10  13
ATOM     13  C   UNL     1       0.408  12.039  18.913  0.00  0.00    +0.000 C 
BRANCH  13  14
ATOM     14  O   UNL     1       1.250  12.763  18.025  0.00  0.00    +0.000 OA
ATOM     15  H   UNL     1       1.644  12.112  17.419  0.00  0.00    +0.000 HD
ENDBRANCH  13  14
ENDBRANCH  10  13
ENDBRANCH   5   7
BRANCH   1  18
ATOM     16  C   UNL     1       4.991   4.062  17.083  0.00  0.00    +0.000 C 
ATOM     17  O   UNL     1       5.374   3.395  16.119  0.00  0.00    +0.000 OA
ATOM     18  N   UNL     1       3.718   3.824  17.630  0.00  0.00    +0.000 N 
ATOM     19  C   UNL     1       2.864   2.785  17.052  0.00  0.00    +0.000 C 
BRANCH  16  23
ATOM     20  C   UNL     1       7.821   7.136  18.343  0.00  0.00    +0.000 A 
ATOM     21  C   UNL     1       6.993   7.307  17.236  0.00  0.00    +0.000 A 
ATOM     22  C   UNL     1       6.075   6.307  16.869  0.00  0.00    +0.000 A 
ATOM     23  C   UNL     1       5.958   5.111  17.601  0.00  0.00    +0.000 A 
ATOM     24  C   UNL     1       6.771   4.996  18.732  0.00  0.00    +0.000 A 
ATOM     25  C   UNL     1       7.715   5.968  19.079  0.00  0.00    +0.000 A 
BRANCH  20  27
ATOM     26  C   UNL     1       8.345   9.428  18.076  0.00  0.00    +0.000 C 
ATOM     27  O   UNL     1       8.698   8.150  18.615  0.00  0.00    +0.000 OA
ENDBRANCH  20  27
ENDBRANCH  16  23
ENDBRANCH   1  18
TORSDOF 6
ENDMDL
MODEL 2
REMARK VINA RESULT:      -8.0      0.493      1.045
REMARK  Name = 
REMARK  8 active torsions:
REMARK  status: ('A' for Active; 'I' for Inactive)
REMARK    1  A    between atoms: C_1  and  O_2
REMARK    2  A    between atoms: O_2  and  C_3
REMARK    3  A    between atoms: C_6  and  C_7
REMARK    4  A    between atoms: N_9  and  C_10
REMARK    5  A    between atoms: N_9  and  C_11
REMARK    6  A    between atoms: C_15  and  C_16
REMARK    7  A    between atoms: C_19  and  C_20
REMARK    8  A    between atoms: C_20  and  O_21
REMARK                            x       y       z     vdW  Elec       q    Type
REMARK                         _______ _______ _______ _____ _____    ______ ____
ROOT
ATOM      1  C   UNL     1       3.275   4.209  18.673  0.00  0.00    +0.000 A 
ATOM      2  C   UNL     1       2.983   3.496  19.838  0.00  0.00    +0.000 A 
ATOM      3  C   UNL     1       2.470   4.180  20.935  0.00  0.00    +0.000 A 
ATOM      4  C   UNL     1       2.200   5.552  20.842  0.00  0.00    +0.000 A 
ATOM      5  C   UNL     1       2.426   6.273  19.652  0.00  0.00    +0.000 A 
ATOM      6  C   UNL     1       2.996   5.576  18.580  0.00  0.00    +0.000 A 
ENDROOT
BRANCH   5   7
ATOM      7  C   UNL     1       2.007   7.682  19.502  0.00  0.00    +0.000 A 
ATOM      8  C   UNL     1       2.137   8.383  18.290  0.00  0.00    +0.000 A 
ATOM      9  C   UNL     1       1.650   9.692  18.149  0.00  0.00    +0.000 A 
ATOM     10  C   UNL     1       1.017  10.334  19.221  0.00  0.00    +0.000 A 
ATOM     11  C   UNL     1       0.927   9.664  20.442  0.00  0.00    +0.000 A 
ATOM     12  C   UNL     1       1.397   8.358  20.571  0.00  0.00    +0.000 A 
BRANCH  10  13
ATOM     13  C   UNL     1       0.516  11.746  19.066  0.00  0.00    +0.000 C 
BRANCH  13  14
ATOM     14  O   UNL     1      -0.317  11.883  17.921  0.00  0.00    +0.000 OA
ATOM     15  H   UNL     1       0.021  11.263  17.253  0.00  0.00    +0.000 HD
ENDBRANCH  13  14
ENDBRANCH  10  13
ENDBRANCH   5   7
BRANCH   1  18
ATOM     16  C   UNL     1       4.970   3.887  16.847  0.00  0.00    +0.000 C 
ATOM     17  O   UNL     1       5.306   3.217  15.867  0.00  0.00    +0.000 OA
ATOM     18  N   UNL     1       3.792   3.561  17.542  0.00  0.00    +0.000 N 
ATOM     19  C   UNL     1       2.979   2.429  17.095  0.00  0.00    +0.000 C 
BRANCH  16  23
ATOM     20  C   UNL     1       7.615   7.107  18.147  0.00  0.00    +0.000 A 
ATOM     21  C   UNL     1       7.741   5.808  18.634  0.00  0.00    +0.000 A 
ATOM     22  C   UNL     1       6.889   4.787  18.178  0.00  0.00    +0.000 A 
ATOM     23  C   UNL     1       5.888   5.037  17.220  0.00  0.00    +0.000 A 
ATOM     24  C   UNL     1       5.823   6.340  16.720  0.00  0.00    +0.000 A 
ATOM     25  C   UNL     1       6.640   7.369  17.199  0.00  0.00    +0.000 A 
BRANCH  20  27
ATOM     26  C   UNL     1       8.363   9.351  18.095  0.00  0.00    +0.000 C 
ATOM     27  O   UNL     1       8.472   8.041  18.661  0.00  0.00    +0.000 OA
ENDBRANCH  20  27
ENDBRANCH  16  23
ENDBRANCH   1  18
TORSDOF 6
ENDMDL
MODEL 3
REMARK VINA RESULT:      -7.8      2.247      3.508
REMARK  Name = 
REMARK  8 active torsions:
REMARK  status: ('A' for Active; 'I' for Inactive)
REMARK    1  A    between atoms: C_1  and  O_2
REMARK    2  A    between atoms: O_2  and  C_3
REMARK    3  A    between atoms: C_6  and  C_7
REMARK    4  A    between atoms: N_9  and  C_10
REMARK    5  A    between atoms: N_9  and  C_11
REMARK    6  A    between atoms: C_15  and  C_16
REMARK    7  A    between atoms: C_19  and  C_20
REMARK    8  A    between atoms: C_20  and  O_21
REMARK                            x       y       z     vdW  Elec       q    Type
REMARK                         _______ _______ _______ _____ _____    ______ ____
ROOT
ATOM      1  C   UNL     1       2.807   5.996  19.365  0.00  0.00    +0.000 A 
ATOM      2  C   UNL     1       3.347   6.440  18.157  0.00  0.00    +0.000 A 
ATOM      3  C   UNL     1       2.997   7.701  17.686  0.00  0.00    +0.000 A 
ATOM      4  C   UNL     1       2.161   8.527  18.449  0.00  0.00    +0.000 A 
ATOM      5  C   UNL     1       1.661   8.120  19.702  0.00  0.00    +0.000 A 
ATOM      6  C   UNL     1       1.981   6.826  20.130  0.00  0.00    +0.000 A 
ENDROOT
BRANCH   5   7
ATOM      7  C   UNL     1       0.901   9.040  20.575  0.00  0.00    +0.000 A 
ATOM      8  C   UNL     1       0.150  10.114  20.066  0.00  0.00    +0.000 A 
ATOM      9  C   UNL     1      -0.635  10.918  20.908  0.00  0.00    +0.000 A 
ATOM     10  C   UNL     1      -0.687  10.667  22.284  0.00  0.00    +0.000 A 
ATOM     11  C   UNL     1       0.094   9.633  22.805  0.00  0.00    +0.000 A 
ATOM     12  C   UNL     1       0.857   8.826  21.962  0.00  0.00    +0.000 A 
BRANCH  10  13
ATOM     13  C   UNL     1      -1.515  11.548  23.182  0.00  0.00    +0.000 C 
BRANCH  13  14
ATOM     14  O   UNL     1      -0.957  12.851  23.296  0.00  0.00    +0.000 OA
ATOM     15  H   UNL     1      -0.800  13.007  24.243  0.00  0.00    +0.000 HD
ENDBRANCH  13  14
ENDBRANCH  10  13
ENDBRANCH   5   7
BRANCH   1  18
ATOM     16  C   UNL     1       4.110   3.848  19.391  0.00  0.00    +0.000 C 
ATOM     17  O   UNL     1       4.292   2.767  19.957  0.00  0.00    +0.000 OA
ATOM     18  N   UNL     1       3.133   4.733  19.881  0.00  0.00    +0.000 N 
ATOM     19  C   UNL     1       2.347   4.363  21.059  0.00  0.00    +0.000 C 
BRANCH  16  23
ATOM     20  C   UNL     1       6.692   4.854  16.019  0.00  0.00    +0.000 A 
ATOM     21  C   UNL     1       7.068   5.109  17.336  0.00  0.00    +0.000 A 
ATOM     22  C   UNL     1       6.224   4.751  18.402  0.00  0.00    +0.000 A 
ATOM     23  C   UNL     1       4.982   4.127  18.180  0.00  0.00    +0.000 A 
ATOM     24  C   UNL     1       4.661   3.845  16.849  0.00  0.00    +0.000 A 
ATOM     25  C   UNL     1       5.476   4.235  15.782  0.00  0.00    +0.000 A 
BRANCH  20  27
ATOM     26  C   UNL     1       7.209   4.876  13.710  0.00  0.00    +0.000 C 
ATOM     27  O   UNL     1       7.564   5.254  15.044  0.00  0.00    +0.000 OA
ENDBRANCH  20  27
ENDBRANCH  16  23
ENDBRANCH   1  18
TORSDOF 6
ENDMDL
MODEL 4
REMARK VINA RESULT:      -7.8      0.298      1.351
REMARK  Name = 
REMARK  8 active torsions:
REMARK  status: ('A' for Active; 'I' for Inactive)
REMARK    1  A    between atoms: C_1  and  O_2
REMARK    2  A    between atoms: O_2  and  C_3
REMARK    3  A    between atoms: C_6  and  C_7
REMARK    4  A    between atoms: N_9  and  C_10
REMARK    5  A    between atoms: N_9  and  C_11
REMARK    6  A    between atoms: C_15  and  C_16
REMARK    7  A    between atoms: C_19  and  C_20
REMARK    8  A    between atoms: C_20  and  O_21
REMARK                            x       y       z     vdW  Elec       q    Type
REMARK                         _______ _______ _______ _____ _____    ______ ____
ROOT
ATOM      1  C   UNL     1       3.252   4.363  18.633  0.00  0.00    +0.000 A 
ATOM      2  C   UNL     1       3.014   3.652  19.811  0.00  0.00    +0.000 A 
ATOM      3  C   UNL     1       2.515   4.332  20.917  0.00  0.00    +0.000 A 
ATOM      4  C   UNL     1       2.204   5.695  20.822  0.00  0.00    +0.000 A 
ATOM      5  C   UNL     1       2.376   6.411  19.621  0.00  0.00    +0.000 A 
ATOM      6  C   UNL     1       2.932   5.721  18.537  0.00  0.00    +0.000 A 
ENDROOT
BRANCH   5   7
ATOM      7  C   UNL     1       1.914   7.808  19.473  0.00  0.00    +0.000 A 
ATOM      8  C   UNL     1       1.258   8.498  20.507  0.00  0.00    +0.000 A 
ATOM      9  C   UNL     1       0.910   9.852  20.373  0.00  0.00    +0.000 A 
ATOM     10  C   UNL     1       1.211  10.550  19.197  0.00  0.00    +0.000 A 
ATOM     11  C   UNL     1       1.819   9.860  18.147  0.00  0.00    +0.000 A 
ATOM     12  C   UNL     1       2.178   8.520  18.292  0.00  0.00    +0.000 A 
BRANCH  10  13
ATOM     13  C   UNL     1       0.815  11.996  19.055  0.00  0.00    +0.000 C 
BRANCH  13  14
ATOM     14  O   UNL     1       1.220  12.529  17.800  0.00  0.00    +0.000 OA
ATOM     15  H   UNL     1       2.188  12.444  17.759  0.00  0.00    +0.000 HD
ENDBRANCH  13  14
ENDBRANCH  10  13
ENDBRANCH   5   7
BRANCH   1  18
ATOM     16  C   UNL     1       4.943   4.022  16.807  0.00  0.00    +0.000 C 
ATOM     17  O   UNL     1       5.261   3.360  15.816  0.00  0.00    +0.000 OA
ATOM     18  N   UNL     1       3.753   3.720  17.492  0.00  0.00    +0.000 N 
ATOM     19  C   UNL     1       2.907   2.621  17.022  0.00  0.00    +0.000 C 
BRANCH  16  23
ATOM     20  C   UNL     1       7.677   7.138  18.174  0.00  0.00    +0.000 A 
ATOM     21  C   UNL     1       7.751   5.832  18.652  0.00  0.00    +0.000 A 
ATOM     22  C   UNL     1       6.871   4.845  18.175  0.00  0.00    +0.000 A 
ATOM     23  C   UNL     1       5.894   5.136  17.203  0.00  0.00    +0.000 A 
ATOM     24  C   UNL     1       5.883   6.445  16.713  0.00  0.00    +0.000 A 
ATOM     25  C   UNL     1       6.727   7.441  17.213  0.00  0.00    +0.000 A 
BRANCH  20  27
ATOM     26  C   UNL     1       8.442   9.376  18.216  0.00  0.00    +0.000 C 
ATOM     27  O   UNL     1       8.558   8.037  18.708  0.00  0.00    +0.000 OA
ENDBRANCH  20  27
ENDBRANCH  16  23
ENDBRANCH   1  18
TORSDOF 6
ENDMDL
MODEL 5
REMARK VINA RESULT:      -7.8      2.403      3.668
REMARK  Name = 
REMARK  8 active torsions:
REMARK  status: ('A' for Active; 'I' for Inactive)
REMARK    1  A    between atoms: C_1  and  O_2
REMARK    2  A    between atoms: O_2  and  C_3
REMARK    3  A    between atoms: C_6  and  C_7
REMARK    4  A    between atoms: N_9  and  C_10
REMARK    5  A    between atoms: N_9  and  C_11
REMARK    6  A    between atoms: C_15  and  C_16
REMARK    7  A    between atoms: C_19  and  C_20
REMARK    8  A    between atoms: C_20  and  O_21
REMARK                            x       y       z     vdW  Elec       q    Type
REMARK                         _______ _______ _______ _____ _____    ______ ____
ROOT
ATOM      1  C   UNL     1       2.642   6.368  19.393  0.00  0.00    +0.000 A 
ATOM      2  C   UNL     1       3.154   6.856  18.189  0.00  0.00    +0.000 A 
ATOM      3  C   UNL     1       2.742   8.106  17.740  0.00  0.00    +0.000 A 
ATOM      4  C   UNL     1       1.873   8.881  18.521  0.00  0.00    +0.000 A 
ATOM      5  C   UNL     1       1.400   8.430  19.770  0.00  0.00    +0.000 A 
ATOM      6  C   UNL     1       1.782   7.146  20.175  0.00  0.00    +0.000 A 
ENDROOT
BRANCH   5   7
ATOM      7  C   UNL     1       0.603   9.300  20.662  0.00  0.00    +0.000 A 
ATOM      8  C   UNL     1       0.462   9.042  22.037  0.00  0.00    +0.000 A 
ATOM      9  C   UNL     1      -0.224   9.931  22.878  0.00  0.00    +0.000 A 
ATOM     10  C   UNL     1      -0.789  11.105  22.362  0.00  0.00    +0.000 A 
ATOM     11  C   UNL     1      -0.695  11.345  20.991  0.00  0.00    +0.000 A 
ATOM     12  C   UNL     1       0.003  10.467  20.163  0.00  0.00    +0.000 A 
BRANCH  10  13
ATOM     13  C   UNL     1      -1.542  12.043  23.269  0.00  0.00    +0.000 C 
BRANCH  13  14
ATOM     14  O   UNL     1      -2.881  11.610  23.475  0.00  0.00    +0.000 OA
ATOM     15  H   UNL     1      -2.854  10.948  24.187  0.00  0.00    +0.000 HD
ENDBRANCH  13  14
ENDBRANCH  10  13
ENDBRANCH   5   7
BRANCH   1  18
ATOM     16  C   UNL     1       4.114   4.332  19.448  0.00  0.00    +0.000 C 
ATOM     17  O   UNL     1       4.339   3.245  19.986  0.00  0.00    +0.000 OA
ATOM     18  N   UNL     1       3.030   5.113  19.886  0.00  0.00    +0.000 N 
ATOM     19  C   UNL     1       2.183   4.629  20.977  0.00  0.00    +0.000 C 
BRANCH  16  23
ATOM     20  C   UNL     1       6.780   5.274  16.123  0.00  0.00    +0.000 A 
ATOM     21  C   UNL     1       5.604   4.549  15.942  0.00  0.00    +0.000 A 
ATOM     22  C   UNL     1       4.754   4.282  17.029  0.00  0.00    +0.000 A 
ATOM     23  C   UNL     1       5.055   4.735  18.328  0.00  0.00    +0.000 A 
ATOM     24  C   UNL     1       6.218   5.498  18.461  0.00  0.00    +0.000 A 
ATOM     25  C   UNL     1       7.089   5.732  17.393  0.00  0.00    +0.000 A 
BRANCH  20  27
ATOM     26  C   UNL     1       7.118   4.795  13.831  0.00  0.00    +0.000 C 
ATOM     27  O   UNL     1       7.557   5.469  15.014  0.00  0.00    +0.000 OA
ENDBRANCH  20  27
ENDBRANCH  16  23
ENDBRANCH   1  18
TORSDOF 6
ENDMDL
MODEL 6
REMARK VINA RESULT:      -7.7      2.292      3.523
REMARK  Name = 
REMARK  8 active torsions:
REMARK  status: ('A' for Active; 'I' for Inactive)
REMARK    1  A    between atoms: C_1  and  O_2
REMARK    2  A    between atoms: O_2  and  C_3
REMARK    3  A    between atoms: C_6  and  C_7
REMARK    4  A    between atoms: N_9  and  C_10
REMARK    5  A    between atoms: N_9  and  C_11
REMARK    6  A    between atoms: C_15  and  C_16
REMARK    7  A    between atoms: C_19  and  C_20
REMARK    8  A    between atoms: C_20  and  O_21
REMARK                            x       y       z     vdW  Elec       q    Type
REMARK                         _______ _______ _______ _____ _____    ______ ____
ROOT
ATOM      1  C   UNL     1       2.675   6.390  19.360  0.00  0.00    +0.000 A 
ATOM      2  C   UNL     1       3.149   6.854  18.131  0.00  0.00    +0.000 A 
ATOM      3  C   UNL     1       2.743   8.106  17.683  0.00  0.00    +0.000 A 
ATOM      4  C   UNL     1       1.918   8.905  18.486  0.00  0.00    +0.000 A 
ATOM      5  C   UNL     1       1.486   8.479  19.758  0.00  0.00    +0.000 A 
ATOM      6  C   UNL     1       1.860   7.192  20.164  0.00  0.00    +0.000 A 
ENDROOT
BRANCH   5   7
ATOM      7  C   UNL     1       0.739   9.373  20.668  0.00  0.00    +0.000 A 
ATOM      8  C   UNL     1       0.265  10.634  20.265  0.00  0.00    +0.000 A 
ATOM      9  C   UNL     1      -0.518  11.425  21.120  0.00  0.00    +0.000 A 
ATOM     10  C   UNL     1      -0.847  10.973  22.404  0.00  0.00    +0.000 A 
ATOM     11  C   UNL     1      -0.340   9.744  22.830  0.00  0.00    +0.000 A 
ATOM     12  C   UNL     1       0.422   8.955  21.970  0.00  0.00    +0.000 A 
BRANCH  10  13
ATOM     13  C   UNL     1      -1.670  11.839  23.322  0.00  0.00    +0.000 C 
BRANCH  13  14
ATOM     14  O   UNL     1      -1.193  13.178  23.346  0.00  0.00    +0.000 OA
ATOM     15  H   UNL     1      -0.301  13.150  23.733  0.00  0.00    +0.000 HD
ENDBRANCH  13  14
ENDBRANCH  10  13
ENDBRANCH   5   7
BRANCH   1  18
ATOM     16  C   UNL     1       4.139   4.348  19.414  0.00  0.00    +0.000 C 
ATOM     17  O   UNL     1       4.361   3.261  19.953  0.00  0.00    +0.000 OA
ATOM     18  N   UNL     1       3.059   5.134  19.854  0.00  0.00    +0.000 N 
ATOM     19  C   UNL     1       2.213   4.654  20.948  0.00  0.00    +0.000 C 
BRANCH  16  23
ATOM     20  C   UNL     1       6.790   5.281  16.075  0.00  0.00    +0.000 A 
ATOM     21  C   UNL     1       5.577   4.622  15.890  0.00  0.00    +0.000 A 
ATOM     22  C   UNL     1       4.734   4.357  16.983  0.00  0.00    +0.000 A 
ATOM     23  C   UNL     1       5.080   4.746  18.291  0.00  0.00    +0.000 A 
ATOM     24  C   UNL     1       6.281   5.446  18.430  0.00  0.00    +0.000 A 
ATOM     25  C   UNL     1       7.144   5.677  17.354  0.00  0.00    +0.000 A 
BRANCH  20  27
ATOM     26  C   UNL     1       7.143   4.758  13.794  0.00  0.00    +0.000 C 
ATOM     27  O   UNL     1       7.556   5.479  14.959  0.00  0.00    +0.000 OA
ENDBRANCH  20  27
ENDBRANCH  16  23
ENDBRANCH   1  18
TORSDOF 6
ENDMDL
MODEL 7
REMARK VINA RESULT:      -7.3      1.011      1.411
REMARK  Name = 
REMARK  8 active torsions:
REMARK  status: ('A' for Active; 'I' for Inactive)
REMARK    1  A    between atoms: C_1  and  O_2
REMARK    2  A    between atoms: O_2  and  C_3
REMARK    3  A    between atoms: C_6  and  C_7
REMARK    4  A    between atoms: N_9  and  C_10
REMARK    5  A    between atoms: N_9  and  C_11
REMARK    6  A    between atoms: C_15  and  C_16
REMARK    7  A    between atoms: C_19  and  C_20
REMARK    8  A    between atoms: C_20  and  O_21
REMARK                            x       y       z     vdW  Elec       q    Type
REMARK                         _______ _______ _______ _____ _____    ______ ____
ROOT
ATOM      1  C   UNL     1       4.075   4.558  18.269  0.00  0.00    +0.000 A 
ATOM      2  C   UNL     1       3.765   3.698  19.324  0.00  0.00    +0.000 A 
ATOM      3  C   UNL     1       3.007   4.181  20.384  0.00  0.00    +0.000 A 
ATOM      4  C   UNL     1       2.518   5.494  20.357  0.00  0.00    +0.000 A 
ATOM      5  C   UNL     1       2.767   6.354  19.269  0.00  0.00    +0.000 A 
ATOM      6  C   UNL     1       3.579   5.866  18.239  0.00  0.00    +0.000 A 
ENDROOT
BRANCH   5   7
ATOM      7  C   UNL     1       2.134   7.686  19.167  0.00  0.00    +0.000 A 
ATOM      8  C   UNL     1       1.503   8.306  20.260  0.00  0.00    +0.000 A 
ATOM      9  C   UNL     1       0.988   9.609  20.162  0.00  0.00    +0.000 A 
ATOM     10  C   UNL     1       1.094  10.326  18.963  0.00  0.00    +0.000 A 
ATOM     11  C   UNL     1       1.675   9.700  17.859  0.00  0.00    +0.000 A 
ATOM     12  C   UNL     1       2.200   8.413  17.968  0.00  0.00    +0.000 A 
BRANCH  10  13
ATOM     13  C   UNL     1       0.520  11.715  18.861  0.00  0.00    +0.000 C 
BRANCH  13  14
ATOM     14  O   UNL     1      -0.451  11.956  19.872  0.00  0.00    +0.000 OA
ATOM     15  H   UNL     1      -0.783  12.859  19.731  0.00  0.00    +0.000 HD
ENDBRANCH  13  14
ENDBRANCH  10  13
ENDBRANCH   5   7
BRANCH   1  18
ATOM     16  C   UNL     1       6.092   4.599  16.770  0.00  0.00    +0.000 C 
ATOM     17  O   UNL     1       6.648   4.103  15.788  0.00  0.00    +0.000 OA
ATOM     18  N   UNL     1       4.836   4.116  17.176  0.00  0.00    +0.000 N 
ATOM     19  C   UNL     1       4.204   3.026  16.429  0.00  0.00    +0.000 C 
BRANCH  16  23
ATOM     20  C   UNL     1       8.288   7.920  18.559  0.00  0.00    +0.000 A 
ATOM     21  C   UNL     1       7.502   8.085  17.421  0.00  0.00    +0.000 A 
ATOM     22  C   UNL     1       6.788   7.001  16.882  0.00  0.00    +0.000 A 
ATOM     23  C   UNL     1       6.838   5.721  17.468  0.00  0.00    +0.000 A 
ATOM     24  C   UNL     1       7.599   5.606  18.635  0.00  0.00    +0.000 A 
ATOM     25  C   UNL     1       8.345   6.670  19.153  0.00  0.00    +0.000 A 
BRANCH  20  27
ATOM     26  C   UNL     1       8.763  10.215  18.237  0.00  0.00    +0.000 C 
ATOM     27  O   UNL     1       8.965   9.023  19.002  0.00  0.00    +0.000 OA
ENDBRANCH  20  27
ENDBRANCH  16  23
ENDBRANCH   1  18
TORSDOF 6
ENDMDL
MODEL 8
REMARK VINA RESULT:      -7.2      0.751      1.232
REMARK  Name = 
REMARK  8 active torsions:
REMARK  status: ('A' for Active; 'I' for Inactive)
REMARK    1  A    between atoms: C_1  and  O_2
REMARK    2  A    between atoms: O_2  and  C_3
REMARK    3  A    between atoms: C_6  and  C_7
REMARK    4  A    between atoms: N_9  and  C_10
REMARK    5  A    between atoms: N_9  and  C_11
REMARK    6  A    between atoms: C_15  and  C_16
REMARK    7  A    between atoms: C_19  and  C_20
REMARK    8  A    between atoms: C_20  and  O_21
REMARK                            x       y       z     vdW  Elec       q    Type
REMARK                         _______ _______ _______ _____ _____    ______ ____
ROOT
ATOM      1  C   UNL     1       3.064   4.114  18.978  0.00  0.00    +0.000 A 
ATOM      2  C   UNL     1       2.741   3.512  20.196  0.00  0.00    +0.000 A 
ATOM      3  C   UNL     1       2.224   4.299  21.219  0.00  0.00    +0.000 A 
ATOM      4  C   UNL     1       1.982   5.662  21.002  0.00  0.00    +0.000 A 
ATOM      5  C   UNL     1       2.241   6.271  19.758  0.00  0.00    +0.000 A 
ATOM      6  C   UNL     1       2.813   5.472  18.760  0.00  0.00    +0.000 A 
ENDROOT
BRANCH   5   7
ATOM      7  C   UNL     1       1.853   7.669  19.478  0.00  0.00    +0.000 A 
ATOM      8  C   UNL     1       1.236   8.487  20.441  0.00  0.00    +0.000 A 
ATOM      9  C   UNL     1       0.959   9.839  20.180  0.00  0.00    +0.000 A 
ATOM     10  C   UNL     1       1.293  10.406  18.944  0.00  0.00    +0.000 A 
ATOM     11  C   UNL     1       1.861   9.590  17.965  0.00  0.00    +0.000 A 
ATOM     12  C   UNL     1       2.150   8.253  18.236  0.00  0.00    +0.000 A 
BRANCH  10  13
ATOM     13  C   UNL     1       0.972  11.851  18.665  0.00  0.00    +0.000 C 
BRANCH  13  14
ATOM     14  O   UNL     1      -0.113  12.310  19.463  0.00  0.00    +0.000 OA
ATOM     15  H   UNL     1      -0.236  13.251  19.251  0.00  0.00    +0.000 HD
ENDBRANCH  13  14
ENDBRANCH  10  13
ENDBRANCH   5   7
BRANCH   1  18
ATOM     16  C   UNL     1       4.708   3.673  17.130  0.00  0.00    +0.000 C 
ATOM     17  O   UNL     1       5.056   2.905  16.230  0.00  0.00    +0.000 OA
ATOM     18  N   UNL     1       3.586   3.360  17.916  0.00  0.00    +0.000 N 
ATOM     19  C   UNL     1       2.845   2.123  17.660  0.00  0.00    +0.000 C 
BRANCH  16  23
ATOM     20  C   UNL     1       7.096   7.317  17.400  0.00  0.00    +0.000 A 
ATOM     21  C   UNL     1       5.976   7.230  16.575  0.00  0.00    +0.000 A 
ATOM     22  C   UNL     1       5.214   6.050  16.528  0.00  0.00    +0.000 A 
ATOM     23  C   UNL     1       5.549   4.925  17.306  0.00  0.00    +0.000 A 
ATOM     24  C   UNL     1       6.650   5.067  18.155  0.00  0.00    +0.000 A 
ATOM     25  C   UNL     1       7.436   6.223  18.177  0.00  0.00    +0.000 A 
BRANCH  20  27
ATOM     26  C   UNL     1       8.533   8.802  18.552  0.00  0.00    +0.000 C 
ATOM     27  O   UNL     1       7.790   8.495  17.368  0.00  0.00    +0.000 OA
ENDBRANCH  20  27
ENDBRANCH  16  23
ENDBRANCH   1  18
TORSDOF 6
ENDMDL
MODEL 9
REMARK VINA RESULT:      -7.1      3.420      8.965
REMARK  Name = 
REMARK  8 active torsions:
REMARK  status: ('A' for Active; 'I' for Inactive)
REMARK    1  A    between atoms: C_1  and  O_2
REMARK    2  A    between atoms: O_2  and  C_3
REMARK    3  A    between atoms: C_6  and  C_7
REMARK    4  A    between atoms: N_9  and  C_10
REMARK    5  A    between atoms: N_9  and  C_11
REMARK    6  A    between atoms: C_15  and  C_16
REMARK    7  A    between atoms: C_19  and  C_20
REMARK    8  A    between atoms: C_20  and  O_21
REMARK                            x       y       z     vdW  Elec       q    Type
REMARK                         _______ _______ _______ _____ _____    ______ ____
ROOT
ATOM      1  C   UNL     1       0.535  10.677  20.207  0.00  0.00    +0.000 A 
ATOM      2  C   UNL     1      -0.068  10.646  21.466  0.00  0.00    +0.000 A 
ATOM      3  C   UNL     1      -0.121   9.441  22.157  0.00  0.00    +0.000 A 
ATOM      4  C   UNL     1       0.477   8.295  21.616  0.00  0.00    +0.000 A 
ATOM      5  C   UNL     1       1.147   8.325  20.376  0.00  0.00    +0.000 A 
ATOM      6  C   UNL     1       1.139   9.535  19.672  0.00  0.00    +0.000 A 
ENDROOT
BRANCH   5   7
ATOM      7  C   UNL     1       1.902   7.159  19.870  0.00  0.00    +0.000 A 
ATOM      8  C   UNL     1       2.708   7.225  18.719  0.00  0.00    +0.000 A 
ATOM      9  C   UNL     1       3.485   6.130  18.310  0.00  0.00    +0.000 A 
ATOM     10  C   UNL     1       3.477   4.938  19.046  0.00  0.00    +0.000 A 
ATOM     11  C   UNL     1       2.643   4.848  20.162  0.00  0.00    +0.000 A 
ATOM     12  C   UNL     1       1.887   5.945  20.573  0.00  0.00    +0.000 A 
BRANCH  10  13
ATOM     13  C   UNL     1       4.298   3.762  18.587  0.00  0.00    +0.000 C 
BRANCH  13  14
ATOM     14  O   UNL     1       5.651   3.871  19.012  0.00  0.00    +0.000 OA
ATOM     15  H   UNL     1       6.125   4.354  18.315  0.00  0.00    +0.000 HD
ENDBRANCH  13  14
ENDBRANCH  10  13
ENDBRANCH   5   7
BRANCH   1  18
ATOM     16  C   UNL     1      -0.385  12.425  18.654  0.00  0.00    +0.000 C 
ATOM     17  O   UNL     1      -0.175  13.493  18.074  0.00  0.00    +0.000 OA
ATOM     18  N   UNL     1       0.613  11.871  19.474  0.00  0.00    +0.000 N 
ATOM     19  C   UNL     1       1.890  12.570  19.633  0.00  0.00    +0.000 C 
BRANCH  16  23
ATOM     20  C   UNL     1      -4.347  10.649  18.203  0.00  0.00    +0.000 A 
ATOM     21  C   UNL     1      -4.138  11.800  18.959  0.00  0.00    +0.000 A 
ATOM     22  C   UNL     1      -2.853  12.362  19.066  0.00  0.00    +0.000 A 
ATOM     23  C   UNL     1      -1.743  11.788  18.417  0.00  0.00    +0.000 A 
ATOM     24  C   UNL     1      -2.000  10.662  17.630  0.00  0.00    +0.000 A 
ATOM     25  C   UNL     1      -3.267  10.075  17.553  0.00  0.00    +0.000 A 
BRANCH  20  27
ATOM     26  C   UNL     1      -6.657  11.130  18.372  0.00  0.00    +0.000 C 
ATOM     27  O   UNL     1      -5.624  10.160  18.172  0.00  0.00    +0.000 OA
ENDBRANCH  20  27
ENDBRANCH  16  23
ENDBRANCH   1  18
TORSDOF 6
ENDMDL
