MODEL 1
REMARK VINA RESULT:      -6.4      0.000      0.000
REMARK  Name = 
REMARK  9 active torsions:
REMARK  status: ('A' for Active; 'I' for Inactive)
REMARK    1  A    between atoms: C_1  and  C_2
REMARK    2  A    between atoms: C_5  and  C_6
REMARK    3  A    between atoms: N_8  and  CA_9
REMARK    4  A    between atoms: CA_9  and  C_10
REMARK    5  A    between atoms: CA_9  and  CB_13
REMARK    6  A    between atoms: C_10  and  OXT_12
REMARK    7  A    between atoms: CB_13  and  CG1_14
REMARK    8  A    between atoms: CB_13  and  CG2_15
REMARK    9  A    between atoms: C_16  and  C_17
REMARK                            x       y       z     vdW  Elec       q    Type
REMARK                         _______ _______ _______ _____ _____    ______ ____
ROOT
ATOM      1  C   UNK A   0       5.421   4.182  18.436  0.00  0.00    +0.000 C 
ATOM      2  O   UNK A   0       6.321   4.329  19.260  0.00  0.00    +0.000 OA
ATOM      3  N   VAL A   1       5.580   4.585  17.127  0.00  0.00    +0.000 N 
ATOM      4  H   VAL A   1       4.919   4.266  16.427  0.00  0.00    +0.000 HD
ENDROOT
BRANCH   1   9
ATOM      5  C   UNK A   0       0.587   3.752  20.155  0.00  0.00    +0.000 C 
ATOM      6  C   UNK A   0       1.917   3.413  19.562  0.00  0.00    +0.000 A 
ATOM      7  S   UNK A   0       2.192   1.863  18.909  0.00  0.00    +0.000 S 
ATOM      8  C   UNK A   0       3.786   2.269  18.453  0.00  0.00    +0.000 A 
ATOM      9  C   UNK A   0       4.136   3.566  18.783  0.00  0.00    +0.000 A 
ATOM     10  C   UNK A   0       3.033   4.233  19.460  0.00  0.00    +0.000 A 
ATOM     11  C   UNK A   0       3.059   5.636  19.990  0.00  0.00    +0.000 C 
ENDBRANCH   1   9
BRANCH   3  12
ATOM     12  CA  VAL A   1       6.859   5.123  16.661  0.00  0.00    +0.000 C 
BRANCH  12  13
ATOM     13  CB  VAL A   1       6.919   6.658  16.811  0.00  0.00    +0.000 C 
ATOM     14  CG1 VAL A   1       5.514   7.242  17.009  0.00  0.00    +0.000 C 
ATOM     15  CG2 VAL A   1       7.794   7.076  18.001  0.00  0.00    +0.000 C 
ENDBRANCH  12  13
BRANCH  12  16
ATOM     16  C   VAL A   1       7.023   4.695  15.196  0.00  0.00    +0.000 C 
ATOM     17  O   VAL A   1       7.644   5.345  14.365  0.00  0.00    +0.000 OA
BRANCH  16  18
ATOM     18  OXT VAL A   1       6.390   3.542  14.882  0.00  0.00    +0.000 OA
ATOM     19  HXT VAL A   1       5.735   3.243  15.542  0.00  0.00    +0.000 HD
ENDBRANCH  16  18
ENDBRANCH  12  16
ENDBRANCH   3  12
TORSDOF 5
ENDMDL
MODEL 2
REMARK VINA RESULT:      -6.4      1.077      1.680
REMARK  Name = 
REMARK  9 active torsions:
REMARK  status: ('A' for Active; 'I' for Inactive)
REMARK    1  A    between atoms: C_1  and  C_2
REMARK    2  A    between atoms: C_5  and  C_6
REMARK    3  A    between atoms: N_8  and  CA_9
REMARK    4  A    between atoms: CA_9  and  C_10
REMARK    5  A    between atoms: CA_9  and  CB_13
REMARK    6  A    between atoms: C_10  and  OXT_12
REMARK    7  A    between atoms: CB_13  and  CG1_14
REMARK    8  A    between atoms: CB_13  and  CG2_15
REMARK    9  A    between atoms: C_16  and  C_17
REMARK                            x       y       z     vdW  Elec       q    Type
REMARK                         _______ _______ _______ _____ _____    ______ ____
ROOT
ATOM      1  C   UNK A   0       5.173   4.467  18.768  0.00  0.00    +0.000 C 
ATOM      2  O   UNK A   0       6.067   4.182  19.562  0.00  0.00    +0.000 OA
ATOM      3  N   VAL A   1       5.463   4.984  17.524  0.00  0.00    +0.000 N 
ATOM      4  H   VAL A   1       4.736   5.012  16.817  0.00  0.00    +0.000 HD
ENDROOT
BRANCH   1   9
ATOM      5  C   UNK A   0       0.550   2.211  18.987  0.00  0.00    +0.000 C 
ATOM      6  C   UNK A   0       1.658   3.197  19.178  0.00  0.00    +0.000 A 
ATOM      7  S   UNK A   0       1.422   4.568  20.163  0.00  0.00    +0.000 S 
ATOM      8  C   UNK A   0       3.021   5.105  19.908  0.00  0.00    +0.000 A 
ATOM      9  C   UNK A   0       3.754   4.270  19.084  0.00  0.00    +0.000 A 
ATOM     10  C   UNK A   0       2.936   3.152  18.636  0.00  0.00    +0.000 A 
ATOM     11  C   UNK A   0       3.384   2.062  17.709  0.00  0.00    +0.000 C 
ENDBRANCH   1   9
BRANCH   3  12
ATOM     12  CA  VAL A   1       6.851   5.129  17.079  0.00  0.00    +0.000 C 
BRANCH  12  13
ATOM     13  CB  VAL A   1       7.356   6.577  17.254  0.00  0.00    +0.000 C 
ATOM     14  CG1 VAL A   1       6.193   7.574  17.169  0.00  0.00    +0.000 C 
ATOM     15  CG2 VAL A   1       8.066   6.768  18.601  0.00  0.00    +0.000 C 
ENDBRANCH  12  13
BRANCH  12  16
ATOM     16  C   VAL A   1       6.903   4.689  15.610  0.00  0.00    +0.000 C 
ATOM     17  O   VAL A   1       7.585   5.247  14.759  0.00  0.00    +0.000 OA
BRANCH  16  18
ATOM     18  OXT VAL A   1       6.099   3.641  15.316  0.00  0.00    +0.000 OA
ATOM     19  HXT VAL A   1       6.446   2.771  15.591  0.00  0.00    +0.000 HD
ENDBRANCH  16  18
ENDBRANCH  12  16
ENDBRANCH   3  12
TORSDOF 5
ENDMDL
MODEL 3
REMARK VINA RESULT:      -6.3      1.751      2.617
REMARK  Name = 
REMARK  9 active torsions:
REMARK  status: ('A' for Active; 'I' for Inactive)
REMARK    1  A    between atoms: C_1  and  C_2
REMARK    2  A    between atoms: C_5  and  C_6
REMARK    3  A    between atoms: N_8  and  CA_9
REMARK    4  A    between atoms: CA_9  and  C_10
REMARK    5  A    between atoms: CA_9  and  CB_13
REMARK    6  A    between atoms: C_10  and  OXT_12
REMARK    7  A    between atoms: CB_13  and  CG1_14
REMARK    8  A    between atoms: CB_13  and  CG2_15
REMARK    9  A    between atoms: C_16  and  C_17
REMARK                            x       y       z     vdW  Elec       q    Type
REMARK                         _______ _______ _______ _____ _____    ______ ____
ROOT
ATOM      1  C   UNK A   0       4.321   5.063  16.942  0.00  0.00    +0.000 C 
ATOM      2  O   UNK A   0       4.413   6.284  17.053  0.00  0.00    +0.000 OA
ATOM      3  N   VAL A   1       5.102   4.369  16.043  0.00  0.00    +0.000 N 
ATOM      4  H   VAL A   1       5.163   3.359  16.116  0.00  0.00    +0.000 HD
ENDROOT
BRANCH   1   9
ATOM      5  C   UNK A   0       0.747   3.958  20.479  0.00  0.00    +0.000 C 
ATOM      6  C   UNK A   0       1.743   3.808  19.374  0.00  0.00    +0.000 A 
ATOM      7  S   UNK A   0       1.929   2.307  18.588  0.00  0.00    +0.000 S 
ATOM      8  C   UNK A   0       3.118   2.934  17.536  0.00  0.00    +0.000 A 
ATOM      9  C   UNK A   0       3.393   4.271  17.757  0.00  0.00    +0.000 A 
ATOM     10  C   UNK A   0       2.593   4.780  18.862  0.00  0.00    +0.000 A 
ATOM     11  C   UNK A   0       2.646   6.177  19.404  0.00  0.00    +0.000 C 
ENDBRANCH   1   9
BRANCH   3  12
ATOM     12  CA  VAL A   1       6.124   5.057  15.252  0.00  0.00    +0.000 C 
BRANCH  12  13
ATOM     13  CB  VAL A   1       6.552   4.224  14.026  0.00  0.00    +0.000 C 
ATOM     14  CG1 VAL A   1       5.331   3.805  13.198  0.00  0.00    +0.000 C 
ATOM     15  CG2 VAL A   1       7.513   5.004  13.120  0.00  0.00    +0.000 C 
ENDBRANCH  12  13
BRANCH  12  16
ATOM     16  C   VAL A   1       7.310   5.331  16.187  0.00  0.00    +0.000 C 
ATOM     17  O   VAL A   1       7.973   4.449  16.718  0.00  0.00    +0.000 OA
BRANCH  16  18
ATOM     18  OXT VAL A   1       7.549   6.645  16.409  0.00  0.00    +0.000 OA
ATOM     19  HXT VAL A   1       7.150   6.999  17.227  0.00  0.00    +0.000 HD
ENDBRANCH  16  18
ENDBRANCH  12  16
ENDBRANCH   3  12
TORSDOF 5
ENDMDL
MODEL 4
REMARK VINA RESULT:      -6.2      2.300      3.178
REMARK  Name = 
REMARK  9 active torsions:
REMARK  status: ('A' for Active; 'I' for Inactive)
REMARK    1  A    between atoms: C_1  and  C_2
REMARK    2  A    between atoms: C_5  and  C_6
REMARK    3  A    between atoms: N_8  and  CA_9
REMARK    4  A    between atoms: CA_9  and  C_10
REMARK    5  A    between atoms: CA_9  and  CB_13
REMARK    6  A    between atoms: C_10  and  OXT_12
REMARK    7  A    between atoms: CB_13  and  CG1_14
REMARK    8  A    between atoms: CB_13  and  CG2_15
REMARK    9  A    between atoms: C_16  and  C_17
REMARK                            x       y       z     vdW  Elec       q    Type
REMARK                         _______ _______ _______ _____ _____    ______ ____
ROOT
ATOM      1  C   UNK A   0       3.845   6.076  18.259  0.00  0.00    +0.000 C 
ATOM      2  O   UNK A   0       3.615   7.206  17.834  0.00  0.00    +0.000 OA
ATOM      3  N   VAL A   1       5.110   5.533  18.191  0.00  0.00    +0.000 N 
ATOM      4  H   VAL A   1       5.322   4.701  18.731  0.00  0.00    +0.000 HD
ENDROOT
BRANCH   1   9
ATOM      5  C   UNK A   0       0.630   2.114  18.956  0.00  0.00    +0.000 C 
ATOM      6  C   UNK A   0       1.360   3.403  19.164  0.00  0.00    +0.000 A 
ATOM      7  S   UNK A   0       1.118   4.302  20.592  0.00  0.00    +0.000 S 
ATOM      8  C   UNK A   0       2.235   5.496  20.105  0.00  0.00    +0.000 A 
ATOM      9  C   UNK A   0       2.803   5.242  18.870  0.00  0.00    +0.000 A 
ATOM     10  C   UNK A   0       2.265   4.013  18.305  0.00  0.00    +0.000 A 
ATOM     11  C   UNK A   0       2.625   3.438  16.968  0.00  0.00    +0.000 C 
ENDBRANCH   1   9
BRANCH   3  12
ATOM     12  CA  VAL A   1       6.236   6.322  17.686  0.00  0.00    +0.000 C 
BRANCH  12  13
ATOM     13  CB  VAL A   1       6.755   5.775  16.340  0.00  0.00    +0.000 C 
ATOM     14  CG1 VAL A   1       7.329   4.362  16.510  0.00  0.00    +0.000 C 
ATOM     15  CG2 VAL A   1       5.644   5.728  15.283  0.00  0.00    +0.000 C 
ENDBRANCH  12  13
BRANCH  12  16
ATOM     16  C   VAL A   1       7.328   6.292  18.764  0.00  0.00    +0.000 C 
ATOM     17  O   VAL A   1       8.348   6.969  18.715  0.00  0.00    +0.000 OA
BRANCH  16  18
ATOM     18  OXT VAL A   1       7.089   5.421  19.772  0.00  0.00    +0.000 OA
ATOM     19  HXT VAL A   1       7.544   5.632  20.610  0.00  0.00    +0.000 HD
ENDBRANCH  16  18
ENDBRANCH  12  16
ENDBRANCH   3  12
TORSDOF 5
ENDMDL
MODEL 5
REMARK VINA RESULT:      -6.1      2.067      2.995
REMARK  Name = 
REMARK  9 active torsions:
REMARK  status: ('A' for Active; 'I' for Inactive)
REMARK    1  A    between atoms: C_1  and  C_2
REMARK    2  A    between atoms: C_5  and  C_6
REMARK    3  A    between atoms: N_8  and  CA_9
REMARK    4  A    between atoms: CA_9  and  C_10
REMARK    5  A    between atoms: CA_9  and  CB_13
REMARK    6  A    between atoms: C_10  and  OXT_12
REMARK    7  A    between atoms: CB_13  and  CG1_14
REMARK    8  A    between atoms: CB_13  and  CG2_15
REMARK    9  A    between atoms: C_16  and  C_17
REMARK                            x       y       z     vdW  Elec       q    Type
REMARK                         _______ _______ _______ _____ _____    ______ ____
ROOT
ATOM      1  C   UNK A   0       4.078   6.025  17.394  0.00  0.00    +0.000 C 
ATOM      2  O   UNK A   0       4.048   7.194  17.014  0.00  0.00    +0.000 OA
ATOM      3  N   VAL A   1       5.007   5.137  16.897  0.00  0.00    +0.000 N 
ATOM      4  H   VAL A   1       5.151   4.252  17.371  0.00  0.00    +0.000 HD
ENDROOT
BRANCH   1   9
ATOM      5  C   UNK A   0       0.841   2.789  19.754  0.00  0.00    +0.000 C 
ATOM      6  C   UNK A   0       1.682   3.990  19.457  0.00  0.00    +0.000 A 
ATOM      7  S   UNK A   0       1.822   5.240  20.608  0.00  0.00    +0.000 S 
ATOM      8  C   UNK A   0       2.881   6.128  19.606  0.00  0.00    +0.000 A 
ATOM      9  C   UNK A   0       3.144   5.505  18.400  0.00  0.00    +0.000 A 
ATOM     10  C   UNK A   0       2.414   4.249  18.306  0.00  0.00    +0.000 A 
ATOM     11  C   UNK A   0       2.431   3.318  17.131  0.00  0.00    +0.000 C 
ENDBRANCH   1   9
BRANCH   3  12
ATOM     12  CA  VAL A   1       6.042   5.584  15.962  0.00  0.00    +0.000 C 
BRANCH  12  13
ATOM     13  CB  VAL A   1       6.370   4.498  14.916  0.00  0.00    +0.000 C 
ATOM     14  CG1 VAL A   1       5.106   4.069  14.159  0.00  0.00    +0.000 C 
ATOM     15  CG2 VAL A   1       7.406   4.990  13.897  0.00  0.00    +0.000 C 
ENDBRANCH  12  13
BRANCH  12  16
ATOM     16  C   VAL A   1       7.276   5.953  16.795  0.00  0.00    +0.000 C 
ATOM     17  O   VAL A   1       7.757   7.078  16.833  0.00  0.00    +0.000 OA
BRANCH  16  18
ATOM     18  OXT VAL A   1       7.820   4.914  17.470  0.00  0.00    +0.000 OA
ATOM     19  HXT VAL A   1       8.465   4.388  16.959  0.00  0.00    +0.000 HD
ENDBRANCH  16  18
ENDBRANCH  12  16
ENDBRANCH   3  12
TORSDOF 5
ENDMDL
MODEL 6
REMARK VINA RESULT:      -6.1      1.336      1.956
REMARK  Name = 
REMARK  9 active torsions:
REMARK  status: ('A' for Active; 'I' for Inactive)
REMARK    1  A    between atoms: C_1  and  C_2
REMARK    2  A    between atoms: C_5  and  C_6
REMARK    3  A    between atoms: N_8  and  CA_9
REMARK    4  A    between atoms: CA_9  and  C_10
REMARK    5  A    between atoms: CA_9  and  CB_13
REMARK    6  A    between atoms: C_10  and  OXT_12
REMARK    7  A    between atoms: CB_13  and  CG1_14
REMARK    8  A    between atoms: CB_13  and  CG2_15
REMARK    9  A    between atoms: C_16  and  C_17
REMARK                            x       y       z     vdW  Elec       q    Type
REMARK                         _______ _______ _______ _____ _____    ______ ____
ROOT
ATOM      1  C   UNK A   0       5.452   4.969  19.157  0.00  0.00    +0.000 C 
ATOM      2  O   UNK A   0       6.423   4.894  19.907  0.00  0.00    +0.000 OA
ATOM      3  N   VAL A   1       5.607   5.249  17.816  0.00  0.00    +0.000 N 
ATOM      4  H   VAL A   1       4.828   5.097  17.184  0.00  0.00    +0.000 HD
ENDROOT
BRANCH   1   9
ATOM      5  C   UNK A   0       1.365   2.580  21.183  0.00  0.00    +0.000 C 
ATOM      6  C   UNK A   0       2.237   3.634  20.578  0.00  0.00    +0.000 A 
ATOM      7  S   UNK A   0       1.655   5.227  20.400  0.00  0.00    +0.000 S 
ATOM      8  C   UNK A   0       3.132   5.758  19.731  0.00  0.00    +0.000 A 
ATOM      9  C   UNK A   0       4.079   4.756  19.630  0.00  0.00    +0.000 A 
ATOM     10  C   UNK A   0       3.538   3.494  20.113  0.00  0.00    +0.000 A 
ATOM     11  C   UNK A   0       4.266   2.183  20.128  0.00  0.00    +0.000 C 
ENDBRANCH   1   9
BRANCH   3  12
ATOM     12  CA  VAL A   1       6.942   5.383  17.230  0.00  0.00    +0.000 C 
BRANCH  12  13
ATOM     13  CB  VAL A   1       7.379   6.861  17.141  0.00  0.00    +0.000 C 
ATOM     14  CG1 VAL A   1       6.159   7.784  17.024  0.00  0.00    +0.000 C 
ATOM     15  CG2 VAL A   1       8.195   7.284  18.370  0.00  0.00    +0.000 C 
ENDBRANCH  12  13
BRANCH  12  16
ATOM     16  C   VAL A   1       6.896   4.726  15.844  0.00  0.00    +0.000 C 
ATOM     17  O   VAL A   1       6.248   3.718  15.593  0.00  0.00    +0.000 OA
BRANCH  16  18
ATOM     18  OXT VAL A   1       7.666   5.338  14.914  0.00  0.00    +0.000 OA
ATOM     19  HXT VAL A   1       7.961   4.760  14.184  0.00  0.00    +0.000 HD
ENDBRANCH  16  18
ENDBRANCH  12  16
ENDBRANCH   3  12
TORSDOF 5
ENDMDL
MODEL 7
REMARK VINA RESULT:      -6.1      1.816      2.587
REMARK  Name = 
REMARK  9 active torsions:
REMARK  status: ('A' for Active; 'I' for Inactive)
REMARK    1  A    between atoms: C_1  and  C_2
REMARK    2  A    between atoms: C_5  and  C_6
REMARK    3  A    between atoms: N_8  and  CA_9
REMARK    4  A    between atoms: CA_9  and  C_10
REMARK    5  A    between atoms: CA_9  and  CB_13
REMARK    6  A    between atoms: C_10  and  OXT_12
REMARK    7  A    between atoms: CB_13  and  CG1_14
REMARK    8  A    between atoms: CB_13  and  CG2_15
REMARK    9  A    between atoms: C_16  and  C_17
REMARK                            x       y       z     vdW  Elec       q    Type
REMARK                         _______ _______ _______ _____ _____    ______ ____
ROOT
ATOM      1  C   UNK A   0       4.547   5.020  17.465  0.00  0.00    +0.000 C 
ATOM      2  O   UNK A   0       4.549   6.248  17.516  0.00  0.00    +0.000 OA
ATOM      3  N   VAL A   1       5.243   4.346  16.485  0.00  0.00    +0.000 N 
ATOM      4  H   VAL A   1       5.400   3.349  16.586  0.00  0.00    +0.000 HD
ENDROOT
BRANCH   1   9
ATOM      5  C   UNK A   0       0.633   2.550  19.723  0.00  0.00    +0.000 C 
ATOM      6  C   UNK A   0       2.006   3.067  19.432  0.00  0.00    +0.000 A 
ATOM      7  S   UNK A   0       3.331   2.550  20.372  0.00  0.00    +0.000 S 
ATOM      8  C   UNK A   0       4.426   3.486  19.457  0.00  0.00    +0.000 A 
ATOM      9  C   UNK A   0       3.819   4.198  18.439  0.00  0.00    +0.000 A 
ATOM     10  C   UNK A   0       2.382   3.964  18.441  0.00  0.00    +0.000 A 
ATOM     11  C   UNK A   0       1.396   4.591  17.500  0.00  0.00    +0.000 C 
ENDBRANCH   1   9
BRANCH   3  12
ATOM     12  CA  VAL A   1       6.076   5.073  15.526  0.00  0.00    +0.000 C 
BRANCH  12  13
ATOM     13  CB  VAL A   1       6.443   4.195  14.311  0.00  0.00    +0.000 C 
ATOM     14  CG1 VAL A   1       5.188   3.819  13.511  0.00  0.00    +0.000 C 
ATOM     15  CG2 VAL A   1       7.424   4.910  13.372  0.00  0.00    +0.000 C 
ENDBRANCH  12  13
BRANCH  12  16
ATOM     16  C   VAL A   1       7.329   5.541  16.279  0.00  0.00    +0.000 C 
ATOM     17  O   VAL A   1       7.676   6.713  16.355  0.00  0.00    +0.000 OA
BRANCH  16  18
ATOM     18  OXT VAL A   1       8.051   4.539  16.832  0.00  0.00    +0.000 OA
ATOM     19  HXT VAL A   1       9.011   4.585  16.661  0.00  0.00    +0.000 HD
ENDBRANCH  16  18
ENDBRANCH  12  16
ENDBRANCH   3  12
TORSDOF 5
ENDMDL
MODEL 8
REMARK VINA RESULT:      -6.0      1.927      2.834
REMARK  Name = 
REMARK  9 active torsions:
REMARK  status: ('A' for Active; 'I' for Inactive)
REMARK    1  A    between atoms: C_1  and  C_2
REMARK    2  A    between atoms: C_5  and  C_6
REMARK    3  A    between atoms: N_8  and  CA_9
REMARK    4  A    between atoms: CA_9  and  C_10
REMARK    5  A    between atoms: CA_9  and  CB_13
REMARK    6  A    between atoms: C_10  and  OXT_12
REMARK    7  A    between atoms: CB_13  and  CG1_14
REMARK    8  A    between atoms: CB_13  and  CG2_15
REMARK    9  A    between atoms: C_16  and  C_17
REMARK                            x       y       z     vdW  Elec       q    Type
REMARK                         _______ _______ _______ _____ _____    ______ ____
ROOT
ATOM      1  C   UNK A   0       4.185   5.123  17.009  0.00  0.00    +0.000 C 
ATOM      2  O   UNK A   0       4.195   6.352  16.970  0.00  0.00    +0.000 OA
ATOM      3  N   VAL A   1       5.049   4.379  16.235  0.00  0.00    +0.000 N 
ATOM      4  H   VAL A   1       5.170   3.392  16.437  0.00  0.00    +0.000 HD
ENDROOT
BRANCH   1   9
ATOM      5  C   UNK A   0       2.448   2.604  21.150  0.00  0.00    +0.000 C 
ATOM      6  C   UNK A   0       2.506   3.244  19.800  0.00  0.00    +0.000 A 
ATOM      7  S   UNK A   0       1.103   3.339  18.837  0.00  0.00    +0.000 S 
ATOM      8  C   UNK A   0       1.934   4.161  17.594  0.00  0.00    +0.000 A 
ATOM      9  C   UNK A   0       3.270   4.376  17.879  0.00  0.00    +0.000 A 
ATOM     10  C   UNK A   0       3.611   3.812  19.177  0.00  0.00    +0.000 A 
ATOM     11  C   UNK A   0       4.974   3.827  19.803  0.00  0.00    +0.000 C 
ENDBRANCH   1   9
BRANCH   3  12
ATOM     12  CA  VAL A   1       6.063   5.033  15.406  0.00  0.00    +0.000 C 
BRANCH  12  13
ATOM     13  CB  VAL A   1       6.446   4.168  14.187  0.00  0.00    +0.000 C 
ATOM     14  CG1 VAL A   1       5.208   3.828  13.348  0.00  0.00    +0.000 C 
ATOM     15  CG2 VAL A   1       7.465   4.880  13.287  0.00  0.00    +0.000 C 
ENDBRANCH  12  13
BRANCH  12  16
ATOM     16  C   VAL A   1       7.277   5.305  16.306  0.00  0.00    +0.000 C 
ATOM     17  O   VAL A   1       7.920   4.424  16.861  0.00  0.00    +0.000 OA
BRANCH  16  18
ATOM     18  OXT VAL A   1       7.563   6.618  16.468  0.00  0.00    +0.000 OA
ATOM     19  HXT VAL A   1       6.991   7.226  15.963  0.00  0.00    +0.000 HD
ENDBRANCH  16  18
ENDBRANCH  12  16
ENDBRANCH   3  12
TORSDOF 5
ENDMDL
MODEL 9
REMARK VINA RESULT:      -6.0      4.302      6.263
REMARK  Name = 
REMARK  9 active torsions:
REMARK  status: ('A' for Active; 'I' for Inactive)
REMARK    1  A    between atoms: C_1  and  C_2
REMARK    2  A    between atoms: C_5  and  C_6
REMARK    3  A    between atoms: N_8  and  CA_9
REMARK    4  A    between atoms: CA_9  and  C_10
REMARK    5  A    between atoms: CA_9  and  CB_13
REMARK    6  A    between atoms: C_10  and  OXT_12
REMARK    7  A    between atoms: CB_13  and  CG1_14
REMARK    8  A    between atoms: CB_13  and  CG2_15
REMARK    9  A    between atoms: C_16  and  C_17
REMARK                            x       y       z     vdW  Elec       q    Type
REMARK                         _______ _______ _______ _____ _____    ______ ____
ROOT
ATOM      1  C   UNK A   0       2.672   6.118  19.826  0.00  0.00    +0.000 C 
ATOM      2  O   UNK A   0       3.877   6.033  19.595  0.00  0.00    +0.000 OA
ATOM      3  N   VAL A   1       1.888   4.992  19.946  0.00  0.00    +0.000 N 
ATOM      4  H   VAL A   1       0.957   5.076  20.341  0.00  0.00    +0.000 HD
ENDROOT
BRANCH   1   9
ATOM      5  C   UNK A   0       0.694  10.720  18.633  0.00  0.00    +0.000 C 
ATOM      6  C   UNK A   0       1.090   9.503  19.407  0.00  0.00    +0.000 A 
ATOM      7  S   UNK A   0       0.583   9.316  21.024  0.00  0.00    +0.000 S 
ATOM      8  C   UNK A   0       1.352   7.799  21.156  0.00  0.00    +0.000 A 
ATOM      9  C   UNK A   0       1.999   7.411  19.996  0.00  0.00    +0.000 A 
ATOM     10  C   UNK A   0       1.859   8.434  18.970  0.00  0.00    +0.000 A 
ATOM     11  C   UNK A   0       2.453   8.373  17.594  0.00  0.00    +0.000 C 
ENDBRANCH   1   9
BRANCH   3  12
ATOM     12  CA  VAL A   1       2.484   3.656  19.887  0.00  0.00    +0.000 C 
BRANCH  12  13
ATOM     13  CB  VAL A   1       2.041   2.891  18.622  0.00  0.00    +0.000 C 
ATOM     14  CG1 VAL A   1       1.760   3.861  17.468  0.00  0.00    +0.000 C 
ATOM     15  CG2 VAL A   1       3.107   1.885  18.167  0.00  0.00    +0.000 C 
ENDBRANCH  12  13
BRANCH  12  16
ATOM     16  C   VAL A   1       2.066   2.917  21.166  0.00  0.00    +0.000 C 
ATOM     17  O   VAL A   1       2.863   2.469  21.981  0.00  0.00    +0.000 OA
BRANCH  16  18
ATOM     18  OXT VAL A   1       0.729   2.767  21.308  0.00  0.00    +0.000 OA
ATOM     19  HXT VAL A   1       0.299   2.248  20.601  0.00  0.00    +0.000 HD
ENDBRANCH  16  18
ENDBRANCH  12  16
ENDBRANCH   3  12
TORSDOF 5
ENDMDL
