MODEL 1
REMARK VINA RESULT:      -7.8      0.000      0.000
REMARK  Name = 
REMARK  11 active torsions:
REMARK  status: ('A' for Active; 'I' for Inactive)
REMARK    1  A    between atoms: C_1  and  O_2
REMARK    2  A    between atoms: O_2  and  C_3
REMARK    3  A    between atoms: C_6  and  C_7
REMARK    4  A    between atoms: N_9  and  C_10
REMARK    5  A    between atoms: C_10  and  C_11
REMARK    6  A    between atoms: C_14  and  S_15
REMARK    7  A    between atoms: S_15  and  C_16
REMARK    8  A    between atoms: C_16  and  C_17
REMARK    9  A    between atoms: C_22  and  C_23
REMARK   10  A    between atoms: C_28  and  O_29
REMARK   11  A    between atoms: O_29  and  C_30
REMARK                            x       y       z     vdW  Elec       q    Type
REMARK                         _______ _______ _______ _____ _____    ______ ____
ROOT
ATOM      1  C   UNL     1       0.500  10.115  21.025  0.00  0.00    +0.000 A 
ATOM      2  N   UNL     1       0.866   9.835  22.259  0.00  0.00    +0.000 NA
ATOM      3  N   UNL     1      -0.061  10.434  23.081  0.00  0.00    +0.000 NA
ATOM      4  C   UNL     1      -0.926  11.050  22.297  0.00  0.00    +0.000 A 
ATOM      5  O   UNL     1      -0.639  10.874  20.971  0.00  0.00    +0.000 OA
ENDROOT
BRANCH   1   6
ATOM      6  C   UNL     1       1.151   9.771  19.739  0.00  0.00    +0.000 C 
BRANCH   6   9
ATOM      7  C   UNL     1       2.268   7.921  18.622  0.00  0.00    +0.000 C 
ATOM      8  O   UNL     1       2.404   8.585  17.596  0.00  0.00    +0.000 OA
ATOM      9  N   UNL     1       1.652   8.412  19.749  0.00  0.00    +0.000 N 
ATOM     10  H   UNL     1       1.392   7.785  20.501  0.00  0.00    +0.000 HD
BRANCH   7  14
ATOM     11  C   UNL     1       3.748   3.897  18.485  0.00  0.00    +0.000 A 
ATOM     12  C   UNL     1       2.420   4.193  18.142  0.00  0.00    +0.000 A 
ATOM     13  C   UNL     1       1.939   5.503  18.207  0.00  0.00    +0.000 A 
ATOM     14  C   UNL     1       2.768   6.524  18.670  0.00  0.00    +0.000 A 
ATOM     15  C   UNL     1       4.064   6.222  19.095  0.00  0.00    +0.000 A 
ATOM     16  C   UNL     1       4.562   4.910  19.018  0.00  0.00    +0.000 A 
BRANCH  11  18
ATOM     17  C   UNL     1       3.275   1.587  18.313  0.00  0.00    +0.000 C 
ATOM     18  O   UNL     1       4.246   2.632  18.321  0.00  0.00    +0.000 OA
ENDBRANCH  11  18
BRANCH  16  19
ATOM     19  O   UNL     1       5.852   4.834  19.471  0.00  0.00    +0.000 OA
ATOM     20  C   UNL     1       6.897   5.393  18.689  0.00  0.00    +0.000 C 
ENDBRANCH  16  19
ENDBRANCH   7  14
ENDBRANCH   6   9
ENDBRANCH   1   6
BRANCH   4  21
ATOM     21  S   UNL     1      -2.236  12.029  22.869  0.00  0.00    +0.000 S 
BRANCH  21  22
ATOM     22  C   UNL     1      -2.398  13.215  21.503  0.00  0.00    +0.000 C 
BRANCH  22  23
ATOM     23  C   UNL     1      -3.243  12.637  20.376  0.00  0.00    +0.000 C 
ATOM     24  O   UNL     1      -4.455  12.492  20.533  0.00  0.00    +0.000 OA
ATOM     25  N   UNL     1      -2.513  12.298  19.253  0.00  0.00    +0.000 N 
ATOM     26  C   UNL     1      -3.071  11.785  18.099  0.00  0.00    +0.000 A 
ATOM     27  C   UNL     1      -2.318  11.207  17.045  0.00  0.00    +0.000 A 
ATOM     28  C   UNL     1      -3.259  10.818  16.121  0.00  0.00    +0.000 A 
ATOM     29  C   UNL     1      -3.219  10.135  14.817  0.00  0.00    +0.000 C 
ATOM     30  O   UNL     1      -4.490  11.165  16.572  0.00  0.00    +0.000 OA
ATOM     31  N   UNL     1      -4.374  11.767  17.806  0.00  0.00    +0.000 NA
ATOM     32  H   UNL     1      -1.499  12.283  19.305  0.00  0.00    +0.000 HD
ENDBRANCH  22  23
ENDBRANCH  21  22
ENDBRANCH   4  21
TORSDOF 8
ENDMDL
MODEL 2
REMARK VINA RESULT:      -7.8      1.295      1.763
REMARK  Name = 
REMARK  11 active torsions:
REMARK  status: ('A' for Active; 'I' for Inactive)
REMARK    1  A    between atoms: C_1  and  O_2
REMARK    2  A    between atoms: O_2  and  C_3
REMARK    3  A    between atoms: C_6  and  C_7
REMARK    4  A    between atoms: N_9  and  C_10
REMARK    5  A    between atoms: C_10  and  C_11
REMARK    6  A    between atoms: C_14  and  S_15
REMARK    7  A    between atoms: S_15  and  C_16
REMARK    8  A    between atoms: C_16  and  C_17
REMARK    9  A    between atoms: C_22  and  C_23
REMARK   10  A    between atoms: C_28  and  O_29
REMARK   11  A    between atoms: O_29  and  C_30
REMARK                            x       y       z     vdW  Elec       q    Type
REMARK                         _______ _______ _______ _____ _____    ______ ____
ROOT
ATOM      1  C   UNL     1       0.481  10.929  20.145  0.00  0.00    +0.000 A 
ATOM      2  N   UNL     1       1.240  11.583  21.000  0.00  0.00    +0.000 NA
ATOM      3  N   UNL     1       0.394  12.077  21.967  0.00  0.00    +0.000 NA
ATOM      4  C   UNL     1      -0.827  11.703  21.634  0.00  0.00    +0.000 A 
ATOM      5  O   UNL     1      -0.845  10.953  20.490  0.00  0.00    +0.000 OA
ENDROOT
BRANCH   1   6
ATOM      6  C   UNL     1       0.845  10.236  18.887  0.00  0.00    +0.000 C 
BRANCH   6   9
ATOM      7  C   UNL     1       2.240   8.378  18.169  0.00  0.00    +0.000 C 
ATOM      8  O   UNL     1       2.407   8.892  17.064  0.00  0.00    +0.000 OA
ATOM      9  N   UNL     1       1.475   8.959  19.152  0.00  0.00    +0.000 N 
ATOM     10  H   UNL     1       1.209   8.427  19.972  0.00  0.00    +0.000 HD
BRANCH   7  14
ATOM     11  C   UNL     1       4.270   4.735  19.176  0.00  0.00    +0.000 A 
ATOM     12  C   UNL     1       4.640   5.484  18.048  0.00  0.00    +0.000 A 
ATOM     13  C   UNL     1       3.963   6.659  17.716  0.00  0.00    +0.000 A 
ATOM     14  C   UNL     1       2.870   7.069  18.477  0.00  0.00    +0.000 A 
ATOM     15  C   UNL     1       2.441   6.283  19.550  0.00  0.00    +0.000 A 
ATOM     16  C   UNL     1       3.126   5.107  19.901  0.00  0.00    +0.000 A 
BRANCH  11  18
ATOM     17  C   UNL     1       4.335   2.385  19.431  0.00  0.00    +0.000 C 
ATOM     18  O   UNL     1       4.999   3.641  19.559  0.00  0.00    +0.000 OA
ENDBRANCH  11  18
BRANCH  16  19
ATOM     19  O   UNL     1       2.553   4.495  20.985  0.00  0.00    +0.000 OA
ATOM     20  C   UNL     1       1.269   3.905  20.851  0.00  0.00    +0.000 C 
ENDBRANCH  16  19
ENDBRANCH   7  14
ENDBRANCH   6   9
ENDBRANCH   1   6
BRANCH   4  21
ATOM     21  S   UNL     1      -2.257  12.163  22.497  0.00  0.00    +0.000 S 
BRANCH  21  22
ATOM     22  C   UNL     1      -2.975  13.372  21.348  0.00  0.00    +0.000 C 
BRANCH  22  23
ATOM     23  C   UNL     1      -3.675  12.675  20.189  0.00  0.00    +0.000 C 
ATOM     24  O   UNL     1      -4.869  12.394  20.276  0.00  0.00    +0.000 OA
ATOM     25  N   UNL     1      -2.840  12.400  19.123  0.00  0.00    +0.000 N 
ATOM     26  C   UNL     1      -3.260  11.800  17.952  0.00  0.00    +0.000 A 
ATOM     27  C   UNL     1      -2.379  11.291  16.963  0.00  0.00    +0.000 A 
ATOM     28  C   UNL     1      -3.208  10.775  15.995  0.00  0.00    +0.000 A 
ATOM     29  C   UNL     1      -3.006  10.073  14.717  0.00  0.00    +0.000 C 
ATOM     30  O   UNL     1      -4.498  10.986  16.360  0.00  0.00    +0.000 OA
ATOM     31  N   UNL     1      -4.530  11.624  17.581  0.00  0.00    +0.000 NA
ATOM     32  H   UNL     1      -1.836  12.504  19.237  0.00  0.00    +0.000 HD
ENDBRANCH  22  23
ENDBRANCH  21  22
ENDBRANCH   4  21
TORSDOF 8
ENDMDL
MODEL 3
REMARK VINA RESULT:      -7.7      3.769      9.549
REMARK  Name = 
REMARK  11 active torsions:
REMARK  status: ('A' for Active; 'I' for Inactive)
REMARK    1  A    between atoms: C_1  and  O_2
REMARK    2  A    between atoms: O_2  and  C_3
REMARK    3  A    between atoms: C_6  and  C_7
REMARK    4  A    between atoms: N_9  and  C_10
REMARK    5  A    between atoms: C_10  and  C_11
REMARK    6  A    between atoms: C_14  and  S_15
REMARK    7  A    between atoms: S_15  and  C_16
REMARK    8  A    between atoms: C_16  and  C_17
REMARK    9  A    between atoms: C_22  and  C_23
REMARK   10  A    between atoms: C_28  and  O_29
REMARK   11  A    between atoms: O_29  and  C_30
REMARK                            x       y       z     vdW  Elec       q    Type
REMARK                         _______ _______ _______ _____ _____    ______ ____
ROOT
ATOM      1  C   UNL     1       2.255   5.894  19.424  0.00  0.00    +0.000 A 
ATOM      2  N   UNL     1       2.012   5.646  20.695  0.00  0.00    +0.000 NA
ATOM      3  N   UNL     1       1.863   4.281  20.799  0.00  0.00    +0.000 NA
ATOM      4  C   UNL     1       2.014   3.786  19.585  0.00  0.00    +0.000 A 
ATOM      5  O   UNL     1       2.284   4.757  18.660  0.00  0.00    +0.000 OA
ENDROOT
BRANCH   1   6
ATOM      6  C   UNL     1       2.452   7.187  18.729  0.00  0.00    +0.000 C 
BRANCH   6   9
ATOM      7  C   UNL     1       1.569   9.453  18.781  0.00  0.00    +0.000 C 
ATOM      8  O   UNL     1       1.883   9.633  17.606  0.00  0.00    +0.000 OA
ATOM      9  N   UNL     1       1.810   8.272  19.443  0.00  0.00    +0.000 N 
ATOM     10  H   UNL     1       1.711   8.223  20.450  0.00  0.00    +0.000 HD
BRANCH   7  14
ATOM     11  C   UNL     1      -0.560  12.560  20.834  0.00  0.00    +0.000 A 
ATOM     12  C   UNL     1       0.032  12.792  19.582  0.00  0.00    +0.000 A 
ATOM     13  C   UNL     1       0.739  11.781  18.928  0.00  0.00    +0.000 A 
ATOM     14  C   UNL     1       0.911  10.542  19.545  0.00  0.00    +0.000 A 
ATOM     15  C   UNL     1       0.399  10.333  20.828  0.00  0.00    +0.000 A 
ATOM     16  C   UNL     1      -0.328  11.339  21.488  0.00  0.00    +0.000 A 
BRANCH  11  18
ATOM     17  C   UNL     1      -0.634  14.511  22.168  0.00  0.00    +0.000 C 
ATOM     18  O   UNL     1      -1.340  13.518  21.425  0.00  0.00    +0.000 OA
ENDBRANCH  11  18
BRANCH  16  19
ATOM     19  O   UNL     1      -0.750  10.927  22.724  0.00  0.00    +0.000 OA
ATOM     20  C   UNL     1      -0.323   9.667  23.220  0.00  0.00    +0.000 C 
ENDBRANCH  16  19
ENDBRANCH   7  14
ENDBRANCH   6   9
ENDBRANCH   1   6
BRANCH   4  21
ATOM     21  S   UNL     1       1.824   2.111  19.184  0.00  0.00    +0.000 S 
BRANCH  21  22
ATOM     22  C   UNL     1       3.408   1.776  18.361  0.00  0.00    +0.000 C 
BRANCH  22  23
ATOM     23  C   UNL     1       4.490   2.730  18.848  0.00  0.00    +0.000 C 
ATOM     24  O   UNL     1       4.949   2.605  19.983  0.00  0.00    +0.000 OA
ATOM     25  N   UNL     1       4.835   3.696  17.923  0.00  0.00    +0.000 N 
ATOM     26  C   UNL     1       5.811   4.649  18.134  0.00  0.00    +0.000 A 
ATOM     27  C   UNL     1       6.001   5.785  17.306  0.00  0.00    +0.000 A 
ATOM     28  C   UNL     1       7.050   6.461  17.882  0.00  0.00    +0.000 A 
ATOM     29  C   UNL     1       7.763   7.717  17.596  0.00  0.00    +0.000 C 
ATOM     30  O   UNL     1       7.483   5.766  18.963  0.00  0.00    +0.000 OA
ATOM     31  N   UNL     1       6.710   4.637  19.121  0.00  0.00    +0.000 NA
ATOM     32  H   UNL     1       4.259   3.821  17.096  0.00  0.00    +0.000 HD
ENDBRANCH  22  23
ENDBRANCH  21  22
ENDBRANCH   4  21
TORSDOF 8
ENDMDL
MODEL 4
REMARK VINA RESULT:      -7.7      3.113      9.654
REMARK  Name = 
REMARK  11 active torsions:
REMARK  status: ('A' for Active; 'I' for Inactive)
REMARK    1  A    between atoms: C_1  and  O_2
REMARK    2  A    between atoms: O_2  and  C_3
REMARK    3  A    between atoms: C_6  and  C_7
REMARK    4  A    between atoms: N_9  and  C_10
REMARK    5  A    between atoms: C_10  and  C_11
REMARK    6  A    between atoms: C_14  and  S_15
REMARK    7  A    between atoms: S_15  and  C_16
REMARK    8  A    between atoms: C_16  and  C_17
REMARK    9  A    between atoms: C_22  and  C_23
REMARK   10  A    between atoms: C_28  and  O_29
REMARK   11  A    between atoms: O_29  and  C_30
REMARK                            x       y       z     vdW  Elec       q    Type
REMARK                         _______ _______ _______ _____ _____    ______ ____
ROOT
ATOM      1  C   UNL     1       2.105   6.085  19.797  0.00  0.00    +0.000 A 
ATOM      2  N   UNL     1       1.521   5.436  20.784  0.00  0.00    +0.000 NA
ATOM      3  N   UNL     1       1.368   4.138  20.353  0.00  0.00    +0.000 NA
ATOM      4  C   UNL     1       1.859   4.080  19.130  0.00  0.00    +0.000 A 
ATOM      5  O   UNL     1       2.363   5.283  18.716  0.00  0.00    +0.000 OA
ENDROOT
BRANCH   1   6
ATOM      6  C   UNL     1       2.470   7.516  19.686  0.00  0.00    +0.000 C 
BRANCH   6   9
ATOM      7  C   UNL     1       1.076   9.407  19.056  0.00  0.00    +0.000 C 
ATOM      8  O   UNL     1       1.789   9.646  18.083  0.00  0.00    +0.000 OA
ATOM      9  N   UNL     1       1.327   8.372  19.926  0.00  0.00    +0.000 N 
ATOM     10  H   UNL     1       0.836   8.320  20.810  0.00  0.00    +0.000 HD
BRANCH   7  14
ATOM     11  C   UNL     1      -2.165  12.103  19.849  0.00  0.00    +0.000 A 
ATOM     12  C   UNL     1      -1.282  11.711  20.868  0.00  0.00    +0.000 A 
ATOM     13  C   UNL     1      -0.240  10.819  20.606  0.00  0.00    +0.000 A 
ATOM     14  C   UNL     1      -0.104  10.263  19.335  0.00  0.00    +0.000 A 
ATOM     15  C   UNL     1      -1.031  10.582  18.339  0.00  0.00    +0.000 A 
ATOM     16  C   UNL     1      -2.074  11.491  18.588  0.00  0.00    +0.000 A 
BRANCH  11  18
ATOM     17  C   UNL     1      -4.055  12.748  21.115  0.00  0.00    +0.000 C 
ATOM     18  O   UNL     1      -3.120  13.056  20.082  0.00  0.00    +0.000 OA
ENDBRANCH  11  18
BRANCH  16  19
ATOM     19  O   UNL     1      -2.859  11.673  17.481  0.00  0.00    +0.000 OA
ATOM     20  C   UNL     1      -2.640  10.865  16.334  0.00  0.00    +0.000 C 
ENDBRANCH  16  19
ENDBRANCH   7  14
ENDBRANCH   6   9
ENDBRANCH   1   6
BRANCH   4  21
ATOM     21  S   UNL     1       1.812   2.669  18.125  0.00  0.00    +0.000 S 
BRANCH  21  22
ATOM     22  C   UNL     1       3.274   1.774  18.725  0.00  0.00    +0.000 C 
BRANCH  22  23
ATOM     23  C   UNL     1       4.385   2.741  19.112  0.00  0.00    +0.000 C 
ATOM     24  O   UNL     1       4.899   2.667  20.228  0.00  0.00    +0.000 OA
ATOM     25  N   UNL     1       4.690   3.657  18.125  0.00  0.00    +0.000 N 
ATOM     26  C   UNL     1       5.683   4.610  18.241  0.00  0.00    +0.000 A 
ATOM     27  C   UNL     1       5.840   5.703  17.350  0.00  0.00    +0.000 A 
ATOM     28  C   UNL     1       6.921   6.397  17.840  0.00  0.00    +0.000 A 
ATOM     29  C   UNL     1       7.627   7.631  17.458  0.00  0.00    +0.000 C 
ATOM     30  O   UNL     1       7.401   5.751  18.932  0.00  0.00    +0.000 OA
ATOM     31  N   UNL     1       6.629   4.638  19.183  0.00  0.00    +0.000 NA
ATOM     32  H   UNL     1       4.075   3.747  17.322  0.00  0.00    +0.000 HD
ENDBRANCH  22  23
ENDBRANCH  21  22
ENDBRANCH   4  21
TORSDOF 8
ENDMDL
MODEL 5
REMARK VINA RESULT:      -7.6      4.048     10.080
REMARK  Name = 
REMARK  11 active torsions:
REMARK  status: ('A' for Active; 'I' for Inactive)
REMARK    1  A    between atoms: C_1  and  O_2
REMARK    2  A    between atoms: O_2  and  C_3
REMARK    3  A    between atoms: C_6  and  C_7
REMARK    4  A    between atoms: N_9  and  C_10
REMARK    5  A    between atoms: C_10  and  C_11
REMARK    6  A    between atoms: C_14  and  S_15
REMARK    7  A    between atoms: S_15  and  C_16
REMARK    8  A    between atoms: C_16  and  C_17
REMARK    9  A    between atoms: C_22  and  C_23
REMARK   10  A    between atoms: C_28  and  O_29
REMARK   11  A    between atoms: O_29  and  C_30
REMARK                            x       y       z     vdW  Elec       q    Type
REMARK                         _______ _______ _______ _____ _____    ______ ____
ROOT
ATOM      1  C   UNL     1       2.860   7.235  18.484  0.00  0.00    +0.000 A 
ATOM      2  N   UNL     1       2.282   6.545  19.447  0.00  0.00    +0.000 NA
ATOM      3  N   UNL     1       3.187   5.578  19.823  0.00  0.00    +0.000 NA
ATOM      4  C   UNL     1       4.253   5.734  19.060  0.00  0.00    +0.000 A 
ATOM      5  O   UNL     1       4.120   6.784  18.194  0.00  0.00    +0.000 OA
ENDROOT
BRANCH   1   6
ATOM      6  C   UNL     1       2.336   8.361  17.676  0.00  0.00    +0.000 C 
BRANCH   6   9
ATOM      7  C   UNL     1       1.173  10.329  18.506  0.00  0.00    +0.000 C 
ATOM      8  O   UNL     1       2.111  11.056  18.182  0.00  0.00    +0.000 OA
ATOM      9  N   UNL     1       1.182   8.969  18.306  0.00  0.00    +0.000 N 
ATOM     10  H   UNL     1       0.484   8.385  18.750  0.00  0.00    +0.000 HD
BRANCH   7  14
ATOM     11  C   UNL     1      -2.176  12.277  20.347  0.00  0.00    +0.000 A 
ATOM     12  C   UNL     1      -0.995  12.034  21.065  0.00  0.00    +0.000 A 
ATOM     13  C   UNL     1       0.085  11.383  20.464  0.00  0.00    +0.000 A 
ATOM     14  C   UNL     1      -0.026  10.917  19.155  0.00  0.00    +0.000 A 
ATOM     15  C   UNL     1      -1.229  11.078  18.464  0.00  0.00    +0.000 A 
ATOM     16  C   UNL     1      -2.316  11.746  19.054  0.00  0.00    +0.000 A 
BRANCH  11  18
ATOM     17  C   UNL     1      -3.004  14.421  20.904  0.00  0.00    +0.000 C 
ATOM     18  O   UNL     1      -3.193  13.007  20.903  0.00  0.00    +0.000 OA
ENDBRANCH  11  18
BRANCH  16  19
ATOM     19  O   UNL     1      -3.390  11.807  18.206  0.00  0.00    +0.000 OA
ATOM     20  C   UNL     1      -3.790  10.638  17.507  0.00  0.00    +0.000 C 
ENDBRANCH  16  19
ENDBRANCH   7  14
ENDBRANCH   6   9
ENDBRANCH   1   6
BRANCH   4  21
ATOM     21  S   UNL     1       5.636   4.691  19.093  0.00  0.00    +0.000 S 
BRANCH  21  22
ATOM     22  C   UNL     1       6.958   5.865  18.679  0.00  0.00    +0.000 C 
BRANCH  22  23
ATOM     23  C   UNL     1       7.182   5.926  17.174  0.00  0.00    +0.000 C 
ATOM     24  O   UNL     1       7.753   6.897  16.679  0.00  0.00    +0.000 OA
ATOM     25  N   UNL     1       6.669   4.839  16.494  0.00  0.00    +0.000 N 
ATOM     26  C   UNL     1       6.780   4.664  15.128  0.00  0.00    +0.000 A 
ATOM     27  C   UNL     1       6.052   3.694  14.392  0.00  0.00    +0.000 A 
ATOM     28  C   UNL     1       6.448   3.879  13.089  0.00  0.00    +0.000 A 
ATOM     29  C   UNL     1       6.098   3.269  11.796  0.00  0.00    +0.000 C 
ATOM     30  O   UNL     1       7.373   4.871  13.046  0.00  0.00    +0.000 OA
ATOM     31  N   UNL     1       7.578   5.362  14.316  0.00  0.00    +0.000 NA
ATOM     32  H   UNL     1       6.053   4.194  16.978  0.00  0.00    +0.000 HD
ENDBRANCH  22  23
ENDBRANCH  21  22
ENDBRANCH   4  21
TORSDOF 8
ENDMDL
MODEL 6
REMARK VINA RESULT:      -7.6      3.145      9.625
REMARK  Name = 
REMARK  11 active torsions:
REMARK  status: ('A' for Active; 'I' for Inactive)
REMARK    1  A    between atoms: C_1  and  O_2
REMARK    2  A    between atoms: O_2  and  C_3
REMARK    3  A    between atoms: C_6  and  C_7
REMARK    4  A    between atoms: N_9  and  C_10
REMARK    5  A    between atoms: C_10  and  C_11
REMARK    6  A    between atoms: C_14  and  S_15
REMARK    7  A    between atoms: S_15  and  C_16
REMARK    8  A    between atoms: C_16  and  C_17
REMARK    9  A    between atoms: C_22  and  C_23
REMARK   10  A    between atoms: C_28  and  O_29
REMARK   11  A    between atoms: O_29  and  C_30
REMARK                            x       y       z     vdW  Elec       q    Type
REMARK                         _______ _______ _______ _____ _____    ______ ____
ROOT
ATOM      1  C   UNL     1       2.147   6.239  19.222  0.00  0.00    +0.000 A 
ATOM      2  N   UNL     1       2.201   6.006  17.926  0.00  0.00    +0.000 NA
ATOM      3  N   UNL     1       2.057   4.645  17.774  0.00  0.00    +0.000 NA
ATOM      4  C   UNL     1       1.934   4.135  18.985  0.00  0.00    +0.000 A 
ATOM      5  O   UNL     1       1.966   5.097  19.957  0.00  0.00    +0.000 OA
ENDROOT
BRANCH   1   6
ATOM      6  C   UNL     1       2.291   7.513  19.965  0.00  0.00    +0.000 C 
BRANCH   6   9
ATOM      7  C   UNL     1       1.101   9.324  18.860  0.00  0.00    +0.000 C 
ATOM      8  O   UNL     1       2.057   9.536  18.116  0.00  0.00    +0.000 OA
ATOM      9  N   UNL     1       1.112   8.342  19.823  0.00  0.00    +0.000 N 
ATOM     10  H   UNL     1       0.391   8.319  20.534  0.00  0.00    +0.000 HD
BRANCH   7  14
ATOM     11  C   UNL     1      -2.582  11.510  18.629  0.00  0.00    +0.000 A 
ATOM     12  C   UNL     1      -2.233  10.572  17.645  0.00  0.00    +0.000 A 
ATOM     13  C   UNL     1      -1.023   9.878  17.717  0.00  0.00    +0.000 A 
ATOM     14  C   UNL     1      -0.123  10.154  18.745  0.00  0.00    +0.000 A 
ATOM     15  C   UNL     1      -0.427  11.148  19.679  0.00  0.00    +0.000 A 
ATOM     16  C   UNL     1      -1.648  11.842  19.624  0.00  0.00    +0.000 A 
BRANCH  11  18
ATOM     17  C   UNL     1      -4.692  11.684  17.576  0.00  0.00    +0.000 C 
ATOM     18  O   UNL     1      -3.812  12.113  18.614  0.00  0.00    +0.000 OA
ENDBRANCH  11  18
BRANCH  16  19
ATOM     19  O   UNL     1      -1.752  12.760  20.635  0.00  0.00    +0.000 OA
ATOM     20  C   UNL     1      -2.437  12.407  21.827  0.00  0.00    +0.000 C 
ENDBRANCH  16  19
ENDBRANCH   7  14
ENDBRANCH   6   9
ENDBRANCH   1   6
BRANCH   4  21
ATOM     21  S   UNL     1       1.819   2.440  19.323  0.00  0.00    +0.000 S 
BRANCH  21  22
ATOM     22  C   UNL     1       3.420   1.857  18.694  0.00  0.00    +0.000 C 
BRANCH  22  23
ATOM     23  C   UNL     1       4.540   2.810  19.086  0.00  0.00    +0.000 C 
ATOM     24  O   UNL     1       5.089   2.693  20.181  0.00  0.00    +0.000 OA
ATOM     25  N   UNL     1       4.813   3.767  18.127  0.00  0.00    +0.000 N 
ATOM     26  C   UNL     1       5.807   4.718  18.251  0.00  0.00    +0.000 A 
ATOM     27  C   UNL     1       5.933   5.847  17.402  0.00  0.00    +0.000 A 
ATOM     28  C   UNL     1       7.027   6.524  17.886  0.00  0.00    +0.000 A 
ATOM     29  C   UNL     1       7.719   7.775  17.533  0.00  0.00    +0.000 C 
ATOM     30  O   UNL     1       7.543   5.836  18.935  0.00  0.00    +0.000 OA
ATOM     31  N   UNL     1       6.781   4.711  19.164  0.00  0.00    +0.000 NA
ATOM     32  H   UNL     1       4.173   3.888  17.349  0.00  0.00    +0.000 HD
ENDBRANCH  22  23
ENDBRANCH  21  22
ENDBRANCH   4  21
TORSDOF 8
ENDMDL
MODEL 7
REMARK VINA RESULT:      -7.6      3.717      9.947
REMARK  Name = 
REMARK  11 active torsions:
REMARK  status: ('A' for Active; 'I' for Inactive)
REMARK    1  A    between atoms: C_1  and  O_2
REMARK    2  A    between atoms: O_2  and  C_3
REMARK    3  A    between atoms: C_6  and  C_7
REMARK    4  A    between atoms: N_9  and  C_10
REMARK    5  A    between atoms: C_10  and  C_11
REMARK    6  A    between atoms: C_14  and  S_15
REMARK    7  A    between atoms: S_15  and  C_16
REMARK    8  A    between atoms: C_16  and  C_17
REMARK    9  A    between atoms: C_22  and  C_23
REMARK   10  A    between atoms: C_28  and  O_29
REMARK   11  A    between atoms: O_29  and  C_30
REMARK                            x       y       z     vdW  Elec       q    Type
REMARK                         _______ _______ _______ _____ _____    ______ ____
ROOT
ATOM      1  C   UNL     1       2.588   8.036  18.415  0.00  0.00    +0.000 A 
ATOM      2  N   UNL     1       2.829   7.599  17.195  0.00  0.00    +0.000 NA
ATOM      3  N   UNL     1       3.359   6.337  17.337  0.00  0.00    +0.000 NA
ATOM      4  C   UNL     1       3.418   6.089  18.632  0.00  0.00    +0.000 A 
ATOM      5  O   UNL     1       2.926   7.124  19.379  0.00  0.00    +0.000 OA
ENDROOT
BRANCH   1   6
ATOM      6  C   UNL     1       2.062   9.345  18.869  0.00  0.00    +0.000 C 
BRANCH   6   9
ATOM      7  C   UNL     1      -0.061  10.523  19.011  0.00  0.00    +0.000 C 
ATOM      8  O   UNL     1       0.350  11.211  19.944  0.00  0.00    +0.000 OA
ATOM      9  N   UNL     1       0.707   9.558  18.403  0.00  0.00    +0.000 N 
ATOM     10  H   UNL     1       0.281   8.890  17.772  0.00  0.00    +0.000 HD
BRANCH   7  14
ATOM     11  C   UNL     1      -3.977  11.313  17.448  0.00  0.00    +0.000 A 
ATOM     12  C   UNL     1      -3.539  11.907  18.642  0.00  0.00    +0.000 A 
ATOM     13  C   UNL     1      -2.270  11.631  19.155  0.00  0.00    +0.000 A 
ATOM     14  C   UNL     1      -1.444  10.712  18.508  0.00  0.00    +0.000 A 
ATOM     15  C   UNL     1      -1.907  10.052  17.367  0.00  0.00    +0.000 A 
ATOM     16  C   UNL     1      -3.177  10.335  16.834  0.00  0.00    +0.000 A 
BRANCH  11  18
ATOM     17  C   UNL     1      -6.310  11.543  17.754  0.00  0.00    +0.000 C 
ATOM     18  O   UNL     1      -5.178  11.664  16.893  0.00  0.00    +0.000 OA
ENDBRANCH  11  18
BRANCH  16  19
ATOM     19  O   UNL     1      -3.429   9.591  15.712  0.00  0.00    +0.000 OA
ATOM     20  C   UNL     1      -3.281  10.190  14.434  0.00  0.00    +0.000 C 
ENDBRANCH  16  19
ENDBRANCH   7  14
ENDBRANCH   6   9
ENDBRANCH   1   6
BRANCH   4  21
ATOM     21  S   UNL     1       4.102   4.654  19.320  0.00  0.00    +0.000 S 
BRANCH  21  22
ATOM     22  C   UNL     1       5.844   5.143  19.467  0.00  0.00    +0.000 C 
BRANCH  22  23
ATOM     23  C   UNL     1       6.429   5.497  18.107  0.00  0.00    +0.000 C 
ATOM     24  O   UNL     1       7.076   6.534  17.971  0.00  0.00    +0.000 OA
ATOM     25  N   UNL     1       6.129   4.579  17.119  0.00  0.00    +0.000 N 
ATOM     26  C   UNL     1       6.576   4.677  15.816  0.00  0.00    +0.000 A 
ATOM     27  C   UNL     1       6.078   3.889  14.746  0.00  0.00    +0.000 A 
ATOM     28  C   UNL     1       6.777   4.321  13.644  0.00  0.00    +0.000 A 
ATOM     29  C   UNL     1       6.771   3.989  12.210  0.00  0.00    +0.000 C 
ATOM     30  O   UNL     1       7.655   5.282  14.027  0.00  0.00    +0.000 OA
ATOM     31  N   UNL     1       7.529   5.504  15.381  0.00  0.00    +0.000 NA
ATOM     32  H   UNL     1       5.430   3.864  17.300  0.00  0.00    +0.000 HD
ENDBRANCH  22  23
ENDBRANCH  21  22
ENDBRANCH   4  21
TORSDOF 8
ENDMDL
MODEL 8
REMARK VINA RESULT:      -7.6      3.265      9.776
REMARK  Name = 
REMARK  11 active torsions:
REMARK  status: ('A' for Active; 'I' for Inactive)
REMARK    1  A    between atoms: C_1  and  O_2
REMARK    2  A    between atoms: O_2  and  C_3
REMARK    3  A    between atoms: C_6  and  C_7
REMARK    4  A    between atoms: N_9  and  C_10
REMARK    5  A    between atoms: C_10  and  C_11
REMARK    6  A    between atoms: C_14  and  S_15
REMARK    7  A    between atoms: S_15  and  C_16
REMARK    8  A    between atoms: C_16  and  C_17
REMARK    9  A    between atoms: C_22  and  C_23
REMARK   10  A    between atoms: C_28  and  O_29
REMARK   11  A    between atoms: O_29  and  C_30
REMARK                            x       y       z     vdW  Elec       q    Type
REMARK                         _______ _______ _______ _____ _____    ______ ____
ROOT
ATOM      1  C   UNL     1       2.153   6.052  19.454  0.00  0.00    +0.000 A 
ATOM      2  N   UNL     1       2.223   6.031  18.139  0.00  0.00    +0.000 NA
ATOM      3  N   UNL     1       2.034   4.720  17.764  0.00  0.00    +0.000 NA
ATOM      4  C   UNL     1       1.873   4.024  18.874  0.00  0.00    +0.000 A 
ATOM      5  O   UNL     1       1.920   4.813  19.991  0.00  0.00    +0.000 OA
ENDROOT
BRANCH   1   6
ATOM      6  C   UNL     1       2.328   7.181  20.398  0.00  0.00    +0.000 C 
BRANCH   6   9
ATOM      7  C   UNL     1       0.942   8.994  21.237  0.00  0.00    +0.000 C 
ATOM      8  O   UNL     1       1.396   8.854  22.372  0.00  0.00    +0.000 OA
ATOM      9  N   UNL     1       1.333   8.210  20.178  0.00  0.00    +0.000 N 
ATOM     10  H   UNL     1       0.809   8.227  19.311  0.00  0.00    +0.000 HD
BRANCH   7  14
ATOM     11  C   UNL     1      -1.812  12.200  20.502  0.00  0.00    +0.000 A 
ATOM     12  C   UNL     1      -1.411  11.873  21.807  0.00  0.00    +0.000 A 
ATOM     13  C   UNL     1      -0.528  10.817  22.040  0.00  0.00    +0.000 A 
ATOM     14  C   UNL     1      -0.080  10.037  20.975  0.00  0.00    +0.000 A 
ATOM     15  C   UNL     1      -0.544  10.303  19.683  0.00  0.00    +0.000 A 
ATOM     16  C   UNL     1      -1.420  11.374  19.436  0.00  0.00    +0.000 A 
BRANCH  11  18
ATOM     17  C   UNL     1      -2.817  14.146  21.393  0.00  0.00    +0.000 C 
ATOM     18  O   UNL     1      -2.594  13.299  20.267  0.00  0.00    +0.000 OA
ENDBRANCH  11  18
BRANCH  16  19
ATOM     19  O   UNL     1      -1.740  11.467  18.108  0.00  0.00    +0.000 OA
ATOM     20  C   UNL     1      -2.915  10.830  17.630  0.00  0.00    +0.000 C 
ENDBRANCH  16  19
ENDBRANCH   7  14
ENDBRANCH   6   9
ENDBRANCH   1   6
BRANCH   4  21
ATOM     21  S   UNL     1       1.692   2.302  18.928  0.00  0.00    +0.000 S 
BRANCH  21  22
ATOM     22  C   UNL     1       3.343   1.769  18.390  0.00  0.00    +0.000 C 
BRANCH  22  23
ATOM     23  C   UNL     1       4.415   2.733  18.880  0.00  0.00    +0.000 C 
ATOM     24  O   UNL     1       4.848   2.634  20.027  0.00  0.00    +0.000 OA
ATOM     25  N   UNL     1       4.782   3.677  17.940  0.00  0.00    +0.000 N 
ATOM     26  C   UNL     1       5.755   4.634  18.152  0.00  0.00    +0.000 A 
ATOM     27  C   UNL     1       5.965   5.751  17.302  0.00  0.00    +0.000 A 
ATOM     28  C   UNL     1       7.001   6.439  17.886  0.00  0.00    +0.000 A 
ATOM     29  C   UNL     1       7.722   7.688  17.588  0.00  0.00    +0.000 C 
ATOM     30  O   UNL     1       7.408   5.769  18.993  0.00  0.00    +0.000 OA
ATOM     31  N   UNL     1       6.631   4.644  19.160  0.00  0.00    +0.000 NA
ATOM     32  H   UNL     1       4.225   3.784  17.099  0.00  0.00    +0.000 HD
ENDBRANCH  22  23
ENDBRANCH  21  22
ENDBRANCH   4  21
TORSDOF 8
ENDMDL
MODEL 9
REMARK VINA RESULT:      -7.4      3.745     10.173
REMARK  Name = 
REMARK  11 active torsions:
REMARK  status: ('A' for Active; 'I' for Inactive)
REMARK    1  A    between atoms: C_1  and  O_2
REMARK    2  A    between atoms: O_2  and  C_3
REMARK    3  A    between atoms: C_6  and  C_7
REMARK    4  A    between atoms: N_9  and  C_10
REMARK    5  A    between atoms: C_10  and  C_11
REMARK    6  A    between atoms: C_14  and  S_15
REMARK    7  A    between atoms: S_15  and  C_16
REMARK    8  A    between atoms: C_16  and  C_17
REMARK    9  A    between atoms: C_22  and  C_23
REMARK   10  A    between atoms: C_28  and  O_29
REMARK   11  A    between atoms: O_29  and  C_30
REMARK                            x       y       z     vdW  Elec       q    Type
REMARK                         _______ _______ _______ _____ _____    ______ ____
ROOT
ATOM      1  C   UNL     1       1.993   7.549  19.823  0.00  0.00    +0.000 A 
ATOM      2  N   UNL     1       1.515   6.821  20.812  0.00  0.00    +0.000 NA
ATOM      3  N   UNL     1       2.084   5.575  20.681  0.00  0.00    +0.000 NA
ATOM      4  C   UNL     1       2.863   5.619  19.617  0.00  0.00    +0.000 A 
ATOM      5  O   UNL     1       2.867   6.854  19.029  0.00  0.00    +0.000 OA
ENDROOT
BRANCH   1   6
ATOM      6  C   UNL     1       1.694   8.950  19.443  0.00  0.00    +0.000 C 
BRANCH   6   9
ATOM      7  C   UNL     1       0.398  10.796  20.354  0.00  0.00    +0.000 C 
ATOM      8  O   UNL     1       1.250  11.608  19.996  0.00  0.00    +0.000 OA
ATOM      9  N   UNL     1       0.521   9.444  20.134  0.00  0.00    +0.000 N 
ATOM     10  H   UNL     1      -0.099   8.794  20.602  0.00  0.00    +0.000 HD
BRANCH   7  14
ATOM     11  C   UNL     1      -2.965  12.371  22.500  0.00  0.00    +0.000 A 
ATOM     12  C   UNL     1      -1.952  11.660  23.161  0.00  0.00    +0.000 A 
ATOM     13  C   UNL     1      -0.869  11.134  22.453  0.00  0.00    +0.000 A 
ATOM     14  C   UNL     1      -0.816  11.265  21.066  0.00  0.00    +0.000 A 
ATOM     15  C   UNL     1      -1.865  11.896  20.392  0.00  0.00    +0.000 A 
ATOM     16  C   UNL     1      -2.951  12.443  21.097  0.00  0.00    +0.000 A 
BRANCH  11  18
ATOM     17  C   UNL     1      -4.008  12.671  24.601  0.00  0.00    +0.000 C 
ATOM     18  O   UNL     1      -3.971  12.975  23.207  0.00  0.00    +0.000 OA
ENDBRANCH  11  18
BRANCH  16  19
ATOM     19  O   UNL     1      -3.858  13.025  20.252  0.00  0.00    +0.000 OA
ATOM     20  C   UNL     1      -4.404  12.262  19.186  0.00  0.00    +0.000 C 
ENDBRANCH  16  19
ENDBRANCH   7  14
ENDBRANCH   6   9
ENDBRANCH   1   6
BRANCH   4  21
ATOM     21  S   UNL     1       3.730   4.258  18.985  0.00  0.00    +0.000 S 
BRANCH  21  22
ATOM     22  C   UNL     1       5.444   4.768  19.301  0.00  0.00    +0.000 C 
BRANCH  22  23
ATOM     23  C   UNL     1       6.119   5.237  18.020  0.00  0.00    +0.000 C 
ATOM     24  O   UNL     1       6.716   6.313  18.002  0.00  0.00    +0.000 OA
ATOM     25  N   UNL     1       5.956   4.369  16.958  0.00  0.00    +0.000 N 
ATOM     26  C   UNL     1       6.504   4.572  15.707  0.00  0.00    +0.000 A 
ATOM     27  C   UNL     1       6.144   3.828  14.554  0.00  0.00    +0.000 A 
ATOM     28  C   UNL     1       6.907   4.365  13.544  0.00  0.00    +0.000 A 
ATOM     29  C   UNL     1       7.040   4.123  12.098  0.00  0.00    +0.000 C 
ATOM     30  O   UNL     1       7.694   5.343  14.058  0.00  0.00    +0.000 OA
ATOM     31  N   UNL     1       7.442   5.473  15.406  0.00  0.00    +0.000 NA
ATOM     32  H   UNL     1       5.287   3.609  17.035  0.00  0.00    +0.000 HD
ENDBRANCH  22  23
ENDBRANCH  21  22
ENDBRANCH   4  21
TORSDOF 8
ENDMDL
