MODEL 1
REMARK VINA RESULT:      -7.7      0.000      0.000
REMARK  Name = 
REMARK  11 active torsions:
REMARK  status: ('A' for Active; 'I' for Inactive)
REMARK    1  A    between atoms: C_1  and  O_2
REMARK    2  A    between atoms: O_2  and  C_3
REMARK    3  A    between atoms: C_7  and  C_8
REMARK    4  A    between atoms: C_10  and  S_11
REMARK    5  A    between atoms: S_11  and  C_12
REMARK    6  A    between atoms: C_12  and  C_13
REMARK    7  A    between atoms: N_15  and  C_16
REMARK    8  A    between atoms: C_16  and  C_17
REMARK    9  A    between atoms: C_16  and  C_18
REMARK   10  A    between atoms: C_23  and  C_24
REMARK   11  A    between atoms: C_28  and  O_29
REMARK                            x       y       z     vdW  Elec       q    Type
REMARK                         _______ _______ _______ _____ _____    ______ ____
ROOT
ATOM      1  C   UNL     1       3.427   5.539  19.181  0.00  0.00    +0.000 A 
ATOM      2  N   UNL     1       2.850   6.780  19.240  0.00  0.00    +0.000 NA
ATOM      3  C   UNL     1       1.895   7.027  20.160  0.00  0.00    +0.000 A 
ATOM      4  N   UNL     1       1.382   6.129  21.008  0.00  0.00    +0.000 NA
ATOM      5  C   UNL     1       1.941   4.921  20.906  0.00  0.00    +0.000 A 
ATOM      6  N   UNL     1       1.544   3.849  21.653  0.00  0.00    +0.000 N 
ATOM      7  C   UNL     1       2.299   2.758  21.324  0.00  0.00    +0.000 A 
ATOM      8  C   UNL     1       3.228   3.151  20.376  0.00  0.00    +0.000 A 
ATOM      9  C   UNL     1       2.971   4.534  20.060  0.00  0.00    +0.000 A 
ATOM     10  H   UNL     1       0.794   3.890  22.331  0.00  0.00    +0.000 HD
ENDROOT
BRANCH   1  15
ATOM     11  C   UNL     1       6.448   4.894  16.159  0.00  0.00    +0.000 A 
ATOM     12  C   UNL     1       5.236   4.203  16.090  0.00  0.00    +0.000 A 
ATOM     13  C   UNL     1       4.228   4.409  17.044  0.00  0.00    +0.000 A 
ATOM     14 CL   UNL     1       2.756   3.522  16.811  0.00  0.00    +0.000 Cl
ATOM     15  C   UNL     1       4.416   5.301  18.117  0.00  0.00    +0.000 A 
ATOM     16  C   UNL     1       5.657   5.966  18.174  0.00  0.00    +0.000 A 
ATOM     17  C   UNL     1       6.632   5.812  17.188  0.00  0.00    +0.000 A 
BRANCH  11  19
ATOM     18  C   UNL     1       6.748   4.268  13.902  0.00  0.00    +0.000 C 
ATOM     19  O   UNL     1       7.334   4.604  15.157  0.00  0.00    +0.000 OA
ENDBRANCH  11  19
BRANCH  17  20
ATOM     20  O   UNL     1       7.749   6.592  17.269  0.00  0.00    +0.000 OA
ATOM     21  H   UNL     1       8.373   6.204  17.908  0.00  0.00    +0.000 HD
ENDBRANCH  17  20
ENDBRANCH   1  15
BRANCH   8  22
ATOM     22  C   UNL     1       4.198   2.248  19.830  0.00  0.00    +0.000 C 
ATOM     23  N   UNL     1       5.041   1.549  19.431  0.00  0.00    +0.000 NA
ENDBRANCH   8  22
BRANCH   3  24
ATOM     24  S   UNL     1       1.281   8.680  20.390  0.00  0.00    +0.000 S 
BRANCH  24  25
ATOM     25  C   UNL     1      -0.002   8.469  21.652  0.00  0.00    +0.000 C 
BRANCH  25  26
ATOM     26  C   UNL     1      -0.100   9.674  22.566  0.00  0.00    +0.000 C 
ATOM     27  O   UNL     1       0.353   9.677  23.708  0.00  0.00    +0.000 OA
ATOM     28  N   UNL     1      -0.715  10.768  21.992  0.00  0.00    +0.000 N 
ATOM     29  H   UNL     1      -1.277  10.591  21.163  0.00  0.00    +0.000 HD
BRANCH  28  30
ATOM     30  C   UNL     1      -0.948  11.994  22.738  0.00  0.00    +0.000 C 
ATOM     31  C   UNL     1      -0.524  13.201  21.907  0.00  0.00    +0.000 C 
ATOM     32  C   UNL     1      -2.413  12.121  23.151  0.00  0.00    +0.000 C 
ENDBRANCH  28  30
ENDBRANCH  25  26
ENDBRANCH  24  25
ENDBRANCH   3  24
TORSDOF 8
ENDMDL
MODEL 2
REMARK VINA RESULT:      -7.4      2.128      2.249
REMARK  Name = 
REMARK  11 active torsions:
REMARK  status: ('A' for Active; 'I' for Inactive)
REMARK    1  A    between atoms: C_1  and  O_2
REMARK    2  A    between atoms: O_2  and  C_3
REMARK    3  A    between atoms: C_7  and  C_8
REMARK    4  A    between atoms: C_10  and  S_11
REMARK    5  A    between atoms: S_11  and  C_12
REMARK    6  A    between atoms: C_12  and  C_13
REMARK    7  A    between atoms: N_15  and  C_16
REMARK    8  A    between atoms: C_16  and  C_17
REMARK    9  A    between atoms: C_16  and  C_18
REMARK   10  A    between atoms: C_23  and  C_24
REMARK   11  A    between atoms: C_28  and  O_29
REMARK                            x       y       z     vdW  Elec       q    Type
REMARK                         _______ _______ _______ _____ _____    ______ ____
ROOT
ATOM      1  C   UNL     1       3.447   5.458  19.203  0.00  0.00    +0.000 A 
ATOM      2  N   UNL     1       2.846   6.689  19.227  0.00  0.00    +0.000 NA
ATOM      3  C   UNL     1       1.875   6.938  20.128  0.00  0.00    +0.000 A 
ATOM      4  N   UNL     1       1.368   6.050  20.990  0.00  0.00    +0.000 NA
ATOM      5  C   UNL     1       1.950   4.851  20.923  0.00  0.00    +0.000 A 
ATOM      6  N   UNL     1       1.563   3.789  21.689  0.00  0.00    +0.000 N 
ATOM      7  C   UNL     1       2.343   2.705  21.394  0.00  0.00    +0.000 A 
ATOM      8  C   UNL     1       3.276   3.094  20.449  0.00  0.00    +0.000 A 
ATOM      9  C   UNL     1       2.998   4.465  20.099  0.00  0.00    +0.000 A 
ATOM     10  H   UNL     1       0.804   3.831  22.356  0.00  0.00    +0.000 HD
ENDROOT
BRANCH   1  15
ATOM     11  C   UNL     1       6.519   4.799  16.237  0.00  0.00    +0.000 A 
ATOM     12  C   UNL     1       5.312   4.103  16.154  0.00  0.00    +0.000 A 
ATOM     13  C   UNL     1       4.287   4.312  17.090  0.00  0.00    +0.000 A 
ATOM     14 CL   UNL     1       2.823   3.418  16.840  0.00  0.00    +0.000 Cl
ATOM     15  C   UNL     1       4.454   5.215  18.158  0.00  0.00    +0.000 A 
ATOM     16  C   UNL     1       5.691   5.886  18.229  0.00  0.00    +0.000 A 
ATOM     17  C   UNL     1       6.683   5.727  17.261  0.00  0.00    +0.000 A 
BRANCH  11  19
ATOM     18  C   UNL     1       6.942   4.652  13.919  0.00  0.00    +0.000 C 
ATOM     19  O   UNL     1       7.423   4.505  15.252  0.00  0.00    +0.000 OA
ENDBRANCH  11  19
BRANCH  17  20
ATOM     20  O   UNL     1       7.796   6.512  17.353  0.00  0.00    +0.000 OA
ATOM     21  H   UNL     1       8.170   6.444  18.249  0.00  0.00    +0.000 HD
ENDBRANCH  17  20
ENDBRANCH   1  15
BRANCH   8  22
ATOM     22  C   UNL     1       4.270   2.198  19.937  0.00  0.00    +0.000 C 
ATOM     23  N   UNL     1       5.092   1.445  19.593  0.00  0.00    +0.000 NA
ENDBRANCH   8  22
BRANCH   3  24
ATOM     24  S   UNL     1       1.228   8.584  20.314  0.00  0.00    +0.000 S 
BRANCH  24  25
ATOM     25  C   UNL     1       1.646   9.369  18.735  0.00  0.00    +0.000 C 
BRANCH  25  26
ATOM     26  C   UNL     1       0.853  10.641  18.509  0.00  0.00    +0.000 C 
ATOM     27  O   UNL     1       1.365  11.757  18.554  0.00  0.00    +0.000 OA
ATOM     28  N   UNL     1      -0.481  10.432  18.222  0.00  0.00    +0.000 N 
ATOM     29  H   UNL     1      -0.859   9.518  18.461  0.00  0.00    +0.000 HD
BRANCH  28  30
ATOM     30  C   UNL     1      -1.406  11.536  18.031  0.00  0.00    +0.000 C 
ATOM     31  C   UNL     1      -2.426  11.184  16.953  0.00  0.00    +0.000 C 
ATOM     32  C   UNL     1      -2.114  11.897  19.335  0.00  0.00    +0.000 C 
ENDBRANCH  28  30
ENDBRANCH  25  26
ENDBRANCH  24  25
ENDBRANCH   3  24
TORSDOF 8
ENDMDL
MODEL 3
REMARK VINA RESULT:      -7.3      1.913      2.164
REMARK  Name = 
REMARK  11 active torsions:
REMARK  status: ('A' for Active; 'I' for Inactive)
REMARK    1  A    between atoms: C_1  and  O_2
REMARK    2  A    between atoms: O_2  and  C_3
REMARK    3  A    between atoms: C_7  and  C_8
REMARK    4  A    between atoms: C_10  and  S_11
REMARK    5  A    between atoms: S_11  and  C_12
REMARK    6  A    between atoms: C_12  and  C_13
REMARK    7  A    between atoms: N_15  and  C_16
REMARK    8  A    between atoms: C_16  and  C_17
REMARK    9  A    between atoms: C_16  and  C_18
REMARK   10  A    between atoms: C_23  and  C_24
REMARK   11  A    between atoms: C_28  and  O_29
REMARK                            x       y       z     vdW  Elec       q    Type
REMARK                         _______ _______ _______ _____ _____    ______ ____
ROOT
ATOM      1  C   UNL     1       3.408   5.545  19.043  0.00  0.00    +0.000 A 
ATOM      2  N   UNL     1       2.833   6.789  19.065  0.00  0.00    +0.000 NA
ATOM      3  C   UNL     1       1.932   7.088  20.023  0.00  0.00    +0.000 A 
ATOM      4  N   UNL     1       1.471   6.240  20.949  0.00  0.00    +0.000 NA
ATOM      5  C   UNL     1       2.025   5.027  20.883  0.00  0.00    +0.000 A 
ATOM      6  N   UNL     1       1.674   4.001  21.712  0.00  0.00    +0.000 N 
ATOM      7  C   UNL     1       2.412   2.891  21.402  0.00  0.00    +0.000 A 
ATOM      8  C   UNL     1       3.283   3.229  20.381  0.00  0.00    +0.000 A 
ATOM      9  C   UNL     1       3.005   4.592  20.003  0.00  0.00    +0.000 A 
ATOM     10  H   UNL     1       0.965   4.081  22.428  0.00  0.00    +0.000 HD
ENDROOT
BRANCH   1  15
ATOM     11  C   UNL     1       6.250   4.730  15.892  0.00  0.00    +0.000 A 
ATOM     12  C   UNL     1       5.052   4.014  15.951  0.00  0.00    +0.000 A 
ATOM     13  C   UNL     1       4.101   4.272  16.949  0.00  0.00    +0.000 A 
ATOM     14 CL   UNL     1       2.638   3.344  16.876  0.00  0.00    +0.000 Cl
ATOM     15  C   UNL     1       4.335   5.246  17.940  0.00  0.00    +0.000 A 
ATOM     16  C   UNL     1       5.561   5.936  17.868  0.00  0.00    +0.000 A 
ATOM     17  C   UNL     1       6.476   5.727  16.836  0.00  0.00    +0.000 A 
BRANCH  11  19
ATOM     18  C   UNL     1       6.424   4.004  13.652  0.00  0.00    +0.000 C 
ATOM     19  O   UNL     1       7.079   4.383  14.860  0.00  0.00    +0.000 OA
ENDBRANCH  11  19
BRANCH  17  20
ATOM     20  O   UNL     1       7.579   6.531  16.789  0.00  0.00    +0.000 OA
ATOM     21  H   UNL     1       8.257   6.192  17.400  0.00  0.00    +0.000 HD
ENDBRANCH  17  20
ENDBRANCH   1  15
BRANCH   8  22
ATOM     22  C   UNL     1       4.222   2.296  19.833  0.00  0.00    +0.000 C 
ATOM     23  N   UNL     1       5.000   1.588  19.329  0.00  0.00    +0.000 NA
ENDBRANCH   8  22
BRANCH   3  24
ATOM     24  S   UNL     1       1.329   8.752  20.195  0.00  0.00    +0.000 S 
BRANCH  24  25
ATOM     25  C   UNL     1       1.267   9.344  18.484  0.00  0.00    +0.000 C 
BRANCH  25  26
ATOM     26  C   UNL     1       0.063  10.231  18.236  0.00  0.00    +0.000 C 
ATOM     27  O   UNL     1      -0.910   9.860  17.582  0.00  0.00    +0.000 OA
ATOM     28  N   UNL     1       0.144  11.474  18.831  0.00  0.00    +0.000 N 
ATOM     29  H   UNL     1       1.071  11.779  19.119  0.00  0.00    +0.000 HD
BRANCH  28  30
ATOM     30  C   UNL     1      -0.892  12.477  18.656  0.00  0.00    +0.000 C 
ATOM     31  C   UNL     1      -1.916  12.375  19.781  0.00  0.00    +0.000 C 
ATOM     32  C   UNL     1      -0.298  13.883  18.603  0.00  0.00    +0.000 C 
ENDBRANCH  28  30
ENDBRANCH  25  26
ENDBRANCH  24  25
ENDBRANCH   3  24
TORSDOF 8
ENDMDL
MODEL 4
REMARK VINA RESULT:      -7.2      2.562      2.781
REMARK  Name = 
REMARK  11 active torsions:
REMARK  status: ('A' for Active; 'I' for Inactive)
REMARK    1  A    between atoms: C_1  and  O_2
REMARK    2  A    between atoms: O_2  and  C_3
REMARK    3  A    between atoms: C_7  and  C_8
REMARK    4  A    between atoms: C_10  and  S_11
REMARK    5  A    between atoms: S_11  and  C_12
REMARK    6  A    between atoms: C_12  and  C_13
REMARK    7  A    between atoms: N_15  and  C_16
REMARK    8  A    between atoms: C_16  and  C_17
REMARK    9  A    between atoms: C_16  and  C_18
REMARK   10  A    between atoms: C_23  and  C_24
REMARK   11  A    between atoms: C_28  and  O_29
REMARK                            x       y       z     vdW  Elec       q    Type
REMARK                         _______ _______ _______ _____ _____    ______ ____
ROOT
ATOM      1  C   UNL     1       3.436   6.426  18.128  0.00  0.00    +0.000 A 
ATOM      2  N   UNL     1       2.967   7.655  17.742  0.00  0.00    +0.000 NA
ATOM      3  C   UNL     1       2.114   8.323  18.545  0.00  0.00    +0.000 A 
ATOM      4  N   UNL     1       1.602   7.861  19.691  0.00  0.00    +0.000 NA
ATOM      5  C   UNL     1       2.051   6.649  20.025  0.00  0.00    +0.000 A 
ATOM      6  N   UNL     1       1.632   5.978  21.137  0.00  0.00    +0.000 N 
ATOM      7  C   UNL     1       2.267   4.769  21.208  0.00  0.00    +0.000 A 
ATOM      8  C   UNL     1       3.144   4.684  20.140  0.00  0.00    +0.000 A 
ATOM      9  C   UNL     1       2.974   5.871  19.340  0.00  0.00    +0.000 A 
ATOM     10  H   UNL     1       0.946   6.345  21.784  0.00  0.00    +0.000 HD
ENDROOT
BRANCH   1  15
ATOM     11  C   UNL     1       6.138   4.397  15.435  0.00  0.00    +0.000 A 
ATOM     12  C   UNL     1       4.875   3.857  15.690  0.00  0.00    +0.000 A 
ATOM     13  C   UNL     1       3.968   4.506  16.543  0.00  0.00    +0.000 A 
ATOM     14 CL   UNL     1       2.418   3.752  16.733  0.00  0.00    +0.000 Cl
ATOM     15  C   UNL     1       4.312   5.709  17.188  0.00  0.00    +0.000 A 
ATOM     16  C   UNL     1       5.601   6.217  16.928  0.00  0.00    +0.000 A 
ATOM     17  C   UNL     1       6.476   5.608  16.029  0.00  0.00    +0.000 A 
BRANCH  11  19
ATOM     18  C   UNL     1       6.521   3.716  13.206  0.00  0.00    +0.000 C 
ATOM     19  O   UNL     1       6.912   3.666  14.575  0.00  0.00    +0.000 OA
ENDBRANCH  11  19
BRANCH  17  20
ATOM     20  O   UNL     1       7.653   6.244  15.755  0.00  0.00    +0.000 OA
ATOM     21  H   UNL     1       7.743   6.362  14.793  0.00  0.00    +0.000 HD
ENDBRANCH  17  20
ENDBRANCH   1  15
BRANCH   8  22
ATOM     22  C   UNL     1       3.990   3.547  19.930  0.00  0.00    +0.000 C 
ATOM     23  N   UNL     1       4.692   2.620  19.836  0.00  0.00    +0.000 NA
ENDBRANCH   8  22
BRANCH   3  24
ATOM     24  S   UNL     1       1.656   9.999  18.166  0.00  0.00    +0.000 S 
BRANCH  24  25
ATOM     25  C   UNL     1       0.668  10.489  19.603  0.00  0.00    +0.000 C 
BRANCH  25  26
ATOM     26  C   UNL     1      -0.755  10.840  19.218  0.00  0.00    +0.000 C 
ATOM     27  O   UNL     1      -1.530  11.401  19.988  0.00  0.00    +0.000 OA
ATOM     28  N   UNL     1      -1.089  10.501  17.922  0.00  0.00    +0.000 N 
ATOM     29  H   UNL     1      -0.487   9.823  17.461  0.00  0.00    +0.000 HD
BRANCH  28  30
ATOM     30  C   UNL     1      -2.428  10.711  17.396  0.00  0.00    +0.000 C 
ATOM     31  C   UNL     1      -2.384  10.796  15.874  0.00  0.00    +0.000 C 
ATOM     32  C   UNL     1      -3.377   9.600  17.839  0.00  0.00    +0.000 C 
ENDBRANCH  28  30
ENDBRANCH  25  26
ENDBRANCH  24  25
ENDBRANCH   3  24
TORSDOF 8
ENDMDL
MODEL 5
REMARK VINA RESULT:      -7.1      1.870      2.009
REMARK  Name = 
REMARK  11 active torsions:
REMARK  status: ('A' for Active; 'I' for Inactive)
REMARK    1  A    between atoms: C_1  and  O_2
REMARK    2  A    between atoms: O_2  and  C_3
REMARK    3  A    between atoms: C_7  and  C_8
REMARK    4  A    between atoms: C_10  and  S_11
REMARK    5  A    between atoms: S_11  and  C_12
REMARK    6  A    between atoms: C_12  and  C_13
REMARK    7  A    between atoms: N_15  and  C_16
REMARK    8  A    between atoms: C_16  and  C_17
REMARK    9  A    between atoms: C_16  and  C_18
REMARK   10  A    between atoms: C_23  and  C_24
REMARK   11  A    between atoms: C_28  and  O_29
REMARK                            x       y       z     vdW  Elec       q    Type
REMARK                         _______ _______ _______ _____ _____    ______ ____
ROOT
ATOM      1  C   UNL     1       3.318   5.228  19.214  0.00  0.00    +0.000 A 
ATOM      2  N   UNL     1       2.900   6.497  19.519  0.00  0.00    +0.000 NA
ATOM      3  C   UNL     1       1.905   6.673  20.413  0.00  0.00    +0.000 A 
ATOM      4  N   UNL     1       1.209   5.695  21.004  0.00  0.00    +0.000 NA
ATOM      5  C   UNL     1       1.616   4.471  20.663  0.00  0.00    +0.000 A 
ATOM      6  N   UNL     1       1.021   3.331  21.122  0.00  0.00    +0.000 N 
ATOM      7  C   UNL     1       1.659   2.240  20.599  0.00  0.00    +0.000 A 
ATOM      8  C   UNL     1       2.711   2.692  19.822  0.00  0.00    +0.000 A 
ATOM      9  C   UNL     1       2.661   4.133  19.814  0.00  0.00    +0.000 A 
ATOM     10  H   UNL     1       0.225   3.332  21.746  0.00  0.00    +0.000 HD
ENDROOT
BRANCH   1  15
ATOM     11  C   UNL     1       6.492   4.838  16.308  0.00  0.00    +0.000 A 
ATOM     12  C   UNL     1       5.238   4.280  16.048  0.00  0.00    +0.000 A 
ATOM     13  C   UNL     1       4.182   4.410  16.963  0.00  0.00    +0.000 A 
ATOM     14 CL   UNL     1       2.666   3.711  16.493  0.00  0.00    +0.000 Cl
ATOM     15  C   UNL     1       4.361   5.086  18.185  0.00  0.00    +0.000 A 
ATOM     16  C   UNL     1       5.642   5.619  18.430  0.00  0.00    +0.000 A 
ATOM     17  C   UNL     1       6.671   5.548  17.491  0.00  0.00    +0.000 A 
BRANCH  11  19
ATOM     18  C   UNL     1       6.900   4.517  14.005  0.00  0.00    +0.000 C 
ATOM     19  O   UNL     1       7.423   4.645  15.324  0.00  0.00    +0.000 OA
ENDBRANCH  11  19
BRANCH  17  20
ATOM     20  O   UNL     1       7.837   6.200  17.772  0.00  0.00    +0.000 OA
ATOM     21  H   UNL     1       8.314   6.389  16.945  0.00  0.00    +0.000 HD
ENDBRANCH  17  20
ENDBRANCH   1  15
BRANCH   8  22
ATOM     22  C   UNL     1       3.603   1.799  19.145  0.00  0.00    +0.000 C 
ATOM     23  N   UNL     1       4.268   1.045  18.553  0.00  0.00    +0.000 NA
ENDBRANCH   8  22
BRANCH   3  24
ATOM     24  S   UNL     1       1.488   8.307  20.976  0.00  0.00    +0.000 S 
BRANCH  24  25
ATOM     25  C   UNL     1       1.202   9.212  19.433  0.00  0.00    +0.000 C 
BRANCH  25  26
ATOM     26  C   UNL     1       0.095  10.237  19.575  0.00  0.00    +0.000 C 
ATOM     27  O   UNL     1      -0.503  10.423  20.632  0.00  0.00    +0.000 OA
ATOM     28  N   UNL     1      -0.158  10.958  18.426  0.00  0.00    +0.000 N 
ATOM     29  H   UNL     1       0.192  10.564  17.556  0.00  0.00    +0.000 HD
BRANCH  28  30
ATOM     30  C   UNL     1      -1.223  11.945  18.359  0.00  0.00    +0.000 C 
ATOM     31  C   UNL     1      -0.635  13.336  18.143  0.00  0.00    +0.000 C 
ATOM     32  C   UNL     1      -2.219  11.611  17.251  0.00  0.00    +0.000 C 
ENDBRANCH  28  30
ENDBRANCH  25  26
ENDBRANCH  24  25
ENDBRANCH   3  24
TORSDOF 8
ENDMDL
MODEL 6
REMARK VINA RESULT:      -7.1      2.001      2.339
REMARK  Name = 
REMARK  11 active torsions:
REMARK  status: ('A' for Active; 'I' for Inactive)
REMARK    1  A    between atoms: C_1  and  O_2
REMARK    2  A    between atoms: O_2  and  C_3
REMARK    3  A    between atoms: C_7  and  C_8
REMARK    4  A    between atoms: C_10  and  S_11
REMARK    5  A    between atoms: S_11  and  C_12
REMARK    6  A    between atoms: C_12  and  C_13
REMARK    7  A    between atoms: N_15  and  C_16
REMARK    8  A    between atoms: C_16  and  C_17
REMARK    9  A    between atoms: C_16  and  C_18
REMARK   10  A    between atoms: C_23  and  C_24
REMARK   11  A    between atoms: C_28  and  O_29
REMARK                            x       y       z     vdW  Elec       q    Type
REMARK                         _______ _______ _______ _____ _____    ______ ____
ROOT
ATOM      1  C   UNL     1       3.439   5.492  19.213  0.00  0.00    +0.000 A 
ATOM      2  N   UNL     1       2.855   6.731  19.258  0.00  0.00    +0.000 NA
ATOM      3  C   UNL     1       1.890   6.979  20.167  0.00  0.00    +0.000 A 
ATOM      4  N   UNL     1       1.373   6.084  21.016  0.00  0.00    +0.000 NA
ATOM      5  C   UNL     1       1.939   4.878  20.928  0.00  0.00    +0.000 A 
ATOM      6  N   UNL     1       1.539   3.810  21.678  0.00  0.00    +0.000 N 
ATOM      7  C   UNL     1       2.303   2.720  21.363  0.00  0.00    +0.000 A 
ATOM      8  C   UNL     1       3.239   3.111  20.422  0.00  0.00    +0.000 A 
ATOM      9  C   UNL     1       2.979   4.491  20.095  0.00  0.00    +0.000 A 
ATOM     10  H   UNL     1       0.783   3.851  22.348  0.00  0.00    +0.000 HD
ENDROOT
BRANCH   1  15
ATOM     11  C   UNL     1       6.493   4.839  16.227  0.00  0.00    +0.000 A 
ATOM     12  C   UNL     1       5.278   4.157  16.140  0.00  0.00    +0.000 A 
ATOM     13  C   UNL     1       4.259   4.365  17.082  0.00  0.00    +0.000 A 
ATOM     14 CL   UNL     1       2.785   3.489  16.828  0.00  0.00    +0.000 Cl
ATOM     15  C   UNL     1       4.440   5.252  18.161  0.00  0.00    +0.000 A 
ATOM     16  C   UNL     1       5.684   5.909  18.236  0.00  0.00    +0.000 A 
ATOM     17  C   UNL     1       6.670   5.753  17.262  0.00  0.00    +0.000 A 
BRANCH  11  19
ATOM     18  C   UNL     1       6.847   4.491  13.919  0.00  0.00    +0.000 C 
ATOM     19  O   UNL     1       7.390   4.548  15.235  0.00  0.00    +0.000 OA
ENDBRANCH  11  19
BRANCH  17  20
ATOM     20  O   UNL     1       7.791   6.525  17.360  0.00  0.00    +0.000 OA
ATOM     21  H   UNL     1       8.387   6.332  16.614  0.00  0.00    +0.000 HD
ENDBRANCH  17  20
ENDBRANCH   1  15
BRANCH   8  22
ATOM     22  C   UNL     1       4.219   2.210  19.892  0.00  0.00    +0.000 C 
ATOM     23  N   UNL     1       5.008   1.511  19.392  0.00  0.00    +0.000 NA
ENDBRANCH   8  22
BRANCH   3  24
ATOM     24  S   UNL     1       1.266   8.630  20.381  0.00  0.00    +0.000 S 
BRANCH  24  25
ATOM     25  C   UNL     1       1.357   9.323  18.709  0.00  0.00    +0.000 C 
BRANCH  25  26
ATOM     26  C   UNL     1       0.820  10.739  18.653  0.00  0.00    +0.000 C 
ATOM     27  O   UNL     1      -0.375  10.989  18.515  0.00  0.00    +0.000 OA
ATOM     28  N   UNL     1       1.785  11.715  18.800  0.00  0.00    +0.000 N 
ATOM     29  H   UNL     1       2.749  11.427  18.647  0.00  0.00    +0.000 HD
BRANCH  28  30
ATOM     30  C   UNL     1       1.463  13.130  18.717  0.00  0.00    +0.000 C 
ATOM     31  C   UNL     1       1.120  13.671  20.101  0.00  0.00    +0.000 C 
ATOM     32  C   UNL     1       2.615  13.925  18.106  0.00  0.00    +0.000 C 
ENDBRANCH  28  30
ENDBRANCH  25  26
ENDBRANCH  24  25
ENDBRANCH   3  24
TORSDOF 8
ENDMDL
MODEL 7
REMARK VINA RESULT:      -7.0      2.303      2.477
REMARK  Name = 
REMARK  11 active torsions:
REMARK  status: ('A' for Active; 'I' for Inactive)
REMARK    1  A    between atoms: C_1  and  O_2
REMARK    2  A    between atoms: O_2  and  C_3
REMARK    3  A    between atoms: C_7  and  C_8
REMARK    4  A    between atoms: C_10  and  S_11
REMARK    5  A    between atoms: S_11  and  C_12
REMARK    6  A    between atoms: C_12  and  C_13
REMARK    7  A    between atoms: N_15  and  C_16
REMARK    8  A    between atoms: C_16  and  C_17
REMARK    9  A    between atoms: C_16  and  C_18
REMARK   10  A    between atoms: C_23  and  C_24
REMARK   11  A    between atoms: C_28  and  O_29
REMARK                            x       y       z     vdW  Elec       q    Type
REMARK                         _______ _______ _______ _____ _____    ______ ____
ROOT
ATOM      1  C   UNL     1       3.153   5.675  19.281  0.00  0.00    +0.000 A 
ATOM      2  N   UNL     1       2.742   6.867  19.818  0.00  0.00    +0.000 NA
ATOM      3  C   UNL     1       1.679   6.891  20.648  0.00  0.00    +0.000 A 
ATOM      4  N   UNL     1       0.910   5.841  20.958  0.00  0.00    +0.000 NA
ATOM      5  C   UNL     1       1.315   4.701  20.395  0.00  0.00    +0.000 A 
ATOM      6  N   UNL     1       0.654   3.516  20.550  0.00  0.00    +0.000 N 
ATOM      7  C   UNL     1       1.306   2.535  19.856  0.00  0.00    +0.000 A 
ATOM      8  C   UNL     1       2.433   3.096  19.279  0.00  0.00    +0.000 A 
ATOM      9  C   UNL     1       2.419   4.506  19.578  0.00  0.00    +0.000 A 
ATOM     10  H   UNL     1      -0.193   3.418  21.095  0.00  0.00    +0.000 HD
ENDROOT
BRANCH   1  15
ATOM     11  C   UNL     1       6.495   5.631  16.544  0.00  0.00    +0.000 A 
ATOM     12  C   UNL     1       5.406   6.469  16.297  0.00  0.00    +0.000 A 
ATOM     13  C   UNL     1       4.316   6.521  17.180  0.00  0.00    +0.000 A 
ATOM     14 CL   UNL     1       3.054   7.640  16.779  0.00  0.00    +0.000 Cl
ATOM     15  C   UNL     1       4.276   5.710  18.331  0.00  0.00    +0.000 A 
ATOM     16  C   UNL     1       5.379   4.859  18.541  0.00  0.00    +0.000 A 
ATOM     17  C   UNL     1       6.491   4.857  17.700  0.00  0.00    +0.000 A 
BRANCH  11  19
ATOM     18  C   UNL     1       7.211   5.034  14.374  0.00  0.00    +0.000 C 
ATOM     19  O   UNL     1       7.491   5.691  15.607  0.00  0.00    +0.000 OA
ENDBRANCH  11  19
BRANCH  17  20
ATOM     20  O   UNL     1       7.559   4.085  18.056  0.00  0.00    +0.000 OA
ATOM     21  H   UNL     1       8.385   4.524  17.786  0.00  0.00    +0.000 HD
ENDBRANCH  17  20
ENDBRANCH   1  15
BRANCH   8  22
ATOM     22  C   UNL     1       3.357   2.330  18.498  0.00  0.00    +0.000 C 
ATOM     23  N   UNL     1       4.050   1.682  17.819  0.00  0.00    +0.000 NA
ENDBRANCH   8  22
BRANCH   3  24
ATOM     24  S   UNL     1       1.256   8.385  21.515  0.00  0.00    +0.000 S 
BRANCH  24  25
ATOM     25  C   UNL     1       1.284   9.639  20.208  0.00  0.00    +0.000 C 
BRANCH  25  26
ATOM     26  C   UNL     1      -0.098  10.195  19.929  0.00  0.00    +0.000 C 
ATOM     27  O   UNL     1      -0.838  10.609  20.818  0.00  0.00    +0.000 OA
ATOM     28  N   UNL     1      -0.436  10.222  18.591  0.00  0.00    +0.000 N 
ATOM     29  H   UNL     1       0.115   9.632  17.972  0.00  0.00    +0.000 HD
BRANCH  28  30
ATOM     30  C   UNL     1      -1.743  10.670  18.138  0.00  0.00    +0.000 C 
ATOM     31  C   UNL     1      -1.722  12.174  17.886  0.00  0.00    +0.000 C 
ATOM     32  C   UNL     1      -2.178   9.925  16.878  0.00  0.00    +0.000 C 
ENDBRANCH  28  30
ENDBRANCH  25  26
ENDBRANCH  24  25
ENDBRANCH   3  24
TORSDOF 8
ENDMDL
MODEL 8
REMARK VINA RESULT:      -7.0      1.121      1.289
REMARK  Name = 
REMARK  11 active torsions:
REMARK  status: ('A' for Active; 'I' for Inactive)
REMARK    1  A    between atoms: C_1  and  O_2
REMARK    2  A    between atoms: O_2  and  C_3
REMARK    3  A    between atoms: C_7  and  C_8
REMARK    4  A    between atoms: C_10  and  S_11
REMARK    5  A    between atoms: S_11  and  C_12
REMARK    6  A    between atoms: C_12  and  C_13
REMARK    7  A    between atoms: N_15  and  C_16
REMARK    8  A    between atoms: C_16  and  C_17
REMARK    9  A    between atoms: C_16  and  C_18
REMARK   10  A    between atoms: C_23  and  C_24
REMARK   11  A    between atoms: C_28  and  O_29
REMARK                            x       y       z     vdW  Elec       q    Type
REMARK                         _______ _______ _______ _____ _____    ______ ____
ROOT
ATOM      1  C   UNL     1       3.482   6.055  18.746  0.00  0.00    +0.000 A 
ATOM      2  N   UNL     1       2.914   7.294  18.611  0.00  0.00    +0.000 NA
ATOM      3  C   UNL     1       1.942   7.677  19.465  0.00  0.00    +0.000 A 
ATOM      4  N   UNL     1       1.405   6.915  20.424  0.00  0.00    +0.000 NA
ATOM      5  C   UNL     1       1.955   5.701  20.510  0.00  0.00    +0.000 A 
ATOM      6  N   UNL     1       1.534   4.752  21.396  0.00  0.00    +0.000 N 
ATOM      7  C   UNL     1       2.287   3.620  21.245  0.00  0.00    +0.000 A 
ATOM      8  C   UNL     1       3.238   3.867  20.270  0.00  0.00    +0.000 A 
ATOM      9  C   UNL     1       2.999   5.191  19.752  0.00  0.00    +0.000 A 
ATOM     10  H   UNL     1       0.771   4.895  22.044  0.00  0.00    +0.000 HD
ENDROOT
BRANCH   1  15
ATOM     11  C   UNL     1       6.558   4.968  15.912  0.00  0.00    +0.000 A 
ATOM     12  C   UNL     1       5.368   4.238  15.961  0.00  0.00    +0.000 A 
ATOM     13  C   UNL     1       4.342   4.581  16.856  0.00  0.00    +0.000 A 
ATOM     14 CL   UNL     1       2.902   3.620  16.779  0.00  0.00    +0.000 Cl
ATOM     15  C   UNL     1       4.491   5.659  17.750  0.00  0.00    +0.000 A 
ATOM     16  C   UNL     1       5.710   6.363  17.692  0.00  0.00    +0.000 A 
ATOM     17  C   UNL     1       6.701   6.064  16.757  0.00  0.00    +0.000 A 
BRANCH  11  19
ATOM     18  C   UNL     1       7.126   4.797  13.626  0.00  0.00    +0.000 C 
ATOM     19  O   UNL     1       7.464   4.530  14.985  0.00  0.00    +0.000 OA
ENDBRANCH  11  19
BRANCH  17  20
ATOM     20  O   UNL     1       7.793   6.882  16.702  0.00  0.00    +0.000 OA
ATOM     21  H   UNL     1       8.525   6.419  16.257  0.00  0.00    +0.000 HD
ENDBRANCH  17  20
ENDBRANCH   1  15
BRANCH   8  22
ATOM     22  C   UNL     1       4.211   2.889  19.883  0.00  0.00    +0.000 C 
ATOM     23  N   UNL     1       5.024   2.088  19.643  0.00  0.00    +0.000 NA
ENDBRANCH   8  22
BRANCH   3  24
ATOM     24  S   UNL     1       1.338   9.349  19.440  0.00  0.00    +0.000 S 
BRANCH  24  25
ATOM     25  C   UNL     1       0.411   9.473  20.991  0.00  0.00    +0.000 C 
BRANCH  25  26
ATOM     26  C   UNL     1      -0.565  10.633  20.975  0.00  0.00    +0.000 C 
ATOM     27  O   UNL     1      -1.114  11.023  19.948  0.00  0.00    +0.000 OA
ATOM     28  N   UNL     1      -0.799  11.190  22.216  0.00  0.00    +0.000 N 
ATOM     29  H   UNL     1      -0.119  10.981  22.944  0.00  0.00    +0.000 HD
BRANCH  28  30
ATOM     30  C   UNL     1      -1.663  12.347  22.386  0.00  0.00    +0.000 C 
ATOM     31  C   UNL     1      -2.794  12.018  23.354  0.00  0.00    +0.000 C 
ATOM     32  C   UNL     1      -0.875  13.558  22.881  0.00  0.00    +0.000 C 
ENDBRANCH  28  30
ENDBRANCH  25  26
ENDBRANCH  24  25
ENDBRANCH   3  24
TORSDOF 8
ENDMDL
MODEL 9
REMARK VINA RESULT:      -7.0      2.179      2.460
REMARK  Name = 
REMARK  11 active torsions:
REMARK  status: ('A' for Active; 'I' for Inactive)
REMARK    1  A    between atoms: C_1  and  O_2
REMARK    2  A    between atoms: O_2  and  C_3
REMARK    3  A    between atoms: C_7  and  C_8
REMARK    4  A    between atoms: C_10  and  S_11
REMARK    5  A    between atoms: S_11  and  C_12
REMARK    6  A    between atoms: C_12  and  C_13
REMARK    7  A    between atoms: N_15  and  C_16
REMARK    8  A    between atoms: C_16  and  C_17
REMARK    9  A    between atoms: C_16  and  C_18
REMARK   10  A    between atoms: C_23  and  C_24
REMARK   11  A    between atoms: C_28  and  O_29
REMARK                            x       y       z     vdW  Elec       q    Type
REMARK                         _______ _______ _______ _____ _____    ______ ____
ROOT
ATOM      1  C   UNL     1       3.148   5.822  19.319  0.00  0.00    +0.000 A 
ATOM      2  N   UNL     1       2.794   7.024  19.873  0.00  0.00    +0.000 NA
ATOM      3  C   UNL     1       1.733   7.087  20.704  0.00  0.00    +0.000 A 
ATOM      4  N   UNL     1       0.916   6.071  21.000  0.00  0.00    +0.000 NA
ATOM      5  C   UNL     1       1.266   4.920  20.420  0.00  0.00    +0.000 A 
ATOM      6  N   UNL     1       0.550   3.766  20.560  0.00  0.00    +0.000 N 
ATOM      7  C   UNL     1       1.155   2.765  19.852  0.00  0.00    +0.000 A 
ATOM      8  C   UNL     1       2.306   3.280  19.281  0.00  0.00    +0.000 A 
ATOM      9  C   UNL     1       2.360   4.685  19.600  0.00  0.00    +0.000 A 
ATOM     10  H   UNL     1      -0.300   3.700  21.104  0.00  0.00    +0.000 HD
ENDROOT
BRANCH   1  15
ATOM     11  C   UNL     1       6.488   5.662  16.583  0.00  0.00    +0.000 A 
ATOM     12  C   UNL     1       5.411   6.509  16.316  0.00  0.00    +0.000 A 
ATOM     13  C   UNL     1       4.322   6.599  17.197  0.00  0.00    +0.000 A 
ATOM     14 CL   UNL     1       3.076   7.725  16.768  0.00  0.00    +0.000 Cl
ATOM     15  C   UNL     1       4.271   5.818  18.368  0.00  0.00    +0.000 A 
ATOM     16  C   UNL     1       5.361   4.956  18.599  0.00  0.00    +0.000 A 
ATOM     17  C   UNL     1       6.473   4.917  17.758  0.00  0.00    +0.000 A 
BRANCH  11  19
ATOM     18  C   UNL     1       7.216   4.954  14.451  0.00  0.00    +0.000 C 
ATOM     19  O   UNL     1       7.484   5.684  15.645  0.00  0.00    +0.000 OA
ENDBRANCH  11  19
BRANCH  17  20
ATOM     20  O   UNL     1       7.530   4.139  18.133  0.00  0.00    +0.000 OA
ATOM     21  H   UNL     1       8.045   3.886  17.347  0.00  0.00    +0.000 HD
ENDBRANCH  17  20
ENDBRANCH   1  15
BRANCH   8  22
ATOM     22  C   UNL     1       3.193   2.482  18.488  0.00  0.00    +0.000 C 
ATOM     23  N   UNL     1       3.857   1.824  17.791  0.00  0.00    +0.000 NA
ENDBRANCH   8  22
BRANCH   3  24
ATOM     24  S   UNL     1       1.382   8.587  21.593  0.00  0.00    +0.000 S 
BRANCH  24  25
ATOM     25  C   UNL     1      -0.021   9.284  20.682  0.00  0.00    +0.000 C 
BRANCH  25  26
ATOM     26  C   UNL     1       0.431  10.125  19.505  0.00  0.00    +0.000 C 
ATOM     27  O   UNL     1       0.691   9.641  18.406  0.00  0.00    +0.000 OA
ATOM     28  N   UNL     1       0.496  11.478  19.770  0.00  0.00    +0.000 N 
ATOM     29  H   UNL     1       0.518  11.748  20.751  0.00  0.00    +0.000 HD
BRANCH  28  30
ATOM     30  C   UNL     1       0.962  12.432  18.778  0.00  0.00    +0.000 C 
ATOM     31  C   UNL     1      -0.128  13.457  18.483  0.00  0.00    +0.000 C 
ATOM     32  C   UNL     1       2.239  13.132  19.240  0.00  0.00    +0.000 C 
ENDBRANCH  28  30
ENDBRANCH  25  26
ENDBRANCH  24  25
ENDBRANCH   3  24
TORSDOF 8
ENDMDL
