MODEL 1
REMARK VINA RESULT:      -7.8      0.000      0.000
REMARK  Name = 
REMARK  5 active torsions:
REMARK  status: ('A' for Active; 'I' for Inactive)
REMARK    1  A    between atoms: C_1  and  C_2
REMARK    2  A    between atoms: C_7  and  C_8
REMARK    3  A    between atoms: C_12  and  C_13
REMARK    4  A    between atoms: N_20  and  C_21
REMARK    5  A    between atoms: C_21  and  C_22
REMARK                            x       y       z     vdW  Elec       q    Type
REMARK                         _______ _______ _______ _____ _____    ______ ____
ROOT
ATOM      1  C   UNL     1       0.496  11.411  20.637  0.00  0.00    +0.000 C 
ATOM      2  O   UNL     1       1.710  11.435  20.842  0.00  0.00    +0.000 OA
ATOM      3  N   UNL     1       0.062  10.883  19.404  0.00  0.00    +0.000 N 
ATOM      4  N   UNL     1      -1.187  11.146  18.930  0.00  0.00    +0.000 NA
ATOM      5  C   UNL     1      -1.209  10.453  17.787  0.00  0.00    +0.000 A 
ATOM      6  N   UNL     1      -0.087   9.708  17.544  0.00  0.00    +0.000 NA
ATOM      7  C   UNL     1       0.725  10.029  18.523  0.00  0.00    +0.000 A 
ATOM      8  N   UNL     1       1.976   9.562  18.727  0.00  0.00    +0.000 N 
ATOM      9  H   UNL     1       2.626  10.051  19.343  0.00  0.00    +0.000 HD
ENDROOT
BRANCH   1  16
ATOM     10  C   UNL     1      -0.628   9.529  22.753  0.00  0.00    +0.000 C 
ATOM     11  C   UNL     1      -0.987  10.986  22.673  0.00  0.00    +0.000 A 
ATOM     12  C   UNL     1      -1.949  11.476  23.578  0.00  0.00    +0.000 A 
ATOM     13  C   UNL     1      -2.352  12.810  23.552  0.00  0.00    +0.000 A 
ATOM     14  C   UNL     1      -1.808  13.677  22.614  0.00  0.00    +0.000 A 
ATOM     15  C   UNL     1      -0.868  13.209  21.696  0.00  0.00    +0.000 A 
ATOM     16  C   UNL     1      -0.441  11.868  21.716  0.00  0.00    +0.000 A 
ENDBRANCH   1  16
BRANCH   5  17
ATOM     17  C   UNL     1      -2.341  10.509  16.816  0.00  0.00    +0.000 A 
ATOM     18  C   UNL     1      -2.438   9.760  15.658  0.00  0.00    +0.000 A 
ATOM     19  C   UNL     1      -3.620  10.173  14.997  0.00  0.00    +0.000 A 
ATOM     20  C   UNL     1      -4.180  11.142  15.795  0.00  0.00    +0.000 A 
ATOM     21  O   UNL     1      -3.426  11.341  16.906  0.00  0.00    +0.000 OA
ENDBRANCH   5  17
BRANCH   8  22
ATOM     22  C   UNL     1       2.488   8.436  17.976  0.00  0.00    +0.000 C 
BRANCH  22  23
ATOM     23  C   UNL     1       2.236   7.160  18.749  0.00  0.00    +0.000 A 
ATOM     24  C   UNL     1       1.959   7.211  20.127  0.00  0.00    +0.000 A 
ATOM     25  C   UNL     1       1.715   6.039  20.845  0.00  0.00    +0.000 A 
ATOM     26  C   UNL     1       1.753   4.809  20.194  0.00  0.00    +0.000 A 
ATOM     27 CL   UNL     1       1.436   3.364  21.075  0.00  0.00    +0.000 Cl
ATOM     28  C   UNL     1       2.045   4.738  18.832  0.00  0.00    +0.000 A 
ATOM     29  C   UNL     1       2.289   5.915  18.113  0.00  0.00    +0.000 A 
ENDBRANCH  22  23
ENDBRANCH   8  22
TORSDOF 4
ENDMDL
MODEL 2
REMARK VINA RESULT:      -7.7      4.638      7.904
REMARK  Name = 
REMARK  5 active torsions:
REMARK  status: ('A' for Active; 'I' for Inactive)
REMARK    1  A    between atoms: C_1  and  C_2
REMARK    2  A    between atoms: C_7  and  C_8
REMARK    3  A    between atoms: C_12  and  C_13
REMARK    4  A    between atoms: N_20  and  C_21
REMARK    5  A    between atoms: C_21  and  C_22
REMARK                            x       y       z     vdW  Elec       q    Type
REMARK                         _______ _______ _______ _____ _____    ______ ____
ROOT
ATOM      1  C   UNL     1       4.313   4.259  19.254  0.00  0.00    +0.000 C 
ATOM      2  O   UNL     1       5.444   3.774  19.214  0.00  0.00    +0.000 OA
ATOM      3  N   UNL     1       4.137   5.532  18.675  0.00  0.00    +0.000 N 
ATOM      4  N   UNL     1       3.057   6.301  18.986  0.00  0.00    +0.000 NA
ATOM      5  C   UNL     1       3.246   7.381  18.222  0.00  0.00    +0.000 A 
ATOM      6  N   UNL     1       4.333   7.315  17.391  0.00  0.00    +0.000 NA
ATOM      7  C   UNL     1       4.918   6.188  17.723  0.00  0.00    +0.000 A 
ATOM      8  N   UNL     1       6.046   5.672  17.192  0.00  0.00    +0.000 N 
ATOM      9  H   UNL     1       6.572   4.945  17.677  0.00  0.00    +0.000 HD
ENDROOT
BRANCH   1  16
ATOM     10  C   UNL     1       2.490   2.493  17.568  0.00  0.00    +0.000 C 
ATOM     11  C   UNL     1       2.326   2.667  19.053  0.00  0.00    +0.000 A 
ATOM     12  C   UNL     1       1.226   2.039  19.669  0.00  0.00    +0.000 A 
ATOM     13  C   UNL     1       0.993   2.170  21.037  0.00  0.00    +0.000 A 
ATOM     14  C   UNL     1       1.848   2.943  21.812  0.00  0.00    +0.000 A 
ATOM     15  C   UNL     1       2.932   3.589  21.218  0.00  0.00    +0.000 A 
ATOM     16  C   UNL     1       3.190   3.457  19.841  0.00  0.00    +0.000 A 
ENDBRANCH   1  16
BRANCH   5  17
ATOM     17  C   UNL     1       2.378   8.593  18.286  0.00  0.00    +0.000 A 
ATOM     18  C   UNL     1       1.491   8.886  19.305  0.00  0.00    +0.000 A 
ATOM     19  C   UNL     1       0.820  10.079  18.937  0.00  0.00    +0.000 A 
ATOM     20  C   UNL     1       1.346  10.448  17.722  0.00  0.00    +0.000 A 
ATOM     21  O   UNL     1       2.301   9.568  17.327  0.00  0.00    +0.000 OA
ENDBRANCH   5  17
BRANCH   8  22
ATOM     22  C   UNL     1       6.630   6.224  15.987  0.00  0.00    +0.000 C 
BRANCH  22  23
ATOM     23  C   UNL     1       6.438   5.251  14.844  0.00  0.00    +0.000 A 
ATOM     24  C   UNL     1       7.406   5.155  13.828  0.00  0.00    +0.000 A 
ATOM     25  C   UNL     1       7.242   4.253  12.775  0.00  0.00    +0.000 A 
ATOM     26  C   UNL     1       6.108   3.446  12.727  0.00  0.00    +0.000 A 
ATOM     27 CL   UNL     1       5.912   2.322  11.439  0.00  0.00    +0.000 Cl
ATOM     28  C   UNL     1       5.130   3.542  13.716  0.00  0.00    +0.000 A 
ATOM     29  C   UNL     1       5.296   4.447  14.772  0.00  0.00    +0.000 A 
ENDBRANCH  22  23
ENDBRANCH   8  22
TORSDOF 4
ENDMDL
MODEL 3
REMARK VINA RESULT:      -7.7      7.415      9.607
REMARK  Name = 
REMARK  5 active torsions:
REMARK  status: ('A' for Active; 'I' for Inactive)
REMARK    1  A    between atoms: C_1  and  C_2
REMARK    2  A    between atoms: C_7  and  C_8
REMARK    3  A    between atoms: C_12  and  C_13
REMARK    4  A    between atoms: N_20  and  C_21
REMARK    5  A    between atoms: C_21  and  C_22
REMARK                            x       y       z     vdW  Elec       q    Type
REMARK                         _______ _______ _______ _____ _____    ______ ____
ROOT
ATOM      1  C   UNL     1       4.261   5.609  18.335  0.00  0.00    +0.000 C 
ATOM      2  O   UNL     1       4.289   6.508  19.176  0.00  0.00    +0.000 OA
ATOM      3  N   UNL     1       5.254   5.634  17.334  0.00  0.00    +0.000 N 
ATOM      4  N   UNL     1       5.099   4.935  16.176  0.00  0.00    +0.000 NA
ATOM      5  C   UNL     1       6.243   5.192  15.533  0.00  0.00    +0.000 A 
ATOM      6  N   UNL     1       7.143   5.944  16.239  0.00  0.00    +0.000 NA
ATOM      7  C   UNL     1       6.496   6.267  17.334  0.00  0.00    +0.000 A 
ATOM      8  N   UNL     1       6.957   7.019  18.357  0.00  0.00    +0.000 N 
ATOM      9  H   UNL     1       6.317   7.439  19.031  0.00  0.00    +0.000 HD
ENDROOT
BRANCH   1  16
ATOM     10  C   UNL     1       4.853   2.935  19.669  0.00  0.00    +0.000 C 
ATOM     11  C   UNL     1       3.526   3.268  19.045  0.00  0.00    +0.000 A 
ATOM     12  C   UNL     1       2.543   2.260  19.013  0.00  0.00    +0.000 A 
ATOM     13  C   UNL     1       1.297   2.484  18.432  0.00  0.00    +0.000 A 
ATOM     14  C   UNL     1       1.013   3.717  17.861  0.00  0.00    +0.000 A 
ATOM     15  C   UNL     1       1.979   4.724  17.864  0.00  0.00    +0.000 A 
ATOM     16  C   UNL     1       3.239   4.519  18.457  0.00  0.00    +0.000 A 
ENDBRANCH   1  16
BRANCH   5  17
ATOM     17  C   UNL     1       6.518   4.741  14.137  0.00  0.00    +0.000 A 
ATOM     18  C   UNL     1       5.859   3.714  13.486  0.00  0.00    +0.000 A 
ATOM     19  C   UNL     1       6.477   3.567  12.219  0.00  0.00    +0.000 A 
ATOM     20  C   UNL     1       7.467   4.518  12.169  0.00  0.00    +0.000 A 
ATOM     21  O   UNL     1       7.490   5.246  13.316  0.00  0.00    +0.000 OA
ENDBRANCH   5  17
BRANCH   8  22
ATOM     22  C   UNL     1       8.357   7.372  18.457  0.00  0.00    +0.000 C 
BRANCH  22  23
ATOM     23  C   UNL     1       8.499   8.878  18.416  0.00  0.00    +0.000 A 
ATOM     24  C   UNL     1       7.817   9.626  17.440  0.00  0.00    +0.000 A 
ATOM     25  C   UNL     1       7.934  11.017  17.400  0.00  0.00    +0.000 A 
ATOM     26  C   UNL     1       8.739  11.669  18.331  0.00  0.00    +0.000 A 
ATOM     27 CL   UNL     1       8.873  13.384  18.294  0.00  0.00    +0.000 Cl
ATOM     28  C   UNL     1       9.438  10.941  19.293  0.00  0.00    +0.000 A 
ATOM     29  C   UNL     1       9.319   9.546  19.332  0.00  0.00    +0.000 A 
ENDBRANCH  22  23
ENDBRANCH   8  22
TORSDOF 4
ENDMDL
MODEL 4
REMARK VINA RESULT:      -7.6      7.019      9.694
REMARK  Name = 
REMARK  5 active torsions:
REMARK  status: ('A' for Active; 'I' for Inactive)
REMARK    1  A    between atoms: C_1  and  C_2
REMARK    2  A    between atoms: C_7  and  C_8
REMARK    3  A    between atoms: C_12  and  C_13
REMARK    4  A    between atoms: N_20  and  C_21
REMARK    5  A    between atoms: C_21  and  C_22
REMARK                            x       y       z     vdW  Elec       q    Type
REMARK                         _______ _______ _______ _____ _____    ______ ____
ROOT
ATOM      1  C   UNL     1       4.464   5.275  18.439  0.00  0.00    +0.000 C 
ATOM      2  O   UNL     1       4.456   6.125  19.330  0.00  0.00    +0.000 OA
ATOM      3  N   UNL     1       5.432   5.416  17.423  0.00  0.00    +0.000 N 
ATOM      4  N   UNL     1       5.293   4.775  16.230  0.00  0.00    +0.000 NA
ATOM      5  C   UNL     1       6.405   5.137  15.582  0.00  0.00    +0.000 A 
ATOM      6  N   UNL     1       7.274   5.902  16.313  0.00  0.00    +0.000 NA
ATOM      7  C   UNL     1       6.634   6.123  17.436  0.00  0.00    +0.000 A 
ATOM      8  N   UNL     1       7.071   6.843  18.492  0.00  0.00    +0.000 N 
ATOM      9  H   UNL     1       6.422   7.185  19.200  0.00  0.00    +0.000 HD
ENDROOT
BRANCH   1  16
ATOM     10  C   UNL     1       1.502   5.530  17.774  0.00  0.00    +0.000 C 
ATOM     11  C   UNL     1       2.134   4.248  18.243  0.00  0.00    +0.000 A 
ATOM     12  C   UNL     1       1.291   3.140  18.455  0.00  0.00    +0.000 A 
ATOM     13  C   UNL     1       1.797   1.924  18.910  0.00  0.00    +0.000 A 
ATOM     14  C   UNL     1       3.155   1.797  19.173  0.00  0.00    +0.000 A 
ATOM     15  C   UNL     1       4.005   2.887  18.989  0.00  0.00    +0.000 A 
ATOM     16  C   UNL     1       3.512   4.119  18.518  0.00  0.00    +0.000 A 
ENDBRANCH   1  16
BRANCH   5  17
ATOM     17  C   UNL     1       6.676   4.782  14.158  0.00  0.00    +0.000 A 
ATOM     18  C   UNL     1       6.056   3.765  13.456  0.00  0.00    +0.000 A 
ATOM     19  C   UNL     1       6.657   3.723  12.174  0.00  0.00    +0.000 A 
ATOM     20  C   UNL     1       7.599   4.722  12.166  0.00  0.00    +0.000 A 
ATOM     21  O   UNL     1       7.608   5.381  13.353  0.00  0.00    +0.000 OA
ENDBRANCH   5  17
BRANCH   8  22
ATOM     22  C   UNL     1       8.449   7.275  18.587  0.00  0.00    +0.000 C 
BRANCH  22  23
ATOM     23  C   UNL     1       8.514   8.781  18.454  0.00  0.00    +0.000 A 
ATOM     24  C   UNL     1       9.331   9.532  19.318  0.00  0.00    +0.000 A 
ATOM     25  C   UNL     1       9.404  10.921  19.196  0.00  0.00    +0.000 A 
ATOM     26  C   UNL     1       8.657  11.569  18.216  0.00  0.00    +0.000 A 
ATOM     27 CL   UNL     1       8.758  13.279  18.053  0.00  0.00    +0.000 Cl
ATOM     28  C   UNL     1       7.827  10.841  17.363  0.00  0.00    +0.000 A 
ATOM     29  C   UNL     1       7.755   9.448  17.487  0.00  0.00    +0.000 A 
ENDBRANCH  22  23
ENDBRANCH   8  22
TORSDOF 4
ENDMDL
MODEL 5
REMARK VINA RESULT:      -7.6      0.498      1.152
REMARK  Name = 
REMARK  5 active torsions:
REMARK  status: ('A' for Active; 'I' for Inactive)
REMARK    1  A    between atoms: C_1  and  C_2
REMARK    2  A    between atoms: C_7  and  C_8
REMARK    3  A    between atoms: C_12  and  C_13
REMARK    4  A    between atoms: N_20  and  C_21
REMARK    5  A    between atoms: C_21  and  C_22
REMARK                            x       y       z     vdW  Elec       q    Type
REMARK                         _______ _______ _______ _____ _____    ______ ____
ROOT
ATOM      1  C   UNL     1       0.506  11.484  20.639  0.00  0.00    +0.000 C 
ATOM      2  O   UNL     1       1.719  11.499  20.850  0.00  0.00    +0.000 OA
ATOM      3  N   UNL     1       0.073  10.957  19.406  0.00  0.00    +0.000 N 
ATOM      4  N   UNL     1      -1.172  11.230  18.925  0.00  0.00    +0.000 NA
ATOM      5  C   UNL     1      -1.195  10.533  17.784  0.00  0.00    +0.000 A 
ATOM      6  N   UNL     1      -0.078   9.778  17.549  0.00  0.00    +0.000 NA
ATOM      7  C   UNL     1       0.732  10.094  18.530  0.00  0.00    +0.000 A 
ATOM      8  N   UNL     1       1.977   9.617  18.741  0.00  0.00    +0.000 N 
ATOM      9  H   UNL     1       2.629  10.101  19.358  0.00  0.00    +0.000 HD
ENDROOT
BRANCH   1  16
ATOM     10  C   UNL     1      -0.669   9.613  22.736  0.00  0.00    +0.000 C 
ATOM     11  C   UNL     1      -1.001  11.077  22.661  0.00  0.00    +0.000 A 
ATOM     12  C   UNL     1      -1.962  11.579  23.560  0.00  0.00    +0.000 A 
ATOM     13  C   UNL     1      -2.341  12.920  23.538  0.00  0.00    +0.000 A 
ATOM     14  C   UNL     1      -1.774  13.782  22.608  0.00  0.00    +0.000 A 
ATOM     15  C   UNL     1      -0.834  13.302  21.696  0.00  0.00    +0.000 A 
ATOM     16  C   UNL     1      -0.432  11.953  21.712  0.00  0.00    +0.000 A 
ENDBRANCH   1  16
BRANCH   5  17
ATOM     17  C   UNL     1      -2.323  10.597  16.808  0.00  0.00    +0.000 A 
ATOM     18  C   UNL     1      -3.556  11.174  17.050  0.00  0.00    +0.000 A 
ATOM     19  C   UNL     1      -4.349  10.948  15.897  0.00  0.00    +0.000 A 
ATOM     20  C   UNL     1      -3.550  10.257  15.018  0.00  0.00    +0.000 A 
ATOM     21  O   UNL     1      -2.317  10.054  15.551  0.00  0.00    +0.000 OA
ENDBRANCH   5  17
BRANCH   8  22
ATOM     22  C   UNL     1       2.483   8.484  17.996  0.00  0.00    +0.000 C 
BRANCH  22  23
ATOM     23  C   UNL     1       2.243   7.215  18.785  0.00  0.00    +0.000 A 
ATOM     24  C   UNL     1       2.333   5.962  18.153  0.00  0.00    +0.000 A 
ATOM     25  C   UNL     1       2.122   4.786  18.876  0.00  0.00    +0.000 A 
ATOM     26  C   UNL     1       1.813   4.855  20.232  0.00  0.00    +0.000 A 
ATOM     27 CL   UNL     1       1.570   3.406  21.128  0.00  0.00    +0.000 Cl
ATOM     28  C   UNL     1       1.701   6.090  20.870  0.00  0.00    +0.000 A 
ATOM     29  C   UNL     1       1.914   7.268  20.143  0.00  0.00    +0.000 A 
ENDBRANCH  22  23
ENDBRANCH   8  22
TORSDOF 4
ENDMDL
MODEL 6
REMARK VINA RESULT:      -7.5      7.425      9.592
REMARK  Name = 
REMARK  5 active torsions:
REMARK  status: ('A' for Active; 'I' for Inactive)
REMARK    1  A    between atoms: C_1  and  C_2
REMARK    2  A    between atoms: C_7  and  C_8
REMARK    3  A    between atoms: C_12  and  C_13
REMARK    4  A    between atoms: N_20  and  C_21
REMARK    5  A    between atoms: C_21  and  C_22
REMARK                            x       y       z     vdW  Elec       q    Type
REMARK                         _______ _______ _______ _____ _____    ______ ____
ROOT
ATOM      1  C   UNL     1       4.217   5.570  18.289  0.00  0.00    +0.000 C 
ATOM      2  O   UNL     1       4.241   6.501  19.095  0.00  0.00    +0.000 OA
ATOM      3  N   UNL     1       5.218   5.554  17.295  0.00  0.00    +0.000 N 
ATOM      4  N   UNL     1       5.069   4.811  16.164  0.00  0.00    +0.000 NA
ATOM      5  C   UNL     1       6.218   5.041  15.520  0.00  0.00    +0.000 A 
ATOM      6  N   UNL     1       7.115   5.818  16.203  0.00  0.00    +0.000 NA
ATOM      7  C   UNL     1       6.461   6.185  17.279  0.00  0.00    +0.000 A 
ATOM      8  N   UNL     1       6.916   6.975  18.276  0.00  0.00    +0.000 N 
ATOM      9  H   UNL     1       6.272   7.422  18.928  0.00  0.00    +0.000 HD
ENDROOT
BRANCH   1  16
ATOM     10  C   UNL     1       4.808   2.929  19.688  0.00  0.00    +0.000 C 
ATOM     11  C   UNL     1       3.479   3.251  19.064  0.00  0.00    +0.000 A 
ATOM     12  C   UNL     1       2.492   2.246  19.065  0.00  0.00    +0.000 A 
ATOM     13  C   UNL     1       1.242   2.460  18.486  0.00  0.00    +0.000 A 
ATOM     14  C   UNL     1       0.959   3.679  17.885  0.00  0.00    +0.000 A 
ATOM     15  C   UNL     1       1.929   4.682  17.855  0.00  0.00    +0.000 A 
ATOM     16  C   UNL     1       3.192   4.487  18.446  0.00  0.00    +0.000 A 
ENDBRANCH   1  16
BRANCH   5  17
ATOM     17  C   UNL     1       6.503   4.535  14.145  0.00  0.00    +0.000 A 
ATOM     18  C   UNL     1       7.476   5.031  13.298  0.00  0.00    +0.000 A 
ATOM     19  C   UNL     1       7.357   4.326  12.075  0.00  0.00    +0.000 A 
ATOM     20  C   UNL     1       6.327   3.434  12.253  0.00  0.00    +0.000 A 
ATOM     21  O   UNL     1       5.814   3.539  13.506  0.00  0.00    +0.000 OA
ENDBRANCH   5  17
BRANCH   8  22
ATOM     22  C   UNL     1       8.316   7.329  18.373  0.00  0.00    +0.000 C 
BRANCH  22  23
ATOM     23  C   UNL     1       8.455   8.836  18.355  0.00  0.00    +0.000 A 
ATOM     24  C   UNL     1       9.291   9.480  19.285  0.00  0.00    +0.000 A 
ATOM     25  C   UNL     1       9.432  10.869  19.269  0.00  0.00    +0.000 A 
ATOM     26  C   UNL     1       8.736  11.624  18.328  0.00  0.00    +0.000 A 
ATOM     27 CL   UNL     1       8.922  13.334  18.296  0.00  0.00    +0.000 Cl
ATOM     28  C   UNL     1       7.888  11.003  17.411  0.00  0.00    +0.000 A 
ATOM     29  C   UNL     1       7.748   9.609  17.428  0.00  0.00    +0.000 A 
ENDBRANCH  22  23
ENDBRANCH   8  22
TORSDOF 4
ENDMDL
MODEL 7
REMARK VINA RESULT:      -7.3      4.377      9.108
REMARK  Name = 
REMARK  5 active torsions:
REMARK  status: ('A' for Active; 'I' for Inactive)
REMARK    1  A    between atoms: C_1  and  C_2
REMARK    2  A    between atoms: C_7  and  C_8
REMARK    3  A    between atoms: C_12  and  C_13
REMARK    4  A    between atoms: N_20  and  C_21
REMARK    5  A    between atoms: C_21  and  C_22
REMARK                            x       y       z     vdW  Elec       q    Type
REMARK                         _______ _______ _______ _____ _____    ______ ____
ROOT
ATOM      1  C   UNL     1       4.792   6.882  17.225  0.00  0.00    +0.000 C 
ATOM      2  O   UNL     1       4.946   8.095  17.080  0.00  0.00    +0.000 OA
ATOM      3  N   UNL     1       3.816   6.462  18.151  0.00  0.00    +0.000 N 
ATOM      4  N   UNL     1       3.825   5.196  18.653  0.00  0.00    +0.000 NA
ATOM      5  C   UNL     1       2.748   5.197  19.445  0.00  0.00    +0.000 A 
ATOM      6  N   UNL     1       2.015   6.354  19.419  0.00  0.00    +0.000 NA
ATOM      7  C   UNL     1       2.720   7.158  18.660  0.00  0.00    +0.000 A 
ATOM      8  N   UNL     1       2.421   8.433  18.330  0.00  0.00    +0.000 N 
ATOM      9  H   UNL     1       3.134   9.064  17.966  0.00  0.00    +0.000 HD
ENDROOT
BRANCH   1  16
ATOM     10  C   UNL     1       7.537   5.838  18.036  0.00  0.00    +0.000 C 
ATOM     11  C   UNL     1       6.871   5.480  16.737  0.00  0.00    +0.000 A 
ATOM     12  C   UNL     1       7.594   4.686  15.825  0.00  0.00    +0.000 A 
ATOM     13  C   UNL     1       7.055   4.331  14.591  0.00  0.00    +0.000 A 
ATOM     14  C   UNL     1       5.786   4.773  14.238  0.00  0.00    +0.000 A 
ATOM     15  C   UNL     1       5.061   5.577  15.118  0.00  0.00    +0.000 A 
ATOM     16  C   UNL     1       5.585   5.935  16.374  0.00  0.00    +0.000 A 
ENDBRANCH   1  16
BRANCH   5  17
ATOM     17  C   UNL     1       2.381   4.053  20.330  0.00  0.00    +0.000 A 
ATOM     18  C   UNL     1       1.111   3.791  20.811  0.00  0.00    +0.000 A 
ATOM     19  C   UNL     1       1.218   2.668  21.667  0.00  0.00    +0.000 A 
ATOM     20  C   UNL     1       2.543   2.305  21.650  0.00  0.00    +0.000 A 
ATOM     21  O   UNL     1       3.253   3.124  20.832  0.00  0.00    +0.000 OA
ENDBRANCH   5  17
BRANCH   8  22
ATOM     22  C   UNL     1       1.116   8.995  18.611  0.00  0.00    +0.000 C 
BRANCH  22  23
ATOM     23  C   UNL     1       1.212  10.505  18.629  0.00  0.00    +0.000 A 
ATOM     24  C   UNL     1       0.169  11.273  19.176  0.00  0.00    +0.000 A 
ATOM     25  C   UNL     1       0.254  12.666  19.206  0.00  0.00    +0.000 A 
ATOM     26  C   UNL     1       1.378  13.301  18.684  0.00  0.00    +0.000 A 
ATOM     27 CL   UNL     1       1.492  15.017  18.734  0.00  0.00    +0.000 Cl
ATOM     28  C   UNL     1       2.413  12.555  18.120  0.00  0.00    +0.000 A 
ATOM     29  C   UNL     1       2.326  11.158  18.092  0.00  0.00    +0.000 A 
ENDBRANCH  22  23
ENDBRANCH   8  22
TORSDOF 4
ENDMDL
MODEL 8
REMARK VINA RESULT:      -7.3      2.777      4.179
REMARK  Name = 
REMARK  5 active torsions:
REMARK  status: ('A' for Active; 'I' for Inactive)
REMARK    1  A    between atoms: C_1  and  C_2
REMARK    2  A    between atoms: C_7  and  C_8
REMARK    3  A    between atoms: C_12  and  C_13
REMARK    4  A    between atoms: N_20  and  C_21
REMARK    5  A    between atoms: C_21  and  C_22
REMARK                            x       y       z     vdW  Elec       q    Type
REMARK                         _______ _______ _______ _____ _____    ______ ____
ROOT
ATOM      1  C   UNL     1      -0.261  11.043  20.895  0.00  0.00    +0.000 C 
ATOM      2  O   UNL     1      -0.250   9.844  21.177  0.00  0.00    +0.000 OA
ATOM      3  N   UNL     1       0.721  11.501  19.993  0.00  0.00    +0.000 N 
ATOM      4  N   UNL     1       1.029  12.825  19.908  0.00  0.00    +0.000 NA
ATOM      5  C   UNL     1       1.954  12.839  18.942  0.00  0.00    +0.000 A 
ATOM      6  N   UNL     1       2.195  11.624  18.358  0.00  0.00    +0.000 NA
ATOM      7  C   UNL     1       1.469  10.786  19.059  0.00  0.00    +0.000 A 
ATOM      8  N   UNL     1       1.371   9.451  18.881  0.00  0.00    +0.000 N 
ATOM      9  H   UNL     1       1.006   8.847  19.617  0.00  0.00    +0.000 HD
ENDROOT
BRANCH   1  16
ATOM     10  C   UNL     1      -2.633  12.008  19.245  0.00  0.00    +0.000 C 
ATOM     11  C   UNL     1      -2.419  12.393  20.682  0.00  0.00    +0.000 A 
ATOM     12  C   UNL     1      -3.322  13.307  21.259  0.00  0.00    +0.000 A 
ATOM     13  C   UNL     1      -3.178  13.731  22.579  0.00  0.00    +0.000 A 
ATOM     14  C   UNL     1      -2.119  13.258  23.343  0.00  0.00    +0.000 A 
ATOM     15  C   UNL     1      -1.201  12.368  22.786  0.00  0.00    +0.000 A 
ATOM     16  C   UNL     1      -1.340  11.920  21.459  0.00  0.00    +0.000 A 
ENDBRANCH   1  16
BRANCH   5  17
ATOM     17  C   UNL     1       2.708  14.065  18.547  0.00  0.00    +0.000 A 
ATOM     18  C   UNL     1       2.185  15.344  18.503  0.00  0.00    +0.000 A 
ATOM     19  C   UNL     1       3.207  16.190  18.007  0.00  0.00    +0.000 A 
ATOM     20  C   UNL     1       4.295  15.380  17.788  0.00  0.00    +0.000 A 
ATOM     21  O   UNL     1       4.011  14.096  18.127  0.00  0.00    +0.000 OA
ENDBRANCH   5  17
BRANCH   8  22
ATOM     22  C   UNL     1       1.906   8.810  17.698  0.00  0.00    +0.000 C 
BRANCH  22  23
ATOM     23  C   UNL     1       2.717   7.600  18.105  0.00  0.00    +0.000 A 
ATOM     24  C   UNL     1       2.398   6.899  19.282  0.00  0.00    +0.000 A 
ATOM     25  C   UNL     1       3.135   5.775  19.660  0.00  0.00    +0.000 A 
ATOM     26  C   UNL     1       4.199   5.348  18.869  0.00  0.00    +0.000 A 
ATOM     27 CL   UNL     1       5.098   3.953  19.324  0.00  0.00    +0.000 Cl
ATOM     28  C   UNL     1       4.540   6.042  17.709  0.00  0.00    +0.000 A 
ATOM     29  C   UNL     1       3.799   7.169  17.331  0.00  0.00    +0.000 A 
ENDBRANCH  22  23
ENDBRANCH   8  22
TORSDOF 4
ENDMDL
MODEL 9
REMARK VINA RESULT:      -7.2      3.891      6.554
REMARK  Name = 
REMARK  5 active torsions:
REMARK  status: ('A' for Active; 'I' for Inactive)
REMARK    1  A    between atoms: C_1  and  C_2
REMARK    2  A    between atoms: C_7  and  C_8
REMARK    3  A    between atoms: C_12  and  C_13
REMARK    4  A    between atoms: N_20  and  C_21
REMARK    5  A    between atoms: C_21  and  C_22
REMARK                            x       y       z     vdW  Elec       q    Type
REMARK                         _______ _______ _______ _____ _____    ______ ____
ROOT
ATOM      1  C   UNL     1       1.949   8.695  18.517  0.00  0.00    +0.000 C 
ATOM      2  O   UNL     1       2.368   9.256  17.504  0.00  0.00    +0.000 OA
ATOM      3  N   UNL     1       2.491   7.430  18.823  0.00  0.00    +0.000 N 
ATOM      4  N   UNL     1       1.852   6.581  19.675  0.00  0.00    +0.000 NA
ATOM      5  C   UNL     1       2.688   5.539  19.718  0.00  0.00    +0.000 A 
ATOM      6  N   UNL     1       3.849   5.703  19.011  0.00  0.00    +0.000 NA
ATOM      7  C   UNL     1       3.692   6.856  18.406  0.00  0.00    +0.000 A 
ATOM      8  N   UNL     1       4.566   7.463  17.575  0.00  0.00    +0.000 N 
ATOM      9  H   UNL     1       4.265   8.209  16.949  0.00  0.00    +0.000 HD
ENDROOT
BRANCH   1  16
ATOM     10  C   UNL     1      -0.689   9.799  17.465  0.00  0.00    +0.000 C 
ATOM     11  C   UNL     1      -0.248   9.942  18.895  0.00  0.00    +0.000 A 
ATOM     12  C   UNL     1      -1.066  10.693  19.762  0.00  0.00    +0.000 A 
ATOM     13  C   UNL     1      -0.714  10.891  21.096  0.00  0.00    +0.000 A 
ATOM     14  C   UNL     1       0.468  10.352  21.586  0.00  0.00    +0.000 A 
ATOM     15  C   UNL     1       1.303   9.622  20.739  0.00  0.00    +0.000 A 
ATOM     16  C   UNL     1       0.957   9.402  19.392  0.00  0.00    +0.000 A 
ENDBRANCH   1  16
BRANCH   5  17
ATOM     17  C   UNL     1       2.379   4.269  20.439  0.00  0.00    +0.000 A 
ATOM     18  C   UNL     1       1.114   3.849  20.810  0.00  0.00    +0.000 A 
ATOM     19  C   UNL     1       1.277   2.642  21.532  0.00  0.00    +0.000 A 
ATOM     20  C   UNL     1       2.628   2.390  21.550  0.00  0.00    +0.000 A 
ATOM     21  O   UNL     1       3.303   3.358  20.877  0.00  0.00    +0.000 OA
ENDBRANCH   5  17
BRANCH   8  22
ATOM     22  C   UNL     1       5.926   6.987  17.439  0.00  0.00    +0.000 C 
BRANCH  22  23
ATOM     23  C   UNL     1       6.004   6.013  16.283  0.00  0.00    +0.000 A 
ATOM     24  C   UNL     1       5.139   6.151  15.183  0.00  0.00    +0.000 A 
ATOM     25  C   UNL     1       5.211   5.263  14.108  0.00  0.00    +0.000 A 
ATOM     26  C   UNL     1       6.141   4.227  14.128  0.00  0.00    +0.000 A 
ATOM     27 CL   UNL     1       6.243   3.141  12.797  0.00  0.00    +0.000 Cl
ATOM     28  C   UNL     1       6.994   4.064  15.220  0.00  0.00    +0.000 A 
ATOM     29  C   UNL     1       6.921   4.957  16.297  0.00  0.00    +0.000 A 
ENDBRANCH  22  23
ENDBRANCH   8  22
TORSDOF 4
ENDMDL
