MODEL 1
REMARK VINA RESULT:      -7.8      0.000      0.000
REMARK  Name = 
REMARK  8 active torsions:
REMARK  status: ('A' for Active; 'I' for Inactive)
REMARK    1  A    between atoms: C_1  and  C_2
REMARK    2  A    between atoms: C_2  and  C_3
REMARK    3  A    between atoms: N_5  and  C_6
REMARK    4  A    between atoms: C_6  and  C_7
REMARK    5  A    between atoms: C_6  and  C_8
REMARK    6  A    between atoms: C_8  and  C_9
REMARK    7  A    between atoms: C_12  and  C_13
REMARK    8  A    between atoms: N_15  and  C_16
REMARK                            x       y       z     vdW  Elec       q    Type
REMARK                         _______ _______ _______ _____ _____    ______ ____
ROOT
ATOM      1  C   UNL     1       2.343   7.620  19.060  0.00  0.00    +0.000 A 
ATOM      2  C   UNL     1       1.970   7.476  20.399  0.00  0.00    +0.000 A 
ATOM      3  C   UNL     1       1.068   8.368  20.978  0.00  0.00    +0.000 A 
ATOM      4  C   UNL     1       0.524   9.440  20.253  0.00  0.00    +0.000 A 
ATOM      5  C   UNL     1       0.977   9.606  18.930  0.00  0.00    +0.000 A 
ATOM      6  C   UNL     1       1.868   8.715  18.338  0.00  0.00    +0.000 A 
ENDROOT
BRANCH   4   7
ATOM      7  C   UNL     1      -0.532  10.417  20.896  0.00  0.00    +0.000 C 
ATOM      8  C   UNL     1      -0.671  10.404  22.418  0.00  0.00    +0.000 C 
ATOM      9  N   UNL     1      -0.605  11.846  22.418  0.00  0.00    +0.000 N 
ATOM     10  C   UNL     1      -0.217  11.914  21.032  0.00  0.00    +0.000 C 
BRANCH   9  11
ATOM     11  C   UNL     1      -1.577  12.661  23.048  0.00  0.00    +0.000 A 
ATOM     12  C   UNL     1      -1.271  13.941  23.525  0.00  0.00    +0.000 A 
ATOM     13  C   UNL     1      -2.291  14.815  23.912  0.00  0.00    +0.000 A 
ATOM     14  C   UNL     1      -3.620  14.410  23.829  0.00  0.00    +0.000 A 
ATOM     15  C   UNL     1      -3.914  13.092  23.488  0.00  0.00    +0.000 A 
ATOM     16  C   UNL     1      -2.900  12.216  23.133  0.00  0.00    +0.000 A 
ATOM     17  O   UNL     1      -5.196  12.617  23.420  0.00  0.00    +0.000 OA
ATOM     18  C   UNL     1      -6.037  13.667  22.948  0.00  0.00    +0.000 C 
ATOM     19  C   UNL     1      -5.915  14.908  23.823  0.00  0.00    +0.000 C 
ATOM     20  O   UNL     1      -4.574  15.364  24.039  0.00  0.00    +0.000 OA
ENDBRANCH   9  11
ENDBRANCH   4   7
BRANCH   1  21
ATOM     21  C   UNL     1       3.172   6.562  18.375  0.00  0.00    +0.000 C 
BRANCH  21  22
ATOM     22  C   UNL     1       3.680   5.506  19.379  0.00  0.00    +0.000 C 
ATOM     23  C   UNL     1       5.163   5.225  19.161  0.00  0.00    +0.000 C 
BRANCH  22  26
ATOM     24  C   UNL     1       2.275   3.736  20.400  0.00  0.00    +0.000 C 
ATOM     25  O   UNL     1       2.330   4.241  21.516  0.00  0.00    +0.000 OA
ATOM     26  N   UNL     1       2.914   4.263  19.297  0.00  0.00    +0.000 N 
ATOM     27  H   UNL     1       2.823   3.798  18.403  0.00  0.00    +0.000 HD
BRANCH  24  29
ATOM     28  C   UNL     1       0.939   2.496  18.674  0.00  0.00    +0.000 C 
ATOM     29  C   UNL     1       1.490   2.477  20.091  0.00  0.00    +0.000 C 
ENDBRANCH  24  29
ENDBRANCH  22  26
ENDBRANCH  21  22
ENDBRANCH   1  21
TORSDOF 6
ENDMDL
MODEL 2
REMARK VINA RESULT:      -7.5      7.234     10.293
REMARK  Name = 
REMARK  8 active torsions:
REMARK  status: ('A' for Active; 'I' for Inactive)
REMARK    1  A    between atoms: C_1  and  C_2
REMARK    2  A    between atoms: C_2  and  C_3
REMARK    3  A    between atoms: N_5  and  C_6
REMARK    4  A    between atoms: C_6  and  C_7
REMARK    5  A    between atoms: C_6  and  C_8
REMARK    6  A    between atoms: C_8  and  C_9
REMARK    7  A    between atoms: C_12  and  C_13
REMARK    8  A    between atoms: N_15  and  C_16
REMARK                            x       y       z     vdW  Elec       q    Type
REMARK                         _______ _______ _______ _____ _____    ______ ____
ROOT
ATOM      1  C   UNL     1       5.320   4.872  17.352  0.00  0.00    +0.000 A 
ATOM      2  C   UNL     1       4.961   6.148  16.910  0.00  0.00    +0.000 A 
ATOM      3  C   UNL     1       5.870   7.203  16.992  0.00  0.00    +0.000 A 
ATOM      4  C   UNL     1       7.154   7.029  17.530  0.00  0.00    +0.000 A 
ATOM      5  C   UNL     1       7.461   5.751  18.037  0.00  0.00    +0.000 A 
ATOM      6  C   UNL     1       6.566   4.688  17.951  0.00  0.00    +0.000 A 
ENDROOT
BRANCH   4   7
ATOM      7  C   UNL     1       8.195   8.211  17.576  0.00  0.00    +0.000 C 
ATOM      8  C   UNL     1       7.655   9.633  17.429  0.00  0.00    +0.000 C 
ATOM      9  N   UNL     1       8.441  10.030  18.574  0.00  0.00    +0.000 N 
ATOM     10  C   UNL     1       8.781   8.673  18.919  0.00  0.00    +0.000 C 
BRANCH   9  11
ATOM     11  C   UNL     1       9.335  11.127  18.550  0.00  0.00    +0.000 A 
ATOM     12  C   UNL     1      10.651  10.998  18.091  0.00  0.00    +0.000 A 
ATOM     13  C   UNL     1      11.430  12.132  17.845  0.00  0.00    +0.000 A 
ATOM     14  C   UNL     1      10.897  13.399  18.060  0.00  0.00    +0.000 A 
ATOM     15  C   UNL     1       9.641  13.523  18.647  0.00  0.00    +0.000 A 
ATOM     16  C   UNL     1       8.880  12.397  18.920  0.00  0.00    +0.000 A 
ATOM     17  O   UNL     1       9.070  14.737  18.919  0.00  0.00    +0.000 OA
ATOM     18  C   UNL     1       9.459  15.652  17.897  0.00  0.00    +0.000 C 
ATOM     19  C   UNL     1      10.975  15.729  17.771  0.00  0.00    +0.000 C 
ATOM     20  O   UNL     1      11.633  14.465  17.625  0.00  0.00    +0.000 OA
ENDBRANCH   9  11
ENDBRANCH   4   7
BRANCH   1  21
ATOM     21  C   UNL     1       4.416   3.690  17.103  0.00  0.00    +0.000 C 
BRANCH  21  22
ATOM     22  C   UNL     1       3.991   3.017  18.426  0.00  0.00    +0.000 C 
ATOM     23  C   UNL     1       3.540   1.582  18.179  0.00  0.00    +0.000 C 
BRANCH  22  26
ATOM     24  C   UNL     1       2.616   3.529  20.425  0.00  0.00    +0.000 C 
ATOM     25  O   UNL     1       3.158   2.663  21.103  0.00  0.00    +0.000 OA
ATOM     26  N   UNL     1       2.935   3.768  19.105  0.00  0.00    +0.000 N 
ATOM     27  H   UNL     1       2.453   4.502  18.603  0.00  0.00    +0.000 HD
BRANCH  24  29
ATOM     28  C   UNL     1       1.768   5.890  20.520  0.00  0.00    +0.000 C 
ATOM     29  C   UNL     1       1.537   4.451  20.955  0.00  0.00    +0.000 C 
ENDBRANCH  24  29
ENDBRANCH  22  26
ENDBRANCH  21  22
ENDBRANCH   1  21
TORSDOF 6
ENDMDL
MODEL 3
REMARK VINA RESULT:      -7.4      1.355      1.825
REMARK  Name = 
REMARK  8 active torsions:
REMARK  status: ('A' for Active; 'I' for Inactive)
REMARK    1  A    between atoms: C_1  and  C_2
REMARK    2  A    between atoms: C_2  and  C_3
REMARK    3  A    between atoms: N_5  and  C_6
REMARK    4  A    between atoms: C_6  and  C_7
REMARK    5  A    between atoms: C_6  and  C_8
REMARK    6  A    between atoms: C_8  and  C_9
REMARK    7  A    between atoms: C_12  and  C_13
REMARK    8  A    between atoms: N_15  and  C_16
REMARK                            x       y       z     vdW  Elec       q    Type
REMARK                         _______ _______ _______ _____ _____    ______ ____
ROOT
ATOM      1  C   UNL     1       2.687   7.449  18.575  0.00  0.00    +0.000 A 
ATOM      2  C   UNL     1       2.215   7.509  19.889  0.00  0.00    +0.000 A 
ATOM      3  C   UNL     1       1.376   8.549  20.289  0.00  0.00    +0.000 A 
ATOM      4  C   UNL     1       0.994   9.569  19.404  0.00  0.00    +0.000 A 
ATOM      5  C   UNL     1       1.545   9.524  18.109  0.00  0.00    +0.000 A 
ATOM      6  C   UNL     1       2.375   8.486  17.695  0.00  0.00    +0.000 A 
ENDROOT
BRANCH   4   7
ATOM      7  C   UNL     1       0.006  10.714  19.846  0.00  0.00    +0.000 C 
ATOM      8  C   UNL     1      -0.297  10.849  21.338  0.00  0.00    +0.000 C 
ATOM      9  N   UNL     1      -0.049  12.269  21.241  0.00  0.00    +0.000 N 
ATOM     10  C   UNL     1       0.491  12.171  19.909  0.00  0.00    +0.000 C 
BRANCH   9  11
ATOM     11  C   UNL     1      -0.973  13.243  21.691  0.00  0.00    +0.000 A 
ATOM     12  C   UNL     1      -2.166  13.502  21.004  0.00  0.00    +0.000 A 
ATOM     13  C   UNL     1      -3.168  14.279  21.593  0.00  0.00    +0.000 A 
ATOM     14  C   UNL     1      -2.979  14.803  22.868  0.00  0.00    +0.000 A 
ATOM     15  C   UNL     1      -1.741  14.662  23.490  0.00  0.00    +0.000 A 
ATOM     16  C   UNL     1      -0.737  13.917  22.893  0.00  0.00    +0.000 A 
ATOM     17  O   UNL     1      -1.474  15.181  24.729  0.00  0.00    +0.000 OA
ATOM     18  C   UNL     1      -2.664  15.104  25.511  0.00  0.00    +0.000 C 
ATOM     19  C   UNL     1      -3.827  15.802  24.817  0.00  0.00    +0.000 C 
ATOM     20  O   UNL     1      -4.058  15.391  23.465  0.00  0.00    +0.000 OA
ENDBRANCH   9  11
ENDBRANCH   4   7
BRANCH   1  21
ATOM     21  C   UNL     1       3.443   6.240  18.084  0.00  0.00    +0.000 C 
BRANCH  21  22
ATOM     22  C   UNL     1       3.726   5.247  19.232  0.00  0.00    +0.000 C 
ATOM     23  C   UNL     1       5.134   4.676  19.114  0.00  0.00    +0.000 C 
BRANCH  22  26
ATOM     24  C   UNL     1       2.076   3.838  20.433  0.00  0.00    +0.000 C 
ATOM     25  O   UNL     1       2.277   4.397  21.505  0.00  0.00    +0.000 OA
ATOM     26  N   UNL     1       2.744   4.164  19.271  0.00  0.00    +0.000 N 
ATOM     27  H   UNL     1       2.526   3.666  18.417  0.00  0.00    +0.000 HD
BRANCH  24  29
ATOM     28  C   UNL     1       0.899   2.359  18.780  0.00  0.00    +0.000 C 
ATOM     29  C   UNL     1       1.061   2.728  20.247  0.00  0.00    +0.000 C 
ENDBRANCH  24  29
ENDBRANCH  22  26
ENDBRANCH  21  22
ENDBRANCH   1  21
TORSDOF 6
ENDMDL
MODEL 4
REMARK VINA RESULT:      -7.4      2.376      3.922
REMARK  Name = 
REMARK  8 active torsions:
REMARK  status: ('A' for Active; 'I' for Inactive)
REMARK    1  A    between atoms: C_1  and  C_2
REMARK    2  A    between atoms: C_2  and  C_3
REMARK    3  A    between atoms: N_5  and  C_6
REMARK    4  A    between atoms: C_6  and  C_7
REMARK    5  A    between atoms: C_6  and  C_8
REMARK    6  A    between atoms: C_8  and  C_9
REMARK    7  A    between atoms: C_12  and  C_13
REMARK    8  A    between atoms: N_15  and  C_16
REMARK                            x       y       z     vdW  Elec       q    Type
REMARK                         _______ _______ _______ _____ _____    ______ ____
ROOT
ATOM      1  C   UNL     1       3.056   5.323  18.273  0.00  0.00    +0.000 A 
ATOM      2  C   UNL     1       2.872   6.582  17.694  0.00  0.00    +0.000 A 
ATOM      3  C   UNL     1       2.410   7.650  18.463  0.00  0.00    +0.000 A 
ATOM      4  C   UNL     1       2.100   7.498  19.824  0.00  0.00    +0.000 A 
ATOM      5  C   UNL     1       2.222   6.202  20.361  0.00  0.00    +0.000 A 
ATOM      6  C   UNL     1       2.692   5.131  19.606  0.00  0.00    +0.000 A 
ENDROOT
BRANCH   4   7
ATOM      7  C   UNL     1       1.626   8.718  20.700  0.00  0.00    +0.000 C 
ATOM      8  C   UNL     1       0.870   9.843  19.995  0.00  0.00    +0.000 C 
ATOM      9  N   UNL     1      -0.127   9.803  21.039  0.00  0.00    +0.000 N 
ATOM     10  C   UNL     1       0.393   8.586  21.607  0.00  0.00    +0.000 C 
BRANCH   9  11
ATOM     11  C   UNL     1      -0.527  10.951  21.765  0.00  0.00    +0.000 A 
ATOM     12  C   UNL     1       0.072  12.200  21.560  0.00  0.00    +0.000 A 
ATOM     13  C   UNL     1      -0.500  13.357  22.099  0.00  0.00    +0.000 A 
ATOM     14  C   UNL     1      -1.669  13.267  22.849  0.00  0.00    +0.000 A 
ATOM     15  C   UNL     1      -2.184  12.013  23.168  0.00  0.00    +0.000 A 
ATOM     16  C   UNL     1      -1.600  10.865  22.658  0.00  0.00    +0.000 A 
ATOM     17  O   UNL     1      -3.310  11.850  23.929  0.00  0.00    +0.000 OA
ATOM     18  C   UNL     1      -4.205  12.921  23.638  0.00  0.00    +0.000 C 
ATOM     19  C   UNL     1      -3.537  14.274  23.855  0.00  0.00    +0.000 C 
ATOM     20  O   UNL     1      -2.281  14.440  23.188  0.00  0.00    +0.000 OA
ENDBRANCH   9  11
ENDBRANCH   4   7
BRANCH   1  21
ATOM     21  C   UNL     1       3.722   4.212  17.501  0.00  0.00    +0.000 C 
BRANCH  21  22
ATOM     22  C   UNL     1       4.913   4.737  16.672  0.00  0.00    +0.000 C 
ATOM     23  C   UNL     1       5.461   3.642  15.763  0.00  0.00    +0.000 C 
BRANCH  22  26
ATOM     24  C   UNL     1       6.570   6.485  17.262  0.00  0.00    +0.000 C 
ATOM     25  O   UNL     1       6.277   7.185  16.299  0.00  0.00    +0.000 OA
ATOM     26  N   UNL     1       5.979   5.266  17.522  0.00  0.00    +0.000 N 
ATOM     27  H   UNL     1       6.264   4.741  18.338  0.00  0.00    +0.000 HD
BRANCH  24  29
ATOM     28  C   UNL     1       8.167   8.266  18.025  0.00  0.00    +0.000 C 
ATOM     29  C   UNL     1       7.610   6.876  18.293  0.00  0.00    +0.000 C 
ENDBRANCH  24  29
ENDBRANCH  22  26
ENDBRANCH  21  22
ENDBRANCH   1  21
TORSDOF 6
ENDMDL
MODEL 5
REMARK VINA RESULT:      -7.4      1.234      1.534
REMARK  Name = 
REMARK  8 active torsions:
REMARK  status: ('A' for Active; 'I' for Inactive)
REMARK    1  A    between atoms: C_1  and  C_2
REMARK    2  A    between atoms: C_2  and  C_3
REMARK    3  A    between atoms: N_5  and  C_6
REMARK    4  A    between atoms: C_6  and  C_7
REMARK    5  A    between atoms: C_6  and  C_8
REMARK    6  A    between atoms: C_8  and  C_9
REMARK    7  A    between atoms: C_12  and  C_13
REMARK    8  A    between atoms: N_15  and  C_16
REMARK                            x       y       z     vdW  Elec       q    Type
REMARK                         _______ _______ _______ _____ _____    ______ ____
ROOT
ATOM      1  C   UNL     1       2.780   7.466  18.473  0.00  0.00    +0.000 A 
ATOM      2  C   UNL     1       2.151   8.513  17.794  0.00  0.00    +0.000 A 
ATOM      3  C   UNL     1       1.218   9.316  18.449  0.00  0.00    +0.000 A 
ATOM      4  C   UNL     1       0.867   9.094  19.790  0.00  0.00    +0.000 A 
ATOM      5  C   UNL     1       1.460   7.986  20.426  0.00  0.00    +0.000 A 
ATOM      6  C   UNL     1       2.400   7.184  19.786  0.00  0.00    +0.000 A 
ENDROOT
BRANCH   4   7
ATOM      7  C   UNL     1      -0.152  10.033  20.541  0.00  0.00    +0.000 C 
ATOM      8  C   UNL     1       0.061  10.253  22.037  0.00  0.00    +0.000 C 
ATOM      9  N   UNL     1      -0.094  11.674  21.832  0.00  0.00    +0.000 N 
ATOM     10  C   UNL     1      -0.046  11.559  20.397  0.00  0.00    +0.000 C 
BRANCH   9  11
ATOM     11  C   UNL     1      -1.011  12.462  22.570  0.00  0.00    +0.000 A 
ATOM     12  C   UNL     1      -0.726  13.785  22.929  0.00  0.00    +0.000 A 
ATOM     13  C   UNL     1      -1.733  14.615  23.432  0.00  0.00    +0.000 A 
ATOM     14  C   UNL     1      -3.025  14.123  23.584  0.00  0.00    +0.000 A 
ATOM     15  C   UNL     1      -3.275  12.771  23.359  0.00  0.00    +0.000 A 
ATOM     16  C   UNL     1      -2.270  11.941  22.888  0.00  0.00    +0.000 A 
ATOM     17  O   UNL     1      -4.514  12.213  23.522  0.00  0.00    +0.000 OA
ATOM     18  C   UNL     1      -5.492  13.178  23.141  0.00  0.00    +0.000 C 
ATOM     19  C   UNL     1      -5.323  14.474  23.923  0.00  0.00    +0.000 C 
ATOM     20  O   UNL     1      -4.000  15.025  23.899  0.00  0.00    +0.000 OA
ENDBRANCH   9  11
ENDBRANCH   4   7
BRANCH   1  21
ATOM     21  C   UNL     1       3.918   6.709  17.834  0.00  0.00    +0.000 C 
BRANCH  21  22
ATOM     22  C   UNL     1       4.430   5.579  18.752  0.00  0.00    +0.000 C 
ATOM     23  C   UNL     1       5.954   5.534  18.750  0.00  0.00    +0.000 C 
BRANCH  22  26
ATOM     24  C   UNL     1       4.244   3.122  19.035  0.00  0.00    +0.000 C 
ATOM     25  O   UNL     1       5.055   3.098  19.954  0.00  0.00    +0.000 OA
ATOM     26  N   UNL     1       3.886   4.276  18.370  0.00  0.00    +0.000 N 
ATOM     27  H   UNL     1       3.206   4.227  17.622  0.00  0.00    +0.000 HD
BRANCH  24  29
ATOM     28  C   UNL     1       2.356   2.259  17.624  0.00  0.00    +0.000 C 
ATOM     29  C   UNL     1       3.527   1.890  18.523  0.00  0.00    +0.000 C 
ENDBRANCH  24  29
ENDBRANCH  22  26
ENDBRANCH  21  22
ENDBRANCH   1  21
TORSDOF 6
ENDMDL
MODEL 6
REMARK VINA RESULT:      -7.3      2.296      3.829
REMARK  Name = 
REMARK  8 active torsions:
REMARK  status: ('A' for Active; 'I' for Inactive)
REMARK    1  A    between atoms: C_1  and  C_2
REMARK    2  A    between atoms: C_2  and  C_3
REMARK    3  A    between atoms: N_5  and  C_6
REMARK    4  A    between atoms: C_6  and  C_7
REMARK    5  A    between atoms: C_6  and  C_8
REMARK    6  A    between atoms: C_8  and  C_9
REMARK    7  A    between atoms: C_12  and  C_13
REMARK    8  A    between atoms: N_15  and  C_16
REMARK                            x       y       z     vdW  Elec       q    Type
REMARK                         _______ _______ _______ _____ _____    ______ ____
ROOT
ATOM      1  C   UNL     1       2.755   4.998  18.996  0.00  0.00    +0.000 A 
ATOM      2  C   UNL     1       2.164   5.165  20.252  0.00  0.00    +0.000 A 
ATOM      3  C   UNL     1       1.723   6.423  20.661  0.00  0.00    +0.000 A 
ATOM      4  C   UNL     1       1.871   7.556  19.845  0.00  0.00    +0.000 A 
ATOM      5  C   UNL     1       2.538   7.372  18.619  0.00  0.00    +0.000 A 
ATOM      6  C   UNL     1       2.972   6.119  18.196  0.00  0.00    +0.000 A 
ENDROOT
BRANCH   4   7
ATOM      7  C   UNL     1       1.327   8.967  20.290  0.00  0.00    +0.000 C 
ATOM      8  C   UNL     1       0.682   9.845  19.220  0.00  0.00    +0.000 C 
ATOM      9  N   UNL     1      -0.428  10.085  20.112  0.00  0.00    +0.000 N 
ATOM     10  C   UNL     1      -0.003   9.078  21.050  0.00  0.00    +0.000 C 
BRANCH   9  11
ATOM     11  C   UNL     1      -0.882  11.385  20.442  0.00  0.00    +0.000 A 
ATOM     12  C   UNL     1      -1.974  11.973  19.791  0.00  0.00    +0.000 A 
ATOM     13  C   UNL     1      -2.554  13.141  20.296  0.00  0.00    +0.000 A 
ATOM     14  C   UNL     1      -2.043  13.726  21.450  0.00  0.00    +0.000 A 
ATOM     15  C   UNL     1      -0.875  13.221  22.015  0.00  0.00    +0.000 A 
ATOM     16  C   UNL     1      -0.281  12.080  21.496  0.00  0.00    +0.000 A 
ATOM     17  O   UNL     1      -0.298  13.767  23.129  0.00  0.00    +0.000 OA
ATOM     18  C   UNL     1      -1.336  14.247  23.980  0.00  0.00    +0.000 C 
ATOM     19  C   UNL     1      -2.244  15.226  23.246  0.00  0.00    +0.000 C 
ATOM     20  O   UNL     1      -2.762  14.749  21.999  0.00  0.00    +0.000 OA
ENDBRANCH   9  11
ENDBRANCH   4   7
BRANCH   1  21
ATOM     21  C   UNL     1       3.069   3.619  18.472  0.00  0.00    +0.000 C 
BRANCH  21  22
ATOM     22  C   UNL     1       4.452   3.134  18.956  0.00  0.00    +0.000 C 
ATOM     23  C   UNL     1       4.311   2.252  20.192  0.00  0.00    +0.000 C 
BRANCH  22  26
ATOM     24  C   UNL     1       6.210   4.742  18.269  0.00  0.00    +0.000 C 
ATOM     25  O   UNL     1       6.300   4.268  17.142  0.00  0.00    +0.000 OA
ATOM     26  N   UNL     1       5.356   4.249  19.233  0.00  0.00    +0.000 N 
ATOM     27  H   UNL     1       5.327   4.691  20.143  0.00  0.00    +0.000 HD
BRANCH  24  29
ATOM     28  C   UNL     1       7.487   6.789  17.572  0.00  0.00    +0.000 C 
ATOM     29  C   UNL     1       7.019   5.934  18.740  0.00  0.00    +0.000 C 
ENDBRANCH  24  29
ENDBRANCH  22  26
ENDBRANCH  21  22
ENDBRANCH   1  21
TORSDOF 6
ENDMDL
MODEL 7
REMARK VINA RESULT:      -7.3      2.441      3.276
REMARK  Name = 
REMARK  8 active torsions:
REMARK  status: ('A' for Active; 'I' for Inactive)
REMARK    1  A    between atoms: C_1  and  C_2
REMARK    2  A    between atoms: C_2  and  C_3
REMARK    3  A    between atoms: N_5  and  C_6
REMARK    4  A    between atoms: C_6  and  C_7
REMARK    5  A    between atoms: C_6  and  C_8
REMARK    6  A    between atoms: C_8  and  C_9
REMARK    7  A    between atoms: C_12  and  C_13
REMARK    8  A    between atoms: N_15  and  C_16
REMARK                            x       y       z     vdW  Elec       q    Type
REMARK                         _______ _______ _______ _____ _____    ______ ____
ROOT
ATOM      1  C   UNL     1       3.049   6.655  18.886  0.00  0.00    +0.000 A 
ATOM      2  C   UNL     1       2.804   7.742  18.042  0.00  0.00    +0.000 A 
ATOM      3  C   UNL     1       1.968   8.779  18.455  0.00  0.00    +0.000 A 
ATOM      4  C   UNL     1       1.336   8.762  19.708  0.00  0.00    +0.000 A 
ATOM      5  C   UNL     1       1.540   7.619  20.505  0.00  0.00    +0.000 A 
ATOM      6  C   UNL     1       2.380   6.583  20.109  0.00  0.00    +0.000 A 
ENDROOT
BRANCH   4   7
ATOM      7  C   UNL     1       0.431   9.959  20.190  0.00  0.00    +0.000 C 
ATOM      8  C   UNL     1      -0.427   9.738  21.435  0.00  0.00    +0.000 C 
ATOM      9  N   UNL     1       0.041  11.001  21.958  0.00  0.00    +0.000 N 
ATOM     10  C   UNL     1       1.054  11.143  20.943  0.00  0.00    +0.000 C 
BRANCH   9  11
ATOM     11  C   UNL     1      -0.834  12.020  22.404  0.00  0.00    +0.000 A 
ATOM     12  C   UNL     1      -0.648  13.362  22.046  0.00  0.00    +0.000 A 
ATOM     13  C   UNL     1      -1.652  14.304  22.288  0.00  0.00    +0.000 A 
ATOM     14  C   UNL     1      -2.842  13.910  22.891  0.00  0.00    +0.000 A 
ATOM     15  C   UNL     1      -2.970  12.610  23.371  0.00  0.00    +0.000 A 
ATOM     16  C   UNL     1      -1.962  11.682  23.159  0.00  0.00    +0.000 A 
ATOM     17  O   UNL     1      -4.098  12.164  24.005  0.00  0.00    +0.000 OA
ATOM     18  C   UNL     1      -5.225  12.805  23.412  0.00  0.00    +0.000 C 
ATOM     19  C   UNL     1      -5.085  14.321  23.456  0.00  0.00    +0.000 C 
ATOM     20  O   UNL     1      -3.853  14.828  22.929  0.00  0.00    +0.000 OA
ENDBRANCH   9  11
ENDBRANCH   4   7
BRANCH   1  21
ATOM     21  C   UNL     1       4.087   5.621  18.527  0.00  0.00    +0.000 C 
BRANCH  21  22
ATOM     22  C   UNL     1       3.730   4.897  17.212  0.00  0.00    +0.000 C 
ATOM     23  C   UNL     1       2.751   3.757  17.475  0.00  0.00    +0.000 C 
BRANCH  22  26
ATOM     24  C   UNL     1       5.599   5.159  15.603  0.00  0.00    +0.000 C 
ATOM     25  O   UNL     1       5.243   6.284  15.269  0.00  0.00    +0.000 OA
ATOM     26  N   UNL     1       4.919   4.392  16.526  0.00  0.00    +0.000 N 
ATOM     27  H   UNL     1       5.269   3.472  16.761  0.00  0.00    +0.000 HD
BRANCH  24  29
ATOM     28  C   UNL     1       7.110   4.894  13.616  0.00  0.00    +0.000 C 
ATOM     29  C   UNL     1       6.833   4.475  15.052  0.00  0.00    +0.000 C 
ENDBRANCH  24  29
ENDBRANCH  22  26
ENDBRANCH  21  22
ENDBRANCH   1  21
TORSDOF 6
ENDMDL
MODEL 8
REMARK VINA RESULT:      -7.3      0.778      1.246
REMARK  Name = 
REMARK  8 active torsions:
REMARK  status: ('A' for Active; 'I' for Inactive)
REMARK    1  A    between atoms: C_1  and  C_2
REMARK    2  A    between atoms: C_2  and  C_3
REMARK    3  A    between atoms: N_5  and  C_6
REMARK    4  A    between atoms: C_6  and  C_7
REMARK    5  A    between atoms: C_6  and  C_8
REMARK    6  A    between atoms: C_8  and  C_9
REMARK    7  A    between atoms: C_12  and  C_13
REMARK    8  A    between atoms: N_15  and  C_16
REMARK                            x       y       z     vdW  Elec       q    Type
REMARK                         _______ _______ _______ _____ _____    ______ ____
ROOT
ATOM      1  C   UNL     1       2.395   8.160  18.391  0.00  0.00    +0.000 A 
ATOM      2  C   UNL     1       1.659   9.149  17.731  0.00  0.00    +0.000 A 
ATOM      3  C   UNL     1       0.706   9.896  18.423  0.00  0.00    +0.000 A 
ATOM      4  C   UNL     1       0.441   9.674  19.783  0.00  0.00    +0.000 A 
ATOM      5  C   UNL     1       1.142   8.621  20.402  0.00  0.00    +0.000 A 
ATOM      6  C   UNL     1       2.103   7.875  19.725  0.00  0.00    +0.000 A 
ENDROOT
BRANCH   4   7
ATOM      7  C   UNL     1      -0.602  10.553  20.572  0.00  0.00    +0.000 C 
ATOM      8  C   UNL     1      -0.528  10.536  22.098  0.00  0.00    +0.000 C 
ATOM      9  N   UNL     1      -0.595  11.978  22.099  0.00  0.00    +0.000 N 
ATOM     10  C   UNL     1      -0.411  12.074  20.674  0.00  0.00    +0.000 C 
BRANCH   9  11
ATOM     11  C   UNL     1      -1.542  12.703  22.862  0.00  0.00    +0.000 A 
ATOM     12  C   UNL     1      -1.206  13.893  23.521  0.00  0.00    +0.000 A 
ATOM     13  C   UNL     1      -2.204  14.714  24.054  0.00  0.00    +0.000 A 
ATOM     14  C   UNL     1      -3.541  14.346  23.935  0.00  0.00    +0.000 A 
ATOM     15  C   UNL     1      -3.864  13.099  23.406  0.00  0.00    +0.000 A 
ATOM     16  C   UNL     1      -2.872  12.272  22.904  0.00  0.00    +0.000 A 
ATOM     17  O   UNL     1      -5.155  12.659  23.292  0.00  0.00    +0.000 OA
ATOM     18  C   UNL     1      -5.985  13.780  22.999  0.00  0.00    +0.000 C 
ATOM     19  C   UNL     1      -5.827  14.874  24.048  0.00  0.00    +0.000 C 
ATOM     20  O   UNL     1      -4.475  15.271  24.305  0.00  0.00    +0.000 OA
ENDBRANCH   9  11
ENDBRANCH   4   7
BRANCH   1  21
ATOM     21  C   UNL     1       3.549   7.473  17.703  0.00  0.00    +0.000 C 
BRANCH  21  22
ATOM     22  C   UNL     1       3.861   6.108  18.353  0.00  0.00    +0.000 C 
ATOM     23  C   UNL     1       5.295   5.686  18.054  0.00  0.00    +0.000 C 
BRANCH  22  26
ATOM     24  C   UNL     1       2.257   4.277  18.825  0.00  0.00    +0.000 C 
ATOM     25  O   UNL     1       2.417   4.357  20.038  0.00  0.00    +0.000 OA
ATOM     26  N   UNL     1       2.927   5.070  17.918  0.00  0.00    +0.000 N 
ATOM     27  H   UNL     1       2.745   4.956  16.929  0.00  0.00    +0.000 HD
BRANCH  24  29
ATOM     28  C   UNL     1       1.208   1.999  18.949  0.00  0.00    +0.000 C 
ATOM     29  C   UNL     1       1.296   3.304  18.172  0.00  0.00    +0.000 C 
ENDBRANCH  24  29
ENDBRANCH  22  26
ENDBRANCH  21  22
ENDBRANCH   1  21
TORSDOF 6
ENDMDL
MODEL 9
REMARK VINA RESULT:      -7.3      2.477      3.802
REMARK  Name = 
REMARK  8 active torsions:
REMARK  status: ('A' for Active; 'I' for Inactive)
REMARK    1  A    between atoms: C_1  and  C_2
REMARK    2  A    between atoms: C_2  and  C_3
REMARK    3  A    between atoms: N_5  and  C_6
REMARK    4  A    between atoms: C_6  and  C_7
REMARK    5  A    between atoms: C_6  and  C_8
REMARK    6  A    between atoms: C_8  and  C_9
REMARK    7  A    between atoms: C_12  and  C_13
REMARK    8  A    between atoms: N_15  and  C_16
REMARK                            x       y       z     vdW  Elec       q    Type
REMARK                         _______ _______ _______ _____ _____    ______ ____
ROOT
ATOM      1  C   UNL     1       2.668   6.213  18.626  0.00  0.00    +0.000 A 
ATOM      2  C   UNL     1       2.308   6.272  19.975  0.00  0.00    +0.000 A 
ATOM      3  C   UNL     1       1.790   7.450  20.514  0.00  0.00    +0.000 A 
ATOM      4  C   UNL     1       1.631   8.608  19.738  0.00  0.00    +0.000 A 
ATOM      5  C   UNL     1       2.073   8.542  18.402  0.00  0.00    +0.000 A 
ATOM      6  C   UNL     1       2.581   7.370  17.850  0.00  0.00    +0.000 A 
ENDROOT
BRANCH   4   7
ATOM      7  C   UNL     1       1.001   9.921  20.339  0.00  0.00    +0.000 C 
ATOM      8  C   UNL     1       0.221  10.829  19.389  0.00  0.00    +0.000 C 
ATOM      9  N   UNL     1      -0.849  10.892  20.358  0.00  0.00    +0.000 N 
ATOM     10  C   UNL     1      -0.285   9.848  21.175  0.00  0.00    +0.000 C 
BRANCH   9  11
ATOM     11  C   UNL     1      -1.388  12.113  20.829  0.00  0.00    +0.000 A 
ATOM     12  C   UNL     1      -2.648  12.570  20.422  0.00  0.00    +0.000 A 
ATOM     13  C   UNL     1      -3.261  13.639  21.083  0.00  0.00    +0.000 A 
ATOM     14  C   UNL     1      -2.614  14.258  22.148  0.00  0.00    +0.000 A 
ATOM     15  C   UNL     1      -1.306  13.896  22.460  0.00  0.00    +0.000 A 
ATOM     16  C   UNL     1      -0.687  12.855  21.785  0.00  0.00    +0.000 A 
ATOM     17  O   UNL     1      -0.598  14.486  23.472  0.00  0.00    +0.000 OA
ATOM     18  C   UNL     1      -1.506  14.806  24.524  0.00  0.00    +0.000 C 
ATOM     19  C   UNL     1      -2.651  15.676  24.021  0.00  0.00    +0.000 C 
ATOM     20  O   UNL     1      -3.335  15.165  22.871  0.00  0.00    +0.000 OA
ENDBRANCH   9  11
ENDBRANCH   4   7
BRANCH   1  21
ATOM     21  C   UNL     1       3.057   4.901  17.990  0.00  0.00    +0.000 C 
BRANCH  21  22
ATOM     22  C   UNL     1       4.283   5.063  17.067  0.00  0.00    +0.000 C 
ATOM     23  C   UNL     1       4.612   3.746  16.374  0.00  0.00    +0.000 C 
BRANCH  22  26
ATOM     24  C   UNL     1       6.407   6.339  17.178  0.00  0.00    +0.000 C 
ATOM     25  O   UNL     1       6.365   6.642  15.991  0.00  0.00    +0.000 OA
ATOM     26  N   UNL     1       5.452   5.557  17.794  0.00  0.00    +0.000 N 
ATOM     27  H   UNL     1       5.543   5.347  18.780  0.00  0.00    +0.000 HD
BRANCH  24  29
ATOM     28  C   UNL     1       7.959   8.210  17.804  0.00  0.00    +0.000 C 
ATOM     29  C   UNL     1       7.505   6.792  18.118  0.00  0.00    +0.000 C 
ENDBRANCH  24  29
ENDBRANCH  22  26
ENDBRANCH  21  22
ENDBRANCH   1  21
TORSDOF 6
ENDMDL
