MODEL 1
REMARK VINA RESULT:      -7.5      0.000      0.000
REMARK  Name = 
REMARK  10 active torsions:
REMARK  status: ('A' for Active; 'I' for Inactive)
REMARK    1  A    between atoms: C_2  and  C_3
REMARK    2  A    between atoms: C_3  and  C_4
REMARK    3  A    between atoms: C_4  and  C_5
REMARK    4  A    between atoms: C_5  and  N_6
REMARK    5  A    between atoms: C_7  and  O_8
REMARK    6  A    between atoms: C_9  and  N_10
REMARK    7  A    between atoms: N_11  and  C_12
REMARK    8  A    between atoms: C_12  and  C_14
REMARK    9  A    between atoms: C_14  and  O_15
REMARK   10  A    between atoms: C_14  and  C_16
REMARK                            x       y       z     vdW  Elec       q    Type
REMARK                         _______ _______ _______ _____ _____    ______ ____
ROOT
ATOM      1  N   UNL     1       4.203   4.864  18.248  0.00  0.00    +0.000 N 
ATOM      2  C   UNL     1       3.985   6.225  18.106  0.00  0.00    +0.000 A 
ATOM      3  C   UNL     1       2.919   6.542  18.930  0.00  0.00    +0.000 A 
ATOM      4  C   UNL     1       2.440   5.358  19.546  0.00  0.00    +0.000 A 
ATOM      5  C   UNL     1       1.376   5.062  20.428  0.00  0.00    +0.000 A 
ATOM      6  C   UNL     1       1.172   3.746  20.852  0.00  0.00    +0.000 A 
ATOM      7  C   UNL     1       2.010   2.726  20.422  0.00  0.00    +0.000 A 
ATOM      8  C   UNL     1       3.077   2.994  19.562  0.00  0.00    +0.000 A 
ATOM      9  C   UNL     1       3.269   4.317  19.121  0.00  0.00    +0.000 A 
ENDROOT
BRANCH   2  10
ATOM     10  O   UNL     1       4.683   7.029  17.304  0.00  0.00    +0.000 OA
ATOM     11  H   UNL     1       4.342   7.060  16.397  0.00  0.00    +0.000 HD
ENDBRANCH   2  10
BRANCH   3  12
ATOM     12  N   UNL     1       2.309   7.792  19.126  0.00  0.00    +0.000 NA
ATOM     13  N   UNL     1       2.379   8.556  18.139  0.00  0.00    +0.000 NA
BRANCH  13  14
ATOM     14  C   UNL     1       1.726   9.750  18.367  0.00  0.00    +0.000 C 
ATOM     15  O   UNL     1       2.044  10.856  17.922  0.00  0.00    +0.000 OA
BRANCH  14  16
ATOM     16  C   UNL     1       0.470   9.596  19.258  0.00  0.00    +0.000 C 
BRANCH  16  17
ATOM     17  C   UNL     1      -0.787  10.234  18.693  0.00  0.00    +0.000 A 
ATOM     18  C   UNL     1      -1.390  11.288  19.403  0.00  0.00    +0.000 A 
ATOM     19  C   UNL     1      -2.559  11.892  18.938  0.00  0.00    +0.000 A 
ATOM     20  C   UNL     1      -3.134  11.467  17.744  0.00  0.00    +0.000 A 
ATOM     21  C   UNL     1      -2.522  10.460  17.001  0.00  0.00    +0.000 A 
ATOM     22  C   UNL     1      -1.351   9.852  17.466  0.00  0.00    +0.000 A 
ENDBRANCH  16  17
BRANCH  16  23
ATOM     23  O   UNL     1       0.661  10.127  20.570  0.00  0.00    +0.000 OA
ATOM     24  H   UNL     1       0.671  11.097  20.468  0.00  0.00    +0.000 HD
ENDBRANCH  16  23
ENDBRANCH  14  16
ENDBRANCH  13  14
ENDBRANCH   3  12
BRANCH   1  25
ATOM     25  C   UNL     1       5.217   4.063  17.579  0.00  0.00    +0.000 C 
BRANCH  25  26
ATOM     26  C   UNL     1       4.879   3.723  16.119  0.00  0.00    +0.000 C 
BRANCH  26  27
ATOM     27  C   UNL     1       6.031   3.973  15.151  0.00  0.00    +0.000 C 
BRANCH  27  29
ATOM     28  N   UNL     1       7.488   6.175  16.023  0.00  0.00    +0.000 NA
ATOM     29  C   UNL     1       6.828   5.176  15.628  0.00  0.00    +0.000 C 
ENDBRANCH  27  29
ENDBRANCH  26  27
ENDBRANCH  25  26
ENDBRANCH   1  25
TORSDOF 10
ENDMDL
MODEL 2
REMARK VINA RESULT:      -7.5      1.290      1.721
REMARK  Name = 
REMARK  10 active torsions:
REMARK  status: ('A' for Active; 'I' for Inactive)
REMARK    1  A    between atoms: C_2  and  C_3
REMARK    2  A    between atoms: C_3  and  C_4
REMARK    3  A    between atoms: C_4  and  C_5
REMARK    4  A    between atoms: C_5  and  N_6
REMARK    5  A    between atoms: C_7  and  O_8
REMARK    6  A    between atoms: C_9  and  N_10
REMARK    7  A    between atoms: N_11  and  C_12
REMARK    8  A    between atoms: C_12  and  C_14
REMARK    9  A    between atoms: C_14  and  O_15
REMARK   10  A    between atoms: C_14  and  C_16
REMARK                            x       y       z     vdW  Elec       q    Type
REMARK                         _______ _______ _______ _____ _____    ______ ____
ROOT
ATOM      1  N   UNL     1       3.892   5.010  17.352  0.00  0.00    +0.000 N 
ATOM      2  C   UNL     1       3.697   6.293  17.836  0.00  0.00    +0.000 A 
ATOM      3  C   UNL     1       2.714   6.202  18.807  0.00  0.00    +0.000 A 
ATOM      4  C   UNL     1       2.260   4.862  18.885  0.00  0.00    +0.000 A 
ATOM      5  C   UNL     1       1.268   4.194  19.640  0.00  0.00    +0.000 A 
ATOM      6  C   UNL     1       1.069   2.822  19.464  0.00  0.00    +0.000 A 
ATOM      7  C   UNL     1       1.841   2.105  18.560  0.00  0.00    +0.000 A 
ATOM      8  C   UNL     1       2.837   2.737  17.813  0.00  0.00    +0.000 A 
ATOM      9  C   UNL     1       3.023   4.123  17.977  0.00  0.00    +0.000 A 
ENDROOT
BRANCH   2  10
ATOM     10  O   UNL     1       4.343   7.377  17.407  0.00  0.00    +0.000 OA
ATOM     11  H   UNL     1       5.264   7.204  17.157  0.00  0.00    +0.000 HD
ENDBRANCH   2  10
BRANCH   3  12
ATOM     12  N   UNL     1       2.154   7.232  19.581  0.00  0.00    +0.000 NA
ATOM     13  N   UNL     1       1.852   8.256  18.930  0.00  0.00    +0.000 NA
BRANCH  13  14
ATOM     14  C   UNL     1       1.264   9.217  19.727  0.00  0.00    +0.000 C 
ATOM     15  O   UNL     1       1.026   9.122  20.934  0.00  0.00    +0.000 OA
BRANCH  14  16
ATOM     16  C   UNL     1       0.922  10.517  18.960  0.00  0.00    +0.000 C 
BRANCH  16  17
ATOM     17  C   UNL     1      -0.540  10.656  18.575  0.00  0.00    +0.000 A 
ATOM     18  C   UNL     1      -1.319  11.638  19.211  0.00  0.00    +0.000 A 
ATOM     19  C   UNL     1      -2.673  11.790  18.908  0.00  0.00    +0.000 A 
ATOM     20  C   UNL     1      -3.266  10.976  17.948  0.00  0.00    +0.000 A 
ATOM     21  C   UNL     1      -2.498  10.032  17.270  0.00  0.00    +0.000 A 
ATOM     22  C   UNL     1      -1.142   9.877  17.573  0.00  0.00    +0.000 A 
ENDBRANCH  16  17
BRANCH  16  23
ATOM     23  O   UNL     1       1.691  10.666  17.765  0.00  0.00    +0.000 OA
ATOM     24  H   UNL     1       2.170   9.825  17.647  0.00  0.00    +0.000 HD
ENDBRANCH  16  23
ENDBRANCH  14  16
ENDBRANCH  13  14
ENDBRANCH   3  12
BRANCH   1  25
ATOM     25  C   UNL     1       4.825   4.597  16.314  0.00  0.00    +0.000 C 
BRANCH  25  26
ATOM     26  C   UNL     1       6.190   4.137  16.850  0.00  0.00    +0.000 C 
BRANCH  26  27
ATOM     27  C   UNL     1       7.141   5.287  17.163  0.00  0.00    +0.000 C 
BRANCH  27  29
ATOM     28  N   UNL     1       7.464   5.475  19.919  0.00  0.00    +0.000 NA
ATOM     29  C   UNL     1       7.317   5.390  18.669  0.00  0.00    +0.000 C 
ENDBRANCH  27  29
ENDBRANCH  26  27
ENDBRANCH  25  26
ENDBRANCH   1  25
TORSDOF 10
ENDMDL
MODEL 3
REMARK VINA RESULT:      -7.4      1.240      1.913
REMARK  Name = 
REMARK  10 active torsions:
REMARK  status: ('A' for Active; 'I' for Inactive)
REMARK    1  A    between atoms: C_2  and  C_3
REMARK    2  A    between atoms: C_3  and  C_4
REMARK    3  A    between atoms: C_4  and  C_5
REMARK    4  A    between atoms: C_5  and  N_6
REMARK    5  A    between atoms: C_7  and  O_8
REMARK    6  A    between atoms: C_9  and  N_10
REMARK    7  A    between atoms: N_11  and  C_12
REMARK    8  A    between atoms: C_12  and  C_14
REMARK    9  A    between atoms: C_14  and  O_15
REMARK   10  A    between atoms: C_14  and  C_16
REMARK                            x       y       z     vdW  Elec       q    Type
REMARK                         _______ _______ _______ _____ _____    ______ ____
ROOT
ATOM      1  N   UNL     1       3.572   5.130  17.858  0.00  0.00    +0.000 N 
ATOM      2  C   UNL     1       3.322   6.457  18.168  0.00  0.00    +0.000 A 
ATOM      3  C   UNL     1       2.453   6.452  19.247  0.00  0.00    +0.000 A 
ATOM      4  C   UNL     1       2.123   5.112  19.570  0.00  0.00    +0.000 A 
ATOM      5  C   UNL     1       1.271   4.505  20.522  0.00  0.00    +0.000 A 
ATOM      6  C   UNL     1       1.169   3.112  20.572  0.00  0.00    +0.000 A 
ATOM      7  C   UNL     1       1.903   2.317  19.702  0.00  0.00    +0.000 A 
ATOM      8  C   UNL     1       2.762   2.891  18.763  0.00  0.00    +0.000 A 
ATOM      9  C   UNL     1       2.848   4.295  18.700  0.00  0.00    +0.000 A 
ENDROOT
BRANCH   2  10
ATOM     10  O   UNL     1       3.829   7.502  17.515  0.00  0.00    +0.000 OA
ATOM     11  H   UNL     1       3.195   8.225  17.391  0.00  0.00    +0.000 HD
ENDBRANCH   2  10
BRANCH   3  12
ATOM     12  N   UNL     1       1.892   7.550  19.919  0.00  0.00    +0.000 NA
ATOM     13  N   UNL     1       1.674   8.541  19.189  0.00  0.00    +0.000 NA
BRANCH  13  14
ATOM     14  C   UNL     1       1.080   9.573  19.888  0.00  0.00    +0.000 C 
ATOM     15  O   UNL     1       0.860   9.605  21.102  0.00  0.00    +0.000 OA
BRANCH  14  16
ATOM     16  C   UNL     1       0.705  10.777  18.992  0.00  0.00    +0.000 C 
BRANCH  16  17
ATOM     17  C   UNL     1      -0.752  10.817  18.566  0.00  0.00    +0.000 A 
ATOM     18  C   UNL     1      -1.190   9.935  17.563  0.00  0.00    +0.000 A 
ATOM     19  C   UNL     1      -2.514   9.949  17.120  0.00  0.00    +0.000 A 
ATOM     20  C   UNL     1      -3.428  10.830  17.689  0.00  0.00    +0.000 A 
ATOM     21  C   UNL     1      -3.025  11.675  18.720  0.00  0.00    +0.000 A 
ATOM     22  C   UNL     1      -1.699  11.664  19.164  0.00  0.00    +0.000 A 
ENDBRANCH  16  17
BRANCH  16  23
ATOM     23  O   UNL     1       1.494  10.842  17.802  0.00  0.00    +0.000 OA
ATOM     24  H   UNL     1       1.395  11.751  17.463  0.00  0.00    +0.000 HD
ENDBRANCH  16  23
ENDBRANCH  14  16
ENDBRANCH  13  14
ENDBRANCH   3  12
BRANCH   1  25
ATOM     25  C   UNL     1       4.426   4.625  16.793  0.00  0.00    +0.000 C 
BRANCH  25  26
ATOM     26  C   UNL     1       5.856   4.292  17.246  0.00  0.00    +0.000 C 
BRANCH  26  27
ATOM     27  C   UNL     1       6.720   5.524  17.493  0.00  0.00    +0.000 C 
BRANCH  27  29
ATOM     28  N   UNL     1       7.685   5.450  20.101  0.00  0.00    +0.000 NA
ATOM     29  C   UNL     1       7.248   5.483  18.919  0.00  0.00    +0.000 C 
ENDBRANCH  27  29
ENDBRANCH  26  27
ENDBRANCH  25  26
ENDBRANCH   1  25
TORSDOF 10
ENDMDL
MODEL 4
REMARK VINA RESULT:      -7.3      0.878      1.608
REMARK  Name = 
REMARK  10 active torsions:
REMARK  status: ('A' for Active; 'I' for Inactive)
REMARK    1  A    between atoms: C_2  and  C_3
REMARK    2  A    between atoms: C_3  and  C_4
REMARK    3  A    between atoms: C_4  and  C_5
REMARK    4  A    between atoms: C_5  and  N_6
REMARK    5  A    between atoms: C_7  and  O_8
REMARK    6  A    between atoms: C_9  and  N_10
REMARK    7  A    between atoms: N_11  and  C_12
REMARK    8  A    between atoms: C_12  and  C_14
REMARK    9  A    between atoms: C_14  and  O_15
REMARK   10  A    between atoms: C_14  and  C_16
REMARK                            x       y       z     vdW  Elec       q    Type
REMARK                         _______ _______ _______ _____ _____    ______ ____
ROOT
ATOM      1  N   UNL     1       3.523   5.006  17.878  0.00  0.00    +0.000 N 
ATOM      2  C   UNL     1       3.364   6.348  18.180  0.00  0.00    +0.000 A 
ATOM      3  C   UNL     1       2.519   6.409  19.275  0.00  0.00    +0.000 A 
ATOM      4  C   UNL     1       2.109   5.096  19.618  0.00  0.00    +0.000 A 
ATOM      5  C   UNL     1       1.239   4.553  20.592  0.00  0.00    +0.000 A 
ATOM      6  C   UNL     1       1.048   3.170  20.657  0.00  0.00    +0.000 A 
ATOM      7  C   UNL     1       1.712   2.322  19.782  0.00  0.00    +0.000 A 
ATOM      8  C   UNL     1       2.587   2.831  18.820  0.00  0.00    +0.000 A 
ATOM      9  C   UNL     1       2.763   4.226  18.742  0.00  0.00    +0.000 A 
ENDROOT
BRANCH   2  10
ATOM     10  O   UNL     1       3.925   7.353  17.507  0.00  0.00    +0.000 OA
ATOM     11  H   UNL     1       3.779   7.305  16.550  0.00  0.00    +0.000 HD
ENDBRANCH   2  10
BRANCH   3  12
ATOM     12  N   UNL     1       2.043   7.546  19.948  0.00  0.00    +0.000 NA
ATOM     13  N   UNL     1       1.633   8.454  19.192  0.00  0.00    +0.000 NA
BRANCH  13  14
ATOM     14  C   UNL     1       1.134   9.527  19.902  0.00  0.00    +0.000 C 
ATOM     15  O   UNL     1       0.981   9.589  21.125  0.00  0.00    +0.000 OA
BRANCH  14  16
ATOM     16  C   UNL     1       0.777  10.737  19.005  0.00  0.00    +0.000 C 
BRANCH  16  17
ATOM     17  C   UNL     1      -0.686  10.817  18.607  0.00  0.00    +0.000 A 
ATOM     18  C   UNL     1      -1.165   9.951  17.608  0.00  0.00    +0.000 A 
ATOM     19  C   UNL     1      -2.496  10.002  17.189  0.00  0.00    +0.000 A 
ATOM     20  C   UNL     1      -3.376  10.905  17.779  0.00  0.00    +0.000 A 
ATOM     21  C   UNL     1      -2.932  11.735  18.806  0.00  0.00    +0.000 A 
ATOM     22  C   UNL     1      -1.599  11.687  19.225  0.00  0.00    +0.000 A 
ENDBRANCH  16  17
BRANCH  16  23
ATOM     23  O   UNL     1       1.546  10.772  17.801  0.00  0.00    +0.000 OA
ATOM     24  H   UNL     1       1.758   9.844  17.591  0.00  0.00    +0.000 HD
ENDBRANCH  16  23
ENDBRANCH  14  16
ENDBRANCH  13  14
ENDBRANCH   3  12
BRANCH   1  25
ATOM     25  C   UNL     1       4.321   4.437  16.802  0.00  0.00    +0.000 C 
BRANCH  25  26
ATOM     26  C   UNL     1       5.705   3.940  17.248  0.00  0.00    +0.000 C 
BRANCH  26  27
ATOM     27  C   UNL     1       6.801   4.993  17.124  0.00  0.00    +0.000 C 
BRANCH  27  29
ATOM     28  N   UNL     1       7.438   5.327  14.438  0.00  0.00    +0.000 NA
ATOM     29  C   UNL     1       7.150   5.176  15.656  0.00  0.00    +0.000 C 
ENDBRANCH  27  29
ENDBRANCH  26  27
ENDBRANCH  25  26
ENDBRANCH   1  25
TORSDOF 10
ENDMDL
MODEL 5
REMARK VINA RESULT:      -7.3      0.776      1.227
REMARK  Name = 
REMARK  10 active torsions:
REMARK  status: ('A' for Active; 'I' for Inactive)
REMARK    1  A    between atoms: C_2  and  C_3
REMARK    2  A    between atoms: C_3  and  C_4
REMARK    3  A    between atoms: C_4  and  C_5
REMARK    4  A    between atoms: C_5  and  N_6
REMARK    5  A    between atoms: C_7  and  O_8
REMARK    6  A    between atoms: C_9  and  N_10
REMARK    7  A    between atoms: N_11  and  C_12
REMARK    8  A    between atoms: C_12  and  C_14
REMARK    9  A    between atoms: C_14  and  O_15
REMARK   10  A    between atoms: C_14  and  C_16
REMARK                            x       y       z     vdW  Elec       q    Type
REMARK                         _______ _______ _______ _____ _____    ______ ____
ROOT
ATOM      1  N   UNL     1       4.120   4.664  18.213  0.00  0.00    +0.000 N 
ATOM      2  C   UNL     1       3.895   5.994  18.527  0.00  0.00    +0.000 A 
ATOM      3  C   UNL     1       2.758   6.025  19.317  0.00  0.00    +0.000 A 
ATOM      4  C   UNL     1       2.247   4.709  19.446  0.00  0.00    +0.000 A 
ATOM      5  C   UNL     1       1.115   4.144  20.079  0.00  0.00    +0.000 A 
ATOM      6  C   UNL     1       0.896   2.765  20.007  0.00  0.00    +0.000 A 
ATOM      7  C   UNL     1       1.784   1.942  19.327  0.00  0.00    +0.000 A 
ATOM      8  C   UNL     1       2.916   2.473  18.705  0.00  0.00    +0.000 A 
ATOM      9  C   UNL     1       3.124   3.864  18.762  0.00  0.00    +0.000 A 
ENDROOT
BRANCH   2  10
ATOM     10  O   UNL     1       4.646   7.014  18.112  0.00  0.00    +0.000 OA
ATOM     11  H   UNL     1       5.597   6.869  18.238  0.00  0.00    +0.000 HD
ENDBRANCH   2  10
BRANCH   3  12
ATOM     12  N   UNL     1       2.114   7.141  19.877  0.00  0.00    +0.000 NA
ATOM     13  N   UNL     1       1.991   8.107  19.093  0.00  0.00    +0.000 NA
BRANCH  13  14
ATOM     14  C   UNL     1       1.312   9.157  19.676  0.00  0.00    +0.000 C 
ATOM     15  O   UNL     1       0.969   9.242  20.858  0.00  0.00    +0.000 OA
BRANCH  14  16
ATOM     16  C   UNL     1       1.010  10.310  18.688  0.00  0.00    +0.000 C 
BRANCH  16  17
ATOM     17  C   UNL     1      -0.467  10.551  18.433  0.00  0.00    +0.000 A 
ATOM     18  C   UNL     1      -1.114  11.591  19.124  0.00  0.00    +0.000 A 
ATOM     19  C   UNL     1      -2.475  11.838  18.943  0.00  0.00    +0.000 A 
ATOM     20  C   UNL     1      -3.209  11.064  18.049  0.00  0.00    +0.000 A 
ATOM     21  C   UNL     1      -2.575  10.063  17.317  0.00  0.00    +0.000 A 
ATOM     22  C   UNL     1      -1.211   9.812  17.499  0.00  0.00    +0.000 A 
ENDBRANCH  16  17
BRANCH  16  23
ATOM     23  O   UNL     1       1.633  10.118  17.416  0.00  0.00    +0.000 OA
ATOM     24  H   UNL     1       2.117   9.275  17.479  0.00  0.00    +0.000 HD
ENDBRANCH  16  23
ENDBRANCH  14  16
ENDBRANCH  13  14
ENDBRANCH   3  12
BRANCH   1  25
ATOM     25  C   UNL     1       5.200   4.126  17.399  0.00  0.00    +0.000 C 
BRANCH  25  26
ATOM     26  C   UNL     1       4.869   4.044  15.900  0.00  0.00    +0.000 C 
BRANCH  26  27
ATOM     27  C   UNL     1       5.512   5.150  15.071  0.00  0.00    +0.000 C 
BRANCH  27  29
ATOM     28  N   UNL     1       7.500   6.378  16.580  0.00  0.00    +0.000 NA
ATOM     29  C   UNL     1       6.599   5.821  15.896  0.00  0.00    +0.000 C 
ENDBRANCH  27  29
ENDBRANCH  26  27
ENDBRANCH  25  26
ENDBRANCH   1  25
TORSDOF 10
ENDMDL
MODEL 6
REMARK VINA RESULT:      -7.3      0.872      1.349
REMARK  Name = 
REMARK  10 active torsions:
REMARK  status: ('A' for Active; 'I' for Inactive)
REMARK    1  A    between atoms: C_2  and  C_3
REMARK    2  A    between atoms: C_3  and  C_4
REMARK    3  A    between atoms: C_4  and  C_5
REMARK    4  A    between atoms: C_5  and  N_6
REMARK    5  A    between atoms: C_7  and  O_8
REMARK    6  A    between atoms: C_9  and  N_10
REMARK    7  A    between atoms: N_11  and  C_12
REMARK    8  A    between atoms: C_12  and  C_14
REMARK    9  A    between atoms: C_14  and  O_15
REMARK   10  A    between atoms: C_14  and  C_16
REMARK                            x       y       z     vdW  Elec       q    Type
REMARK                         _______ _______ _______ _____ _____    ______ ____
ROOT
ATOM      1  N   UNL     1       3.998   4.781  17.619  0.00  0.00    +0.000 N 
ATOM      2  C   UNL     1       3.825   6.153  17.556  0.00  0.00    +0.000 A 
ATOM      3  C   UNL     1       2.911   6.482  18.542  0.00  0.00    +0.000 A 
ATOM      4  C   UNL     1       2.476   5.296  19.185  0.00  0.00    +0.000 A 
ATOM      5  C   UNL     1       1.543   5.010  20.209  0.00  0.00    +0.000 A 
ATOM      6  C   UNL     1       1.343   3.687  20.615  0.00  0.00    +0.000 A 
ATOM      7  C   UNL     1       2.059   2.651  20.030  0.00  0.00    +0.000 A 
ATOM      8  C   UNL     1       2.996   2.908  19.027  0.00  0.00    +0.000 A 
ATOM      9  C   UNL     1       3.181   4.239  18.605  0.00  0.00    +0.000 A 
ENDROOT
BRANCH   2  10
ATOM     10  O   UNL     1       4.432   6.959  16.683  0.00  0.00    +0.000 OA
ATOM     11  H   UNL     1       4.819   6.489  15.929  0.00  0.00    +0.000 HD
ENDBRANCH   2  10
BRANCH   3  12
ATOM     12  N   UNL     1       2.397   7.747  18.869  0.00  0.00    +0.000 NA
ATOM     13  N   UNL     1       2.400   8.562  17.920  0.00  0.00    +0.000 NA
BRANCH  13  14
ATOM     14  C   UNL     1       1.843   9.772  18.280  0.00  0.00    +0.000 C 
ATOM     15  O   UNL     1       2.208  10.888  17.903  0.00  0.00    +0.000 OA
BRANCH  14  16
ATOM     16  C   UNL     1       0.633   9.624  19.235  0.00  0.00    +0.000 C 
BRANCH  16  17
ATOM     17  C   UNL     1      -0.641  10.288  18.745  0.00  0.00    +0.000 A 
ATOM     18  C   UNL     1      -1.237   9.822  17.561  0.00  0.00    +0.000 A 
ATOM     19  C   UNL     1      -2.396  10.414  17.056  0.00  0.00    +0.000 A 
ATOM     20  C   UNL     1      -2.992  11.469  17.741  0.00  0.00    +0.000 A 
ATOM     21  C   UNL     1      -2.445  11.911  18.944  0.00  0.00    +0.000 A 
ATOM     22  C   UNL     1      -1.283  11.320  19.450  0.00  0.00    +0.000 A 
ENDBRANCH  16  17
BRANCH  16  23
ATOM     23  O   UNL     1       0.902  10.136  20.542  0.00  0.00    +0.000 OA
ATOM     24  H   UNL     1       0.540   9.481  21.166  0.00  0.00    +0.000 HD
ENDBRANCH  16  23
ENDBRANCH  14  16
ENDBRANCH  13  14
ENDBRANCH   3  12
BRANCH   1  25
ATOM     25  C   UNL     1       4.861   3.965  16.778  0.00  0.00    +0.000 C 
BRANCH  25  26
ATOM     26  C   UNL     1       6.360   4.244  16.968  0.00  0.00    +0.000 C 
BRANCH  26  27
ATOM     27  C   UNL     1       7.015   4.913  15.764  0.00  0.00    +0.000 C 
BRANCH  27  29
ATOM     28  N   UNL     1       6.016   3.768  13.435  0.00  0.00    +0.000 NA
ATOM     29  C   UNL     1       6.469   4.287  14.491  0.00  0.00    +0.000 C 
ENDBRANCH  27  29
ENDBRANCH  26  27
ENDBRANCH  25  26
ENDBRANCH   1  25
TORSDOF 10
ENDMDL
MODEL 7
REMARK VINA RESULT:      -7.3      1.556      2.162
REMARK  Name = 
REMARK  10 active torsions:
REMARK  status: ('A' for Active; 'I' for Inactive)
REMARK    1  A    between atoms: C_2  and  C_3
REMARK    2  A    between atoms: C_3  and  C_4
REMARK    3  A    between atoms: C_4  and  C_5
REMARK    4  A    between atoms: C_5  and  N_6
REMARK    5  A    between atoms: C_7  and  O_8
REMARK    6  A    between atoms: C_9  and  N_10
REMARK    7  A    between atoms: N_11  and  C_12
REMARK    8  A    between atoms: C_12  and  C_14
REMARK    9  A    between atoms: C_14  and  O_15
REMARK   10  A    between atoms: C_14  and  C_16
REMARK                            x       y       z     vdW  Elec       q    Type
REMARK                         _______ _______ _______ _____ _____    ______ ____
ROOT
ATOM      1  N   UNL     1       4.393   5.124  17.296  0.00  0.00    +0.000 N 
ATOM      2  C   UNL     1       3.860   6.365  17.604  0.00  0.00    +0.000 A 
ATOM      3  C   UNL     1       2.654   6.129  18.242  0.00  0.00    +0.000 A 
ATOM      4  C   UNL     1       2.415   4.733  18.281  0.00  0.00    +0.000 A 
ATOM      5  C   UNL     1       1.357   3.922  18.754  0.00  0.00    +0.000 A 
ATOM      6  C   UNL     1       1.439   2.533  18.628  0.00  0.00    +0.000 A 
ATOM      7  C   UNL     1       2.553   1.938  18.051  0.00  0.00    +0.000 A 
ATOM      8  C   UNL     1       3.618   2.715  17.589  0.00  0.00    +0.000 A 
ATOM      9  C   UNL     1       3.525   4.116  17.698  0.00  0.00    +0.000 A 
ENDROOT
BRANCH   2  10
ATOM     10  O   UNL     1       4.429   7.534  17.307  0.00  0.00    +0.000 OA
ATOM     11  H   UNL     1       4.195   8.245  17.924  0.00  0.00    +0.000 HD
ENDBRANCH   2  10
BRANCH   3  12
ATOM     12  N   UNL     1       1.731   7.065  18.736  0.00  0.00    +0.000 NA
ATOM     13  N   UNL     1       2.254   8.055  19.293  0.00  0.00    +0.000 NA
BRANCH  13  14
ATOM     14  C   UNL     1       1.306   8.965  19.718  0.00  0.00    +0.000 C 
ATOM     15  O   UNL     1       0.670   8.921  20.775  0.00  0.00    +0.000 OA
BRANCH  14  16
ATOM     16  C   UNL     1       1.097  10.133  18.725  0.00  0.00    +0.000 C 
BRANCH  16  17
ATOM     17  C   UNL     1      -0.356  10.506  18.486  0.00  0.00    +0.000 A 
ATOM     18  C   UNL     1      -1.109   9.748  17.573  0.00  0.00    +0.000 A 
ATOM     19  C   UNL     1      -2.441  10.065  17.301  0.00  0.00    +0.000 A 
ATOM     20  C   UNL     1      -3.049  11.132  17.955  0.00  0.00    +0.000 A 
ATOM     21  C   UNL     1      -2.334  11.862  18.902  0.00  0.00    +0.000 A 
ATOM     22  C   UNL     1      -0.999  11.547  19.174  0.00  0.00    +0.000 A 
ENDBRANCH  16  17
BRANCH  16  23
ATOM     23  O   UNL     1       1.683   9.877  17.447  0.00  0.00    +0.000 OA
ATOM     24  H   UNL     1       1.358   9.000  17.173  0.00  0.00    +0.000 HD
ENDBRANCH  16  23
ENDBRANCH  14  16
ENDBRANCH  13  14
ENDBRANCH   3  12
BRANCH   1  25
ATOM     25  C   UNL     1       5.651   4.854  16.616  0.00  0.00    +0.000 C 
BRANCH  25  26
ATOM     26  C   UNL     1       5.590   5.047  15.092  0.00  0.00    +0.000 C 
BRANCH  26  27
ATOM     27  C   UNL     1       6.710   4.336  14.341  0.00  0.00    +0.000 C 
BRANCH  27  29
ATOM     28  N   UNL     1       5.659   3.151  12.054  0.00  0.00    +0.000 NA
ATOM     29  C   UNL     1       6.136   3.689  13.091  0.00  0.00    +0.000 C 
ENDBRANCH  27  29
ENDBRANCH  26  27
ENDBRANCH  25  26
ENDBRANCH   1  25
TORSDOF 10
ENDMDL
MODEL 8
REMARK VINA RESULT:      -7.2      2.210      7.390
REMARK  Name = 
REMARK  10 active torsions:
REMARK  status: ('A' for Active; 'I' for Inactive)
REMARK    1  A    between atoms: C_2  and  C_3
REMARK    2  A    between atoms: C_3  and  C_4
REMARK    3  A    between atoms: C_4  and  C_5
REMARK    4  A    between atoms: C_5  and  N_6
REMARK    5  A    between atoms: C_7  and  O_8
REMARK    6  A    between atoms: C_9  and  N_10
REMARK    7  A    between atoms: N_11  and  C_12
REMARK    8  A    between atoms: C_12  and  C_14
REMARK    9  A    between atoms: C_14  and  O_15
REMARK   10  A    between atoms: C_14  and  C_16
REMARK                            x       y       z     vdW  Elec       q    Type
REMARK                         _______ _______ _______ _____ _____    ______ ____
ROOT
ATOM      1  N   UNL     1       2.542   6.253  19.145  0.00  0.00    +0.000 N 
ATOM      2  C   UNL     1       3.434   6.219  18.087  0.00  0.00    +0.000 A 
ATOM      3  C   UNL     1       3.511   4.898  17.679  0.00  0.00    +0.000 A 
ATOM      4  C   UNL     1       2.701   4.103  18.527  0.00  0.00    +0.000 A 
ATOM      5  C   UNL     1       2.426   2.718  18.621  0.00  0.00    +0.000 A 
ATOM      6  C   UNL     1       1.555   2.250  19.608  0.00  0.00    +0.000 A 
ATOM      7  C   UNL     1       0.949   3.131  20.494  0.00  0.00    +0.000 A 
ATOM      8  C   UNL     1       1.192   4.504  20.414  0.00  0.00    +0.000 A 
ATOM      9  C   UNL     1       2.085   4.972  19.431  0.00  0.00    +0.000 A 
ENDROOT
BRANCH   2  10
ATOM     10  O   UNL     1       4.083   7.278  17.601  0.00  0.00    +0.000 OA
ATOM     11  H   UNL     1       4.435   7.139  16.709  0.00  0.00    +0.000 HD
ENDBRANCH   2  10
BRANCH   3  12
ATOM     12  N   UNL     1       4.292   4.347  16.650  0.00  0.00    +0.000 NA
ATOM     13  N   UNL     1       4.744   5.189  15.843  0.00  0.00    +0.000 NA
BRANCH  13  14
ATOM     14  C   UNL     1       5.541   4.602  14.881  0.00  0.00    +0.000 C 
ATOM     15  O   UNL     1       5.155   4.038  13.853  0.00  0.00    +0.000 OA
BRANCH  14  16
ATOM     16  C   UNL     1       7.053   4.725  15.187  0.00  0.00    +0.000 C 
BRANCH  16  17
ATOM     17  C   UNL     1       7.378   5.414  16.500  0.00  0.00    +0.000 A 
ATOM     18  C   UNL     1       7.664   4.624  17.628  0.00  0.00    +0.000 A 
ATOM     19  C   UNL     1       7.944   5.209  18.864  0.00  0.00    +0.000 A 
ATOM     20  C   UNL     1       7.967   6.595  18.988  0.00  0.00    +0.000 A 
ATOM     21  C   UNL     1       7.737   7.394  17.870  0.00  0.00    +0.000 A 
ATOM     22  C   UNL     1       7.453   6.810  16.631  0.00  0.00    +0.000 A 
ENDBRANCH  16  17
BRANCH  16  23
ATOM     23  O   UNL     1       7.765   5.417  14.159  0.00  0.00    +0.000 OA
ATOM     24  H   UNL     1       8.098   4.730  13.554  0.00  0.00    +0.000 HD
ENDBRANCH  16  23
ENDBRANCH  14  16
ENDBRANCH  13  14
ENDBRANCH   3  12
BRANCH   1  25
ATOM     25  C   UNL     1       2.134   7.422  19.912  0.00  0.00    +0.000 C 
BRANCH  25  26
ATOM     26  C   UNL     1       1.505   8.537  19.061  0.00  0.00    +0.000 C 
BRANCH  26  27
ATOM     27  C   UNL     1       0.854   9.641  19.886  0.00  0.00    +0.000 C 
BRANCH  27  29
ATOM     28  N   UNL     1      -1.055  10.932  18.329  0.00  0.00    +0.000 NA
ATOM     29  C   UNL     1      -0.189  10.347  19.035  0.00  0.00    +0.000 C 
ENDBRANCH  27  29
ENDBRANCH  26  27
ENDBRANCH  25  26
ENDBRANCH   1  25
TORSDOF 10
ENDMDL
MODEL 9
REMARK VINA RESULT:      -7.2      1.009      1.080
REMARK  Name = 
REMARK  10 active torsions:
REMARK  status: ('A' for Active; 'I' for Inactive)
REMARK    1  A    between atoms: C_2  and  C_3
REMARK    2  A    between atoms: C_3  and  C_4
REMARK    3  A    between atoms: C_4  and  C_5
REMARK    4  A    between atoms: C_5  and  N_6
REMARK    5  A    between atoms: C_7  and  O_8
REMARK    6  A    between atoms: C_9  and  N_10
REMARK    7  A    between atoms: N_11  and  C_12
REMARK    8  A    between atoms: C_12  and  C_14
REMARK    9  A    between atoms: C_14  and  O_15
REMARK   10  A    between atoms: C_14  and  C_16
REMARK                            x       y       z     vdW  Elec       q    Type
REMARK                         _______ _______ _______ _____ _____    ______ ____
ROOT
ATOM      1  N   UNL     1       4.108   4.832  17.925  0.00  0.00    +0.000 N 
ATOM      2  C   UNL     1       3.912   6.200  17.829  0.00  0.00    +0.000 A 
ATOM      3  C   UNL     1       2.898   6.516  18.716  0.00  0.00    +0.000 A 
ATOM      4  C   UNL     1       2.427   5.326  19.325  0.00  0.00    +0.000 A 
ATOM      5  C   UNL     1       1.403   5.028  20.255  0.00  0.00    +0.000 A 
ATOM      6  C   UNL     1       1.194   3.705  20.654  0.00  0.00    +0.000 A 
ATOM      7  C   UNL     1       1.987   2.680  20.155  0.00  0.00    +0.000 A 
ATOM      8  C   UNL     1       3.013   2.950  19.247  0.00  0.00    +0.000 A 
ATOM      9  C   UNL     1       3.210   4.280  18.830  0.00  0.00    +0.000 A 
ENDROOT
BRANCH   2  10
ATOM     10  O   UNL     1       4.585   7.011  17.012  0.00  0.00    +0.000 OA
ATOM     11  H   UNL     1       5.252   7.549  17.465  0.00  0.00    +0.000 HD
ENDBRANCH   2  10
BRANCH   3  12
ATOM     12  N   UNL     1       2.326   7.772  18.976  0.00  0.00    +0.000 NA
ATOM     13  N   UNL     1       2.442   8.591  18.038  0.00  0.00    +0.000 NA
BRANCH  13  14
ATOM     14  C   UNL     1       1.824   9.791  18.326  0.00  0.00    +0.000 C 
ATOM     15  O   UNL     1       2.157  10.905  17.911  0.00  0.00    +0.000 OA
BRANCH  14  16
ATOM     16  C   UNL     1       0.588   9.634  19.244  0.00  0.00    +0.000 C 
BRANCH  16  17
ATOM     17  C   UNL     1      -0.683  10.265  18.705  0.00  0.00    +0.000 A 
ATOM     18  C   UNL     1      -1.298  11.291  19.444  0.00  0.00    +0.000 A 
ATOM     19  C   UNL     1      -2.481  11.886  19.003  0.00  0.00    +0.000 A 
ATOM     20  C   UNL     1      -3.058  11.481  17.804  0.00  0.00    +0.000 A 
ATOM     21  C   UNL     1      -2.436  10.502  17.032  0.00  0.00    +0.000 A 
ATOM     22  C   UNL     1      -1.251   9.902  17.473  0.00  0.00    +0.000 A 
ENDBRANCH  16  17
BRANCH  16  23
ATOM     23  O   UNL     1       0.805  10.172  20.551  0.00  0.00    +0.000 OA
ATOM     24  H   UNL     1       0.028   9.913  21.080  0.00  0.00    +0.000 HD
ENDBRANCH  16  23
ENDBRANCH  14  16
ENDBRANCH  13  14
ENDBRANCH   3  12
BRANCH   1  25
ATOM     25  C   UNL     1       5.069   4.029  17.182  0.00  0.00    +0.000 C 
BRANCH  25  26
ATOM     26  C   UNL     1       5.051   4.280  15.666  0.00  0.00    +0.000 C 
BRANCH  26  27
ATOM     27  C   UNL     1       6.416   4.121  15.004  0.00  0.00    +0.000 C 
BRANCH  27  29
ATOM     28  N   UNL     1       6.054   3.490  12.320  0.00  0.00    +0.000 NA
ATOM     29  C   UNL     1       6.219   3.776  13.537  0.00  0.00    +0.000 C 
ENDBRANCH  27  29
ENDBRANCH  26  27
ENDBRANCH  25  26
ENDBRANCH   1  25
TORSDOF 10
ENDMDL
