MODEL 1
REMARK VINA RESULT:      -8.6      0.000      0.000
REMARK  Name = 
REMARK  7 active torsions:
REMARK  status: ('A' for Active; 'I' for Inactive)
REMARK    1  A    between atoms: C_1  and  C_2
REMARK    2  A    between atoms: N_4  and  C_5
REMARK    3  A    between atoms: C_5  and  C_6
REMARK    4  A    between atoms: C_9  and  N_10
REMARK    5  A    between atoms: N_10  and  C_11
REMARK    6  A    between atoms: C_12  and  C_14
REMARK    7  A    between atoms: C_17  and  C_18
REMARK                            x       y       z     vdW  Elec       q    Type
REMARK                         _______ _______ _______ _____ _____    ______ ____
ROOT
ATOM      1  N   UNL     1       0.296   9.834  20.519  0.00  0.00    +0.000 N 
ATOM      2  C   UNL     1      -0.584  10.403  19.495  0.00  0.00    +0.000 C 
ATOM      3  C   UNL     1       0.365  10.375  21.827  0.00  0.00    +0.000 C 
ATOM      4  O   UNL     1       1.119  10.010  22.724  0.00  0.00    +0.000 OA
ENDROOT
BRANCH   1   8
ATOM      5  C   UNL     1       2.596   6.384  19.309  0.00  0.00    +0.000 A 
ATOM      6  C   UNL     1       2.538   7.509  18.493  0.00  0.00    +0.000 A 
ATOM      7  C   UNL     1       1.809   8.640  18.888  0.00  0.00    +0.000 A 
ATOM      8  C   UNL     1       1.123   8.694  20.105  0.00  0.00    +0.000 A 
ATOM      9  C   UNL     1       1.237   7.562  20.936  0.00  0.00    +0.000 A 
ATOM     10  C   UNL     1       1.940   6.422  20.539  0.00  0.00    +0.000 A 
BRANCH   5  11
ATOM     11  C   UNL     1       3.354   5.144  18.907  0.00  0.00    +0.000 C 
BRANCH  11  15
ATOM     12  C   UNL     1       1.175   2.941  20.101  0.00  0.00    +0.000 C 
ATOM     13  C   UNL     1       1.211   2.770  18.575  0.00  0.00    +0.000 C 
ATOM     14  C   UNL     1       1.487   4.075  17.766  0.00  0.00    +0.000 C 
ATOM     15  N   UNL     1       2.892   4.525  17.662  0.00  0.00    +0.000 NA
ATOM     16  C   UNL     1       3.708   3.372  17.232  0.00  0.00    +0.000 C 
ATOM     17  C   UNL     1       3.512   2.095  18.076  0.00  0.00    +0.000 C 
ATOM     18  N   UNL     1       2.111   1.667  18.193  0.00  0.00    +0.000 NA
ATOM     19  H   UNL     1       2.038   0.900  18.860  0.00  0.00    +0.000 HD
ENDBRANCH  11  15
ENDBRANCH   5  11
ENDBRANCH   1   8
BRANCH   3  20
ATOM     20  C   UNL     1      -0.502  11.527  22.230  0.00  0.00    +0.000 A 
ATOM     21  C   UNL     1      -0.274  12.848  21.864  0.00  0.00    +0.000 A 
ATOM     22  C   UNL     1      -1.090  13.855  22.380  0.00  0.00    +0.000 A 
ATOM     23  C   UNL     1      -2.210  13.519  23.134  0.00  0.00    +0.000 A 
ATOM     24  N   UNL     1      -2.486  12.228  23.447  0.00  0.00    +0.000 NA
ATOM     25  C   UNL     1      -1.634  11.267  22.984  0.00  0.00    +0.000 A 
BRANCH  23  26
ATOM     26  C   UNL     1      -3.174  14.529  23.599  0.00  0.00    +0.000 A 
ATOM     27  C   UNL     1      -2.858  15.407  24.653  0.00  0.00    +0.000 A 
ATOM     28  C   UNL     1      -3.775  16.364  25.097  0.00  0.00    +0.000 A 
ATOM     29  C   UNL     1      -5.031  16.466  24.496  0.00  0.00    +0.000 A 
ATOM     30  C   UNL     1      -5.369  15.609  23.458  0.00  0.00    +0.000 A 
ATOM     31  C   UNL     1      -4.452  14.651  23.028  0.00  0.00    +0.000 A 
ATOM     32  F   UNL     1      -4.848  13.831  22.043  0.00  0.00    +0.000 F 
ENDBRANCH  23  26
ENDBRANCH   3  20
TORSDOF 5
ENDMDL
MODEL 2
REMARK VINA RESULT:      -8.6      0.858      1.206
REMARK  Name = 
REMARK  7 active torsions:
REMARK  status: ('A' for Active; 'I' for Inactive)
REMARK    1  A    between atoms: C_1  and  C_2
REMARK    2  A    between atoms: N_4  and  C_5
REMARK    3  A    between atoms: C_5  and  C_6
REMARK    4  A    between atoms: C_9  and  N_10
REMARK    5  A    between atoms: N_10  and  C_11
REMARK    6  A    between atoms: C_12  and  C_14
REMARK    7  A    between atoms: C_17  and  C_18
REMARK                            x       y       z     vdW  Elec       q    Type
REMARK                         _______ _______ _______ _____ _____    ______ ____
ROOT
ATOM      1  N   UNL     1       0.333   9.820  20.487  0.00  0.00    +0.000 N 
ATOM      2  C   UNL     1      -0.536  10.386  19.453  0.00  0.00    +0.000 C 
ATOM      3  C   UNL     1       0.399  10.375  21.791  0.00  0.00    +0.000 C 
ATOM      4  O   UNL     1       1.145  10.013  22.696  0.00  0.00    +0.000 OA
ENDROOT
BRANCH   1   8
ATOM      5  C   UNL     1       2.612   6.339  19.331  0.00  0.00    +0.000 A 
ATOM      6  C   UNL     1       2.551   7.448  18.492  0.00  0.00    +0.000 A 
ATOM      7  C   UNL     1       1.830   8.588  18.870  0.00  0.00    +0.000 A 
ATOM      8  C   UNL     1       1.154   8.670  20.091  0.00  0.00    +0.000 A 
ATOM      9  C   UNL     1       1.270   7.555  20.944  0.00  0.00    +0.000 A 
ATOM     10  C   UNL     1       1.967   6.405  20.565  0.00  0.00    +0.000 A 
BRANCH   5  11
ATOM     11  C   UNL     1       3.363   5.089  18.948  0.00  0.00    +0.000 C 
BRANCH  11  15
ATOM     12  C   UNL     1       1.111   2.972  20.160  0.00  0.00    +0.000 C 
ATOM     13  C   UNL     1       1.161   2.766  18.639  0.00  0.00    +0.000 C 
ATOM     14  C   UNL     1       1.483   4.046  17.806  0.00  0.00    +0.000 C 
ATOM     15  N   UNL     1       2.901   4.455  17.711  0.00  0.00    +0.000 NA
ATOM     16  C   UNL     1       3.691   3.272  17.316  0.00  0.00    +0.000 C 
ATOM     17  C   UNL     1       3.449   2.019  18.185  0.00  0.00    +0.000 C 
ATOM     18  N   UNL     1       2.036   1.632  18.293  0.00  0.00    +0.000 NA
ATOM     19  H   UNL     1       1.934   0.882  18.975  0.00  0.00    +0.000 HD
ENDBRANCH  11  15
ENDBRANCH   5  11
ENDBRANCH   1   8
BRANCH   3  20
ATOM     20  C   UNL     1      -0.461  11.537  22.177  0.00  0.00    +0.000 A 
ATOM     21  C   UNL     1      -0.221  12.852  21.797  0.00  0.00    +0.000 A 
ATOM     22  C   UNL     1      -1.032  13.872  22.297  0.00  0.00    +0.000 A 
ATOM     23  C   UNL     1      -2.158  13.553  23.050  0.00  0.00    +0.000 A 
ATOM     24  N   UNL     1      -2.445  12.268  23.376  0.00  0.00    +0.000 NA
ATOM     25  C   UNL     1      -1.598  11.295  22.928  0.00  0.00    +0.000 A 
BRANCH  23  26
ATOM     26  C   UNL     1      -3.116  14.576  23.499  0.00  0.00    +0.000 A 
ATOM     27  C   UNL     1      -4.229  14.925  22.711  0.00  0.00    +0.000 A 
ATOM     28  C   UNL     1      -5.138  15.900  23.136  0.00  0.00    +0.000 A 
ATOM     29  C   UNL     1      -4.954  16.547  24.358  0.00  0.00    +0.000 A 
ATOM     30  C   UNL     1      -3.862  16.224  25.151  0.00  0.00    +0.000 A 
ATOM     31  C   UNL     1      -2.955  15.258  24.716  0.00  0.00    +0.000 A 
ATOM     32  F   UNL     1      -1.902  15.012  25.511  0.00  0.00    +0.000 F 
ENDBRANCH  23  26
ENDBRANCH   3  20
TORSDOF 5
ENDMDL
MODEL 3
REMARK VINA RESULT:      -8.5      1.073      1.456
REMARK  Name = 
REMARK  7 active torsions:
REMARK  status: ('A' for Active; 'I' for Inactive)
REMARK    1  A    between atoms: C_1  and  C_2
REMARK    2  A    between atoms: N_4  and  C_5
REMARK    3  A    between atoms: C_5  and  C_6
REMARK    4  A    between atoms: C_9  and  N_10
REMARK    5  A    between atoms: N_10  and  C_11
REMARK    6  A    between atoms: C_12  and  C_14
REMARK    7  A    between atoms: C_17  and  C_18
REMARK                            x       y       z     vdW  Elec       q    Type
REMARK                         _______ _______ _______ _____ _____    ______ ____
ROOT
ATOM      1  N   UNL     1       0.083   9.963  20.653  0.00  0.00    +0.000 N 
ATOM      2  C   UNL     1      -0.800  10.528  19.631  0.00  0.00    +0.000 C 
ATOM      3  C   UNL     1       0.124  10.483  21.972  0.00  0.00    +0.000 C 
ATOM      4  O   UNL     1       0.878  10.121  22.871  0.00  0.00    +0.000 OA
ENDROOT
BRANCH   1   8
ATOM      5  C   UNL     1       2.484   6.596  19.408  0.00  0.00    +0.000 A 
ATOM      6  C   UNL     1       2.411   7.737  18.615  0.00  0.00    +0.000 A 
ATOM      7  C   UNL     1       1.650   8.841  19.022  0.00  0.00    +0.000 A 
ATOM      8  C   UNL     1       0.944   8.853  20.229  0.00  0.00    +0.000 A 
ATOM      9  C   UNL     1       1.072   7.706  21.038  0.00  0.00    +0.000 A 
ATOM     10  C   UNL     1       1.809   6.593  20.628  0.00  0.00    +0.000 A 
BRANCH   5  11
ATOM     11  C   UNL     1       3.278   5.384  18.991  0.00  0.00    +0.000 C 
BRANCH  11  15
ATOM     12  C   UNL     1       1.156   3.062  20.055  0.00  0.00    +0.000 C 
ATOM     13  C   UNL     1       1.231   2.948  18.525  0.00  0.00    +0.000 C 
ATOM     14  C   UNL     1       1.476   4.292  17.770  0.00  0.00    +0.000 C 
ATOM     15  N   UNL     1       2.866   4.795  17.715  0.00  0.00    +0.000 NA
ATOM     16  C   UNL     1       3.733   3.689  17.262  0.00  0.00    +0.000 C 
ATOM     17  C   UNL     1       3.565   2.376  18.055  0.00  0.00    +0.000 C 
ATOM     18  N   UNL     1       2.178   1.894  18.124  0.00  0.00    +0.000 NA
ATOM     19  H   UNL     1       2.120   1.100  18.760  0.00  0.00    +0.000 HD
ENDBRANCH  11  15
ENDBRANCH   5  11
ENDBRANCH   1   8
BRANCH   3  20
ATOM     20  C   UNL     1      -0.777  11.604  22.386  0.00  0.00    +0.000 A 
ATOM     21  C   UNL     1      -1.976  11.438  23.067  0.00  0.00    +0.000 A 
ATOM     22  C   UNL     1      -2.786  12.547  23.315  0.00  0.00    +0.000 A 
ATOM     23  C   UNL     1      -2.322  13.823  23.012  0.00  0.00    +0.000 A 
ATOM     24  N   UNL     1      -1.122  14.010  22.407  0.00  0.00    +0.000 NA
ATOM     25  C   UNL     1      -0.379  12.902  22.116  0.00  0.00    +0.000 A 
BRANCH  23  26
ATOM     26  C   UNL     1      -3.077  15.036  23.364  0.00  0.00    +0.000 A 
ATOM     27  C   UNL     1      -3.544  15.917  22.370  0.00  0.00    +0.000 A 
ATOM     28  C   UNL     1      -4.259  17.072  22.705  0.00  0.00    +0.000 A 
ATOM     29  C   UNL     1      -4.524  17.371  24.042  0.00  0.00    +0.000 A 
ATOM     30  C   UNL     1      -4.071  16.521  25.041  0.00  0.00    +0.000 A 
ATOM     31  C   UNL     1      -3.350  15.377  24.699  0.00  0.00    +0.000 A 
ATOM     32  F   UNL     1      -2.911  14.612  25.710  0.00  0.00    +0.000 F 
ENDBRANCH  23  26
ENDBRANCH   3  20
TORSDOF 5
ENDMDL
MODEL 4
REMARK VINA RESULT:      -8.5      2.240      3.157
REMARK  Name = 
REMARK  7 active torsions:
REMARK  status: ('A' for Active; 'I' for Inactive)
REMARK    1  A    between atoms: C_1  and  C_2
REMARK    2  A    between atoms: N_4  and  C_5
REMARK    3  A    between atoms: C_5  and  C_6
REMARK    4  A    between atoms: C_9  and  N_10
REMARK    5  A    between atoms: N_10  and  C_11
REMARK    6  A    between atoms: C_12  and  C_14
REMARK    7  A    between atoms: C_17  and  C_18
REMARK                            x       y       z     vdW  Elec       q    Type
REMARK                         _______ _______ _______ _____ _____    ______ ____
ROOT
ATOM      1  N   UNL     1       0.381   9.821  20.140  0.00  0.00    +0.000 N 
ATOM      2  C   UNL     1      -0.752  10.270  19.327  0.00  0.00    +0.000 C 
ATOM      3  C   UNL     1       0.603  10.321  21.448  0.00  0.00    +0.000 C 
ATOM      4  O   UNL     1       1.558  10.057  22.172  0.00  0.00    +0.000 OA
ENDROOT
BRANCH   1   8
ATOM      5  C   UNL     1       3.164   7.090  18.284  0.00  0.00    +0.000 A 
ATOM      6  C   UNL     1       2.647   6.815  19.547  0.00  0.00    +0.000 A 
ATOM      7  C   UNL     1       1.729   7.687  20.147  0.00  0.00    +0.000 A 
ATOM      8  C   UNL     1       1.287   8.853  19.514  0.00  0.00    +0.000 A 
ATOM      9  C   UNL     1       1.787   9.085  18.216  0.00  0.00    +0.000 A 
ATOM     10  C   UNL     1       2.721   8.234  17.622  0.00  0.00    +0.000 A 
BRANCH   5  11
ATOM     11  C   UNL     1       4.168   6.184  17.618  0.00  0.00    +0.000 C 
BRANCH  11  15
ATOM     12  C   UNL     1       5.485   3.596  16.007  0.00  0.00    +0.000 C 
ATOM     13  C   UNL     1       6.199   4.860  15.505  0.00  0.00    +0.000 C 
ATOM     14  C   UNL     1       5.322   6.150  15.474  0.00  0.00    +0.000 C 
ATOM     15  N   UNL     1       5.128   6.871  16.751  0.00  0.00    +0.000 NA
ATOM     16  C   UNL     1       6.455   7.066  17.369  0.00  0.00    +0.000 C 
ATOM     17  C   UNL     1       7.304   5.782  17.487  0.00  0.00    +0.000 C 
ATOM     18  N   UNL     1       7.473   5.060  16.218  0.00  0.00    +0.000 NA
ATOM     19  H   UNL     1       7.931   4.166  16.388  0.00  0.00    +0.000 HD
ENDBRANCH  11  15
ENDBRANCH   5  11
ENDBRANCH   1   8
BRANCH   3  20
ATOM     20  C   UNL     1      -0.346  11.296  22.072  0.00  0.00    +0.000 A 
ATOM     21  C   UNL     1      -1.340  10.953  22.980  0.00  0.00    +0.000 A 
ATOM     22  C   UNL     1      -2.234  11.929  23.423  0.00  0.00    +0.000 A 
ATOM     23  C   UNL     1      -2.036  13.259  23.068  0.00  0.00    +0.000 A 
ATOM     24  N   UNL     1      -1.030  13.623  22.233  0.00  0.00    +0.000 NA
ATOM     25  C   UNL     1      -0.209  12.638  21.763  0.00  0.00    +0.000 A 
BRANCH  23  26
ATOM     26  C   UNL     1      -2.871  14.346  23.603  0.00  0.00    +0.000 A 
ATOM     27  C   UNL     1      -4.123  14.650  23.035  0.00  0.00    +0.000 A 
ATOM     28  C   UNL     1      -4.915  15.685  23.542  0.00  0.00    +0.000 A 
ATOM     29  C   UNL     1      -4.473  16.440  24.629  0.00  0.00    +0.000 A 
ATOM     30  C   UNL     1      -3.241  16.164  25.204  0.00  0.00    +0.000 A 
ATOM     31  C   UNL     1      -2.453  15.137  24.687  0.00  0.00    +0.000 A 
ATOM     32  F   UNL     1      -1.258  14.938  25.264  0.00  0.00    +0.000 F 
ENDBRANCH  23  26
ENDBRANCH   3  20
TORSDOF 5
ENDMDL
MODEL 5
REMARK VINA RESULT:      -8.4      1.668      2.634
REMARK  Name = 
REMARK  7 active torsions:
REMARK  status: ('A' for Active; 'I' for Inactive)
REMARK    1  A    between atoms: C_1  and  C_2
REMARK    2  A    between atoms: N_4  and  C_5
REMARK    3  A    between atoms: C_5  and  C_6
REMARK    4  A    between atoms: C_9  and  N_10
REMARK    5  A    between atoms: N_10  and  C_11
REMARK    6  A    between atoms: C_12  and  C_14
REMARK    7  A    between atoms: C_17  and  C_18
REMARK                            x       y       z     vdW  Elec       q    Type
REMARK                         _______ _______ _______ _____ _____    ______ ____
ROOT
ATOM      1  N   UNL     1       0.071  10.098  20.121  0.00  0.00    +0.000 N 
ATOM      2  C   UNL     1      -1.129  10.429  19.349  0.00  0.00    +0.000 C 
ATOM      3  C   UNL     1       0.320  10.672  21.394  0.00  0.00    +0.000 C 
ATOM      4  O   UNL     1       1.325  10.508  22.079  0.00  0.00    +0.000 OA
ENDROOT
BRANCH   1   8
ATOM      5  C   UNL     1       2.955   7.480  18.256  0.00  0.00    +0.000 A 
ATOM      6  C   UNL     1       2.444   7.177  19.515  0.00  0.00    +0.000 A 
ATOM      7  C   UNL     1       1.494   8.012  20.118  0.00  0.00    +0.000 A 
ATOM      8  C   UNL     1       1.013   9.166  19.492  0.00  0.00    +0.000 A 
ATOM      9  C   UNL     1       1.508   9.425  18.198  0.00  0.00    +0.000 A 
ATOM     10  C   UNL     1       2.474   8.612  17.600  0.00  0.00    +0.000 A 
BRANCH   5  11
ATOM     11  C   UNL     1       3.992   6.614  17.587  0.00  0.00    +0.000 C 
BRANCH  11  15
ATOM     12  C   UNL     1       7.307   6.517  17.738  0.00  0.00    +0.000 C 
ATOM     13  C   UNL     1       6.784   5.191  18.310  0.00  0.00    +0.000 C 
ATOM     14  C   UNL     1       5.412   5.283  19.050  0.00  0.00    +0.000 C 
ATOM     15  N   UNL     1       4.191   5.306  18.215  0.00  0.00    +0.000 NA
ATOM     16  C   UNL     1       4.278   4.190  17.252  0.00  0.00    +0.000 C 
ATOM     17  C   UNL     1       5.594   4.134  16.448  0.00  0.00    +0.000 C 
ATOM     18  N   UNL     1       6.803   4.134  17.284  0.00  0.00    +0.000 NA
ATOM     19  H   UNL     1       7.630   4.223  16.696  0.00  0.00    +0.000 HD
ENDBRANCH  11  15
ENDBRANCH   5  11
ENDBRANCH   1   8
BRANCH   3  20
ATOM     20  C   UNL     1      -0.666  11.606  22.023  0.00  0.00    +0.000 A 
ATOM     21  C   UNL     1      -1.597  11.234  22.985  0.00  0.00    +0.000 A 
ATOM     22  C   UNL     1      -2.535  12.167  23.431  0.00  0.00    +0.000 A 
ATOM     23  C   UNL     1      -2.439  13.493  23.022  0.00  0.00    +0.000 A 
ATOM     24  N   UNL     1      -1.494  13.888  22.133  0.00  0.00    +0.000 NA
ATOM     25  C   UNL     1      -0.629  12.942  21.663  0.00  0.00    +0.000 A 
BRANCH  23  26
ATOM     26  C   UNL     1      -3.322  14.543  23.554  0.00  0.00    +0.000 A 
ATOM     27  C   UNL     1      -2.911  15.371  24.615  0.00  0.00    +0.000 A 
ATOM     28  C   UNL     1      -3.751  16.366  25.124  0.00  0.00    +0.000 A 
ATOM     29  C   UNL     1      -5.023  16.556  24.583  0.00  0.00    +0.000 A 
ATOM     30  C   UNL     1      -5.455  15.749  23.539  0.00  0.00    +0.000 A 
ATOM     31  C   UNL     1      -4.614  14.753  23.044  0.00  0.00    +0.000 A 
ATOM     32  F   UNL     1      -5.099  13.985  22.057  0.00  0.00    +0.000 F 
ENDBRANCH  23  26
ENDBRANCH   3  20
TORSDOF 5
ENDMDL
MODEL 6
REMARK VINA RESULT:      -8.3      2.053      2.898
REMARK  Name = 
REMARK  7 active torsions:
REMARK  status: ('A' for Active; 'I' for Inactive)
REMARK    1  A    between atoms: C_1  and  C_2
REMARK    2  A    between atoms: N_4  and  C_5
REMARK    3  A    between atoms: C_5  and  C_6
REMARK    4  A    between atoms: C_9  and  N_10
REMARK    5  A    between atoms: N_10  and  C_11
REMARK    6  A    between atoms: C_12  and  C_14
REMARK    7  A    between atoms: C_17  and  C_18
REMARK                            x       y       z     vdW  Elec       q    Type
REMARK                         _______ _______ _______ _____ _____    ______ ____
ROOT
ATOM      1  N   UNL     1       0.389   9.824  20.135  0.00  0.00    +0.000 N 
ATOM      2  C   UNL     1      -0.742  10.273  19.319  0.00  0.00    +0.000 C 
ATOM      3  C   UNL     1       0.612  10.328  21.442  0.00  0.00    +0.000 C 
ATOM      4  O   UNL     1       1.565  10.063  22.168  0.00  0.00    +0.000 OA
ENDROOT
BRANCH   1   8
ATOM      5  C   UNL     1       3.166   7.076  18.296  0.00  0.00    +0.000 A 
ATOM      6  C   UNL     1       2.621   6.791  19.544  0.00  0.00    +0.000 A 
ATOM      7  C   UNL     1       1.704   7.669  20.138  0.00  0.00    +0.000 A 
ATOM      8  C   UNL     1       1.293   8.850  19.513  0.00  0.00    +0.000 A 
ATOM      9  C   UNL     1       1.821   9.092  18.229  0.00  0.00    +0.000 A 
ATOM     10  C   UNL     1       2.754   8.235  17.641  0.00  0.00    +0.000 A 
BRANCH   5  11
ATOM     11  C   UNL     1       4.169   6.164  17.637  0.00  0.00    +0.000 C 
BRANCH  11  15
ATOM     12  C   UNL     1       5.468   3.565  16.029  0.00  0.00    +0.000 C 
ATOM     13  C   UNL     1       6.187   4.824  15.521  0.00  0.00    +0.000 C 
ATOM     14  C   UNL     1       5.317   6.119  15.489  0.00  0.00    +0.000 C 
ATOM     15  N   UNL     1       5.131   6.843  16.765  0.00  0.00    +0.000 NA
ATOM     16  C   UNL     1       6.461   7.033  17.378  0.00  0.00    +0.000 C 
ATOM     17  C   UNL     1       7.303   5.744  17.498  0.00  0.00    +0.000 C 
ATOM     18  N   UNL     1       7.464   5.018  16.230  0.00  0.00    +0.000 NA
ATOM     19  H   UNL     1       7.918   4.122  16.401  0.00  0.00    +0.000 HD
ENDBRANCH  11  15
ENDBRANCH   5  11
ENDBRANCH   1   8
BRANCH   3  20
ATOM     20  C   UNL     1      -0.335  11.308  22.061  0.00  0.00    +0.000 A 
ATOM     21  C   UNL     1      -1.352  10.967  22.945  0.00  0.00    +0.000 A 
ATOM     22  C   UNL     1      -2.240  11.950  23.384  0.00  0.00    +0.000 A 
ATOM     23  C   UNL     1      -2.014  13.282  23.053  0.00  0.00    +0.000 A 
ATOM     24  N   UNL     1      -0.986  13.642  22.244  0.00  0.00    +0.000 NA
ATOM     25  C   UNL     1      -0.171  12.652  21.776  0.00  0.00    +0.000 A 
BRANCH  23  26
ATOM     26  C   UNL     1      -2.844  14.374  23.588  0.00  0.00    +0.000 A 
ATOM     27  C   UNL     1      -2.545  14.976  24.824  0.00  0.00    +0.000 A 
ATOM     28  C   UNL     1      -3.336  16.011  25.335  0.00  0.00    +0.000 A 
ATOM     29  C   UNL     1      -4.444  16.467  24.619  0.00  0.00    +0.000 A 
ATOM     30  C   UNL     1      -4.763  15.886  23.400  0.00  0.00    +0.000 A 
ATOM     31  C   UNL     1      -3.975  14.849  22.903  0.00  0.00    +0.000 A 
ATOM     32  F   UNL     1      -4.352  14.306  21.735  0.00  0.00    +0.000 F 
ENDBRANCH  23  26
ENDBRANCH   3  20
TORSDOF 5
ENDMDL
MODEL 7
REMARK VINA RESULT:      -8.2      1.810      2.760
REMARK  Name = 
REMARK  7 active torsions:
REMARK  status: ('A' for Active; 'I' for Inactive)
REMARK    1  A    between atoms: C_1  and  C_2
REMARK    2  A    between atoms: N_4  and  C_5
REMARK    3  A    between atoms: C_5  and  C_6
REMARK    4  A    between atoms: C_9  and  N_10
REMARK    5  A    between atoms: N_10  and  C_11
REMARK    6  A    between atoms: C_12  and  C_14
REMARK    7  A    between atoms: C_17  and  C_18
REMARK                            x       y       z     vdW  Elec       q    Type
REMARK                         _______ _______ _______ _____ _____    ______ ____
ROOT
ATOM      1  N   UNL     1       0.124  10.168  20.053  0.00  0.00    +0.000 N 
ATOM      2  C   UNL     1      -1.116  10.407  19.311  0.00  0.00    +0.000 C 
ATOM      3  C   UNL     1       0.375  10.786  21.305  0.00  0.00    +0.000 C 
ATOM      4  O   UNL     1       1.408  10.699  21.961  0.00  0.00    +0.000 OA
ENDROOT
BRANCH   1   8
ATOM      5  C   UNL     1       2.892   7.433  18.178  0.00  0.00    +0.000 A 
ATOM      6  C   UNL     1       2.547   8.624  17.547  0.00  0.00    +0.000 A 
ATOM      7  C   UNL     1       1.665   9.526  18.158  0.00  0.00    +0.000 A 
ATOM      8  C   UNL     1       1.103   9.280  19.415  0.00  0.00    +0.000 A 
ATOM      9  C   UNL     1       1.505   8.091  20.056  0.00  0.00    +0.000 A 
ATOM     10  C   UNL     1       2.364   7.176  19.443  0.00  0.00    +0.000 A 
BRANCH   5  11
ATOM     11  C   UNL     1       3.823   6.433  17.541  0.00  0.00    +0.000 C 
BRANCH  11  15
ATOM     12  C   UNL     1       7.138   6.560  17.419  0.00  0.00    +0.000 C 
ATOM     13  C   UNL     1       6.758   5.347  18.281  0.00  0.00    +0.000 C 
ATOM     14  C   UNL     1       5.442   5.505  19.106  0.00  0.00    +0.000 C 
ATOM     15  N   UNL     1       4.164   5.290  18.392  0.00  0.00    +0.000 NA
ATOM     16  C   UNL     1       4.261   4.011  17.661  0.00  0.00    +0.000 C 
ATOM     17  C   UNL     1       5.515   3.872  16.772  0.00  0.00    +0.000 C 
ATOM     18  N   UNL     1       6.779   4.109  17.483  0.00  0.00    +0.000 NA
ATOM     19  H   UNL     1       7.552   4.126  16.819  0.00  0.00    +0.000 HD
ENDBRANCH  11  15
ENDBRANCH   5  11
ENDBRANCH   1   8
BRANCH   3  20
ATOM     20  C   UNL     1      -0.646  11.673  21.943  0.00  0.00    +0.000 A 
ATOM     21  C   UNL     1      -1.557  11.257  22.907  0.00  0.00    +0.000 A 
ATOM     22  C   UNL     1      -2.532  12.146  23.362  0.00  0.00    +0.000 A 
ATOM     23  C   UNL     1      -2.494  13.477  22.960  0.00  0.00    +0.000 A 
ATOM     24  N   UNL     1      -1.570  13.918  22.070  0.00  0.00    +0.000 NA
ATOM     25  C   UNL     1      -0.668  13.012  21.591  0.00  0.00    +0.000 A 
BRANCH  23  26
ATOM     26  C   UNL     1      -3.419  14.486  23.502  0.00  0.00    +0.000 A 
ATOM     27  C   UNL     1      -4.755  14.557  23.067  0.00  0.00    +0.000 A 
ATOM     28  C   UNL     1      -5.633  15.518  23.579  0.00  0.00    +0.000 A 
ATOM     29  C   UNL     1      -5.193  16.429  24.540  0.00  0.00    +0.000 A 
ATOM     30  C   UNL     1      -3.879  16.383  24.983  0.00  0.00    +0.000 A 
ATOM     31  C   UNL     1      -3.008  15.429  24.460  0.00  0.00    +0.000 A 
ATOM     32  F   UNL     1      -1.742  15.454  24.903  0.00  0.00    +0.000 F 
ENDBRANCH  23  26
ENDBRANCH   3  20
TORSDOF 5
ENDMDL
MODEL 8
REMARK VINA RESULT:      -8.1      0.920      1.175
REMARK  Name = 
REMARK  7 active torsions:
REMARK  status: ('A' for Active; 'I' for Inactive)
REMARK    1  A    between atoms: C_1  and  C_2
REMARK    2  A    between atoms: N_4  and  C_5
REMARK    3  A    between atoms: C_5  and  C_6
REMARK    4  A    between atoms: C_9  and  N_10
REMARK    5  A    between atoms: N_10  and  C_11
REMARK    6  A    between atoms: C_12  and  C_14
REMARK    7  A    between atoms: C_17  and  C_18
REMARK                            x       y       z     vdW  Elec       q    Type
REMARK                         _______ _______ _______ _____ _____    ______ ____
ROOT
ATOM      1  N   UNL     1      -0.152  10.302  20.814  0.00  0.00    +0.000 N 
ATOM      2  C   UNL     1      -0.963  10.939  19.774  0.00  0.00    +0.000 C 
ATOM      3  C   UNL     1      -0.206  10.727  22.166  0.00  0.00    +0.000 C 
ATOM      4  O   UNL     1       0.484  10.302  23.087  0.00  0.00    +0.000 OA
ENDROOT
BRANCH   1   8
ATOM      5  C   UNL     1       2.346   7.020  19.532  0.00  0.00    +0.000 A 
ATOM      6  C   UNL     1       2.180   8.135  18.716  0.00  0.00    +0.000 A 
ATOM      7  C   UNL     1       1.387   9.213  19.134  0.00  0.00    +0.000 A 
ATOM      8  C   UNL     1       0.740   9.223  20.374  0.00  0.00    +0.000 A 
ATOM      9  C   UNL     1       0.962   8.105  21.202  0.00  0.00    +0.000 A 
ATOM     10  C   UNL     1       1.731   7.017  20.783  0.00  0.00    +0.000 A 
BRANCH   5  11
ATOM     11  C   UNL     1       3.177   5.837  19.106  0.00  0.00    +0.000 C 
BRANCH  11  15
ATOM     12  C   UNL     1       1.327   3.232  20.011  0.00  0.00    +0.000 C 
ATOM     13  C   UNL     1       1.409   3.225  18.477  0.00  0.00    +0.000 C 
ATOM     14  C   UNL     1       1.502   4.633  17.810  0.00  0.00    +0.000 C 
ATOM     15  N   UNL     1       2.828   5.289  17.792  0.00  0.00    +0.000 NA
ATOM     16  C   UNL     1       3.809   4.316  17.273  0.00  0.00    +0.000 C 
ATOM     17  C   UNL     1       3.791   2.944  17.980  0.00  0.00    +0.000 C 
ATOM     18  N   UNL     1       2.465   2.309  18.013  0.00  0.00    +0.000 NA
ATOM     19  H   UNL     1       2.496   1.475  18.598  0.00  0.00    +0.000 HD
ENDBRANCH  11  15
ENDBRANCH   5  11
ENDBRANCH   1   8
BRANCH   3  20
ATOM     20  C   UNL     1      -1.136  11.818  22.593  0.00  0.00    +0.000 A 
ATOM     21  C   UNL     1      -2.342  11.609  23.252  0.00  0.00    +0.000 A 
ATOM     22  C   UNL     1      -3.179  12.694  23.515  0.00  0.00    +0.000 A 
ATOM     23  C   UNL     1      -2.739  13.987  23.249  0.00  0.00    +0.000 A 
ATOM     24  N   UNL     1      -1.536  14.215  22.665  0.00  0.00    +0.000 NA
ATOM     25  C   UNL     1      -0.764  13.131  22.360  0.00  0.00    +0.000 A 
BRANCH  23  26
ATOM     26  C   UNL     1      -3.526  15.174  23.618  0.00  0.00    +0.000 A 
ATOM     27  C   UNL     1      -3.365  15.794  24.872  0.00  0.00    +0.000 A 
ATOM     28  C   UNL     1      -4.116  16.920  25.225  0.00  0.00    +0.000 A 
ATOM     29  C   UNL     1      -5.046  17.452  24.331  0.00  0.00    +0.000 A 
ATOM     30  C   UNL     1      -5.228  16.857  23.090  0.00  0.00    +0.000 A 
ATOM     31  C   UNL     1      -4.482  15.729  22.750  0.00  0.00    +0.000 A 
ATOM     32  F   UNL     1      -4.725  15.179  21.551  0.00  0.00    +0.000 F 
ENDBRANCH  23  26
ENDBRANCH   3  20
TORSDOF 5
ENDMDL
MODEL 9
REMARK VINA RESULT:      -7.9      2.152      3.095
REMARK  Name = 
REMARK  7 active torsions:
REMARK  status: ('A' for Active; 'I' for Inactive)
REMARK    1  A    between atoms: C_1  and  C_2
REMARK    2  A    between atoms: N_4  and  C_5
REMARK    3  A    between atoms: C_5  and  C_6
REMARK    4  A    between atoms: C_9  and  N_10
REMARK    5  A    between atoms: N_10  and  C_11
REMARK    6  A    between atoms: C_12  and  C_14
REMARK    7  A    between atoms: C_17  and  C_18
REMARK                            x       y       z     vdW  Elec       q    Type
REMARK                         _______ _______ _______ _____ _____    ______ ____
ROOT
ATOM      1  N   UNL     1       0.395   9.373  20.389  0.00  0.00    +0.000 N 
ATOM      2  C   UNL     1      -0.271   8.717  21.517  0.00  0.00    +0.000 C 
ATOM      3  C   UNL     1       0.114  10.718  20.037  0.00  0.00    +0.000 C 
ATOM      4  O   UNL     1       0.569  11.325  19.072  0.00  0.00    +0.000 OA
ENDROOT
BRANCH   1   8
ATOM      5  C   UNL     1       3.288   7.084  18.143  0.00  0.00    +0.000 A 
ATOM      6  C   UNL     1       2.818   6.613  19.365  0.00  0.00    +0.000 A 
ATOM      7  C   UNL     1       1.864   7.341  20.090  0.00  0.00    +0.000 A 
ATOM      8  C   UNL     1       1.342   8.552  19.625  0.00  0.00    +0.000 A 
ATOM      9  C   UNL     1       1.797   8.984  18.363  0.00  0.00    +0.000 A 
ATOM     10  C   UNL     1       2.765   8.277  17.646  0.00  0.00    +0.000 A 
BRANCH   5  11
ATOM     11  C   UNL     1       4.327   6.336  17.347  0.00  0.00    +0.000 C 
BRANCH  11  15
ATOM     12  C   UNL     1       7.563   7.068  17.474  0.00  0.00    +0.000 C 
ATOM     13  C   UNL     1       7.386   5.667  18.078  0.00  0.00    +0.000 C 
ATOM     14  C   UNL     1       6.037   5.432  18.826  0.00  0.00    +0.000 C 
ATOM     15  N   UNL     1       4.846   5.133  18.000  0.00  0.00    +0.000 NA
ATOM     16  C   UNL     1       5.204   4.051  17.061  0.00  0.00    +0.000 C 
ATOM     17  C   UNL     1       6.492   4.306  16.248  0.00  0.00    +0.000 C 
ATOM     18  N   UNL     1       7.665   4.625  17.074  0.00  0.00    +0.000 NA
ATOM     19  H   UNL     1       8.443   4.903  16.478  0.00  0.00    +0.000 HD
ENDBRANCH  11  15
ENDBRANCH   5  11
ENDBRANCH   1   8
BRANCH   3  20
ATOM     20  C   UNL     1      -0.842  11.540  20.843  0.00  0.00    +0.000 A 
ATOM     21  C   UNL     1      -0.742  11.745  22.213  0.00  0.00    +0.000 A 
ATOM     22  C   UNL     1      -1.747  12.447  22.879  0.00  0.00    +0.000 A 
ATOM     23  C   UNL     1      -2.761  13.061  22.150  0.00  0.00    +0.000 A 
ATOM     24  N   UNL     1      -2.838  12.927  20.802  0.00  0.00    +0.000 NA
ATOM     25  C   UNL     1      -1.878  12.180  20.183  0.00  0.00    +0.000 A 
BRANCH  23  26
ATOM     26  C   UNL     1      -3.775  13.917  22.786  0.00  0.00    +0.000 A 
ATOM     27  C   UNL     1      -3.419  15.127  23.410  0.00  0.00    +0.000 A 
ATOM     28  C   UNL     1      -4.383  15.938  24.018  0.00  0.00    +0.000 A 
ATOM     29  C   UNL     1      -5.725  15.558  24.014  0.00  0.00    +0.000 A 
ATOM     30  C   UNL     1      -6.102  14.367  23.409  0.00  0.00    +0.000 A 
ATOM     31  C   UNL     1      -5.134  13.559  22.814  0.00  0.00    +0.000 A 
ATOM     32  F   UNL     1      -5.554  12.405  22.275  0.00  0.00    +0.000 F 
ENDBRANCH  23  26
ENDBRANCH   3  20
TORSDOF 5
ENDMDL
