MODEL 1
REMARK VINA RESULT:      -7.8      0.000      0.000
REMARK  Name = 
REMARK  6 active torsions:
REMARK  status: ('A' for Active; 'I' for Inactive)
REMARK    1  A    between atoms: C_1  and  N_2
REMARK    2  A    between atoms: C_5  and  N_6
REMARK    3  A    between atoms: C_9  and  S_10
REMARK    4  A    between atoms: S_10  and  C_11
REMARK    5  A    between atoms: C_14  and  C_15
REMARK    6  A    between atoms: C_18  and  N_19
REMARK                            x       y       z     vdW  Elec       q    Type
REMARK                         _______ _______ _______ _____ _____    ______ ____
ROOT
ATOM      1  C   UNL     1       6.296   5.109  17.710  0.00  0.00    +0.000 A 
ATOM      2  N   UNL     1       7.286   5.823  17.216  0.00  0.00    +0.000 NA
ATOM      3  N   UNL     1       7.467   5.598  15.866  0.00  0.00    +0.000 NA
ATOM      4  C   UNL     1       6.592   4.738  15.382  0.00  0.00    +0.000 A 
ATOM      5  S   UNL     1       5.493   4.127  16.555  0.00  0.00    +0.000 S 
ENDROOT
BRANCH   4   6
ATOM      6  C   UNL     1       6.595   4.342  14.000  0.00  0.00    +0.000 A 
ATOM      7  C   UNL     1       7.457   4.780  12.999  0.00  0.00    +0.000 A 
ATOM      8  C   UNL     1       7.116   4.103  11.800  0.00  0.00    +0.000 A 
ATOM      9  C   UNL     1       6.057   3.301  12.135  0.00  0.00    +0.000 A 
ATOM     10  O   UNL     1       5.722   3.429  13.450  0.00  0.00    +0.000 OA
BRANCH   9  11
ATOM     11  N   UNL     1       5.282   2.384  11.361  0.00  0.00    +0.000 N 
ATOM     12  O   UNL     1       5.820   1.299  11.104  0.00  0.00    +0.000 OA
ATOM     13  O   UNL     1       4.147   2.733  11.015  0.00  0.00    +0.000 OA
ENDBRANCH   9  11
ENDBRANCH   4   6
BRANCH   1  14
ATOM     14  S   UNL     1       5.812   5.292  19.381  0.00  0.00    +0.000 S 
BRANCH  14  20
ATOM     15  C   UNL     1       3.080   6.963  18.717  0.00  0.00    +0.000 C 
ATOM     16  N   UNL     1       3.095   5.543  18.986  0.00  0.00    +0.000 N 
ATOM     17  C   UNL     1       1.978   4.751  18.896  0.00  0.00    +0.000 A 
ATOM     18  N   UNL     1       2.253   3.490  19.129  0.00  0.00    +0.000 NA
ATOM     19  C   UNL     1       3.617   3.457  19.365  0.00  0.00    +0.000 A 
ATOM     20  C   UNL     1       4.164   4.731  19.306  0.00  0.00    +0.000 A 
BRANCH  19  21
ATOM     21  N   UNL     1       4.268   2.180  19.590  0.00  0.00    +0.000 N 
ATOM     22  O   UNL     1       4.031   1.272  18.783  0.00  0.00    +0.000 OA
ATOM     23  O   UNL     1       5.020   2.084  20.569  0.00  0.00    +0.000 OA
ENDBRANCH  19  21
ENDBRANCH  14  20
ENDBRANCH   1  14
TORSDOF 5
ENDMDL
MODEL 2
REMARK VINA RESULT:      -7.7      2.020      2.604
REMARK  Name = 
REMARK  6 active torsions:
REMARK  status: ('A' for Active; 'I' for Inactive)
REMARK    1  A    between atoms: C_1  and  N_2
REMARK    2  A    between atoms: C_5  and  N_6
REMARK    3  A    between atoms: C_9  and  S_10
REMARK    4  A    between atoms: S_10  and  C_11
REMARK    5  A    between atoms: C_14  and  C_15
REMARK    6  A    between atoms: C_18  and  N_19
REMARK                            x       y       z     vdW  Elec       q    Type
REMARK                         _______ _______ _______ _____ _____    ______ ____
ROOT
ATOM      1  C   UNL     1       6.249   4.930  17.846  0.00  0.00    +0.000 A 
ATOM      2  N   UNL     1       7.531   4.838  17.559  0.00  0.00    +0.000 NA
ATOM      3  N   UNL     1       7.747   4.570  16.223  0.00  0.00    +0.000 NA
ATOM      4  C   UNL     1       6.620   4.492  15.541  0.00  0.00    +0.000 A 
ATOM      5  S   UNL     1       5.210   4.722  16.497  0.00  0.00    +0.000 S 
ENDROOT
BRANCH   4   6
ATOM      6  C   UNL     1       6.599   4.210  14.131  0.00  0.00    +0.000 A 
ATOM      7  C   UNL     1       7.395   4.783  13.144  0.00  0.00    +0.000 A 
ATOM      8  C   UNL     1       7.056   4.184  11.905  0.00  0.00    +0.000 A 
ATOM      9  C   UNL     1       6.062   3.289  12.203  0.00  0.00    +0.000 A 
ATOM     10  O   UNL     1       5.767   3.288  13.534  0.00  0.00    +0.000 OA
BRANCH   9  11
ATOM     11  N   UNL     1       5.319   2.389  11.380  0.00  0.00    +0.000 N 
ATOM     12  O   UNL     1       4.192   2.769  11.037  0.00  0.00    +0.000 OA
ATOM     13  O   UNL     1       5.849   1.315  11.073  0.00  0.00    +0.000 OA
ENDBRANCH   9  11
ENDBRANCH   4   6
BRANCH   1  14
ATOM     14  S   UNL     1       5.725   5.358  19.459  0.00  0.00    +0.000 S 
BRANCH  14  20
ATOM     15  C   UNL     1       4.452   2.385  19.947  0.00  0.00    +0.000 C 
ATOM     16  N   UNL     1       3.650   3.554  19.659  0.00  0.00    +0.000 N 
ATOM     17  C   UNL     1       2.278   3.540  19.657  0.00  0.00    +0.000 A 
ATOM     18  N   UNL     1       1.778   4.730  19.427  0.00  0.00    +0.000 NA
ATOM     19  C   UNL     1       2.876   5.561  19.290  0.00  0.00    +0.000 A 
ATOM     20  C   UNL     1       4.060   4.847  19.407  0.00  0.00    +0.000 A 
BRANCH  19  21
ATOM     21  N   UNL     1       2.670   6.984  19.095  0.00  0.00    +0.000 N 
ATOM     22  O   UNL     1       3.020   7.466  18.010  0.00  0.00    +0.000 OA
ATOM     23  O   UNL     1       2.156   7.621  20.024  0.00  0.00    +0.000 OA
ENDBRANCH  19  21
ENDBRANCH  14  20
ENDBRANCH   1  14
TORSDOF 5
ENDMDL
MODEL 3
REMARK VINA RESULT:      -7.1      0.967      1.050
REMARK  Name = 
REMARK  6 active torsions:
REMARK  status: ('A' for Active; 'I' for Inactive)
REMARK    1  A    between atoms: C_1  and  N_2
REMARK    2  A    between atoms: C_5  and  N_6
REMARK    3  A    between atoms: C_9  and  S_10
REMARK    4  A    between atoms: S_10  and  C_11
REMARK    5  A    between atoms: C_14  and  C_15
REMARK    6  A    between atoms: C_18  and  N_19
REMARK                            x       y       z     vdW  Elec       q    Type
REMARK                         _______ _______ _______ _____ _____    ______ ____
ROOT
ATOM      1  C   UNL     1       6.200   4.814  17.330  0.00  0.00    +0.000 A 
ATOM      2  N   UNL     1       7.254   5.312  16.719  0.00  0.00    +0.000 NA
ATOM      3  N   UNL     1       7.243   5.048  15.364  0.00  0.00    +0.000 NA
ATOM      4  C   UNL     1       6.168   4.379  14.995  0.00  0.00    +0.000 A 
ATOM      5  S   UNL     1       5.100   4.007  16.290  0.00  0.00    +0.000 S 
ENDROOT
BRANCH   4   6
ATOM      6  C   UNL     1       5.946   3.984  13.631  0.00  0.00    +0.000 A 
ATOM      7  C   UNL     1       6.899   3.560  12.710  0.00  0.00    +0.000 A 
ATOM      8  C   UNL     1       6.229   3.241  11.501  0.00  0.00    +0.000 A 
ATOM      9  C   UNL     1       4.907   3.502  11.749  0.00  0.00    +0.000 A 
ATOM     10  O   UNL     1       4.711   3.952  13.020  0.00  0.00    +0.000 OA
BRANCH   9  11
ATOM     11  N   UNL     1       3.746   3.376  10.926  0.00  0.00    +0.000 N 
ATOM     12  O   UNL     1       3.078   2.346  11.081  0.00  0.00    +0.000 OA
ATOM     13  O   UNL     1       3.495   4.293  10.136  0.00  0.00    +0.000 OA
ENDBRANCH   9  11
ENDBRANCH   4   6
BRANCH   1  14
ATOM     14  S   UNL     1       5.940   5.100  19.037  0.00  0.00    +0.000 S 
BRANCH  14  20
ATOM     15  C   UNL     1       3.250   6.915  18.638  0.00  0.00    +0.000 C 
ATOM     16  N   UNL     1       3.215   5.508  18.971  0.00  0.00    +0.000 N 
ATOM     17  C   UNL     1       2.051   4.787  19.057  0.00  0.00    +0.000 A 
ATOM     18  N   UNL     1       2.279   3.522  19.314  0.00  0.00    +0.000 NA
ATOM     19  C   UNL     1       3.657   3.411  19.380  0.00  0.00    +0.000 A 
ATOM     20  C   UNL     1       4.267   4.643  19.193  0.00  0.00    +0.000 A 
BRANCH  19  21
ATOM     21  N   UNL     1       4.256   2.104  19.582  0.00  0.00    +0.000 N 
ATOM     22  O   UNL     1       3.951   1.210  18.782  0.00  0.00    +0.000 OA
ATOM     23  O   UNL     1       5.031   1.970  20.537  0.00  0.00    +0.000 OA
ENDBRANCH  19  21
ENDBRANCH  14  20
ENDBRANCH   1  14
TORSDOF 5
ENDMDL
MODEL 4
REMARK VINA RESULT:      -7.0      4.006      8.096
REMARK  Name = 
REMARK  6 active torsions:
REMARK  status: ('A' for Active; 'I' for Inactive)
REMARK    1  A    between atoms: C_1  and  N_2
REMARK    2  A    between atoms: C_5  and  N_6
REMARK    3  A    between atoms: C_9  and  S_10
REMARK    4  A    between atoms: S_10  and  C_11
REMARK    5  A    between atoms: C_14  and  C_15
REMARK    6  A    between atoms: C_18  and  N_19
REMARK                            x       y       z     vdW  Elec       q    Type
REMARK                         _______ _______ _______ _____ _____    ______ ____
ROOT
ATOM      1  C   UNL     1       3.777   5.303  17.471  0.00  0.00    +0.000 A 
ATOM      2  N   UNL     1       4.213   6.449  16.994  0.00  0.00    +0.000 NA
ATOM      3  N   UNL     1       3.589   7.530  17.584  0.00  0.00    +0.000 NA
ATOM      4  C   UNL     1       2.719   7.161  18.505  0.00  0.00    +0.000 A 
ATOM      5  S   UNL     1       2.589   5.458  18.698  0.00  0.00    +0.000 S 
ENDROOT
BRANCH   4   6
ATOM      6  C   UNL     1       1.942   8.117  19.246  0.00  0.00    +0.000 A 
ATOM      7  C   UNL     1       1.436   9.330  18.788  0.00  0.00    +0.000 A 
ATOM      8  C   UNL     1       0.706   9.927  19.847  0.00  0.00    +0.000 A 
ATOM      9  C   UNL     1       0.819   9.052  20.894  0.00  0.00    +0.000 A 
ATOM     10  O   UNL     1       1.559   7.958  20.560  0.00  0.00    +0.000 OA
BRANCH   9  11
ATOM     11  N   UNL     1       0.301   9.095  22.225  0.00  0.00    +0.000 N 
ATOM     12  O   UNL     1      -0.741   8.456  22.424  0.00  0.00    +0.000 OA
ATOM     13  O   UNL     1       0.924   9.751  23.068  0.00  0.00    +0.000 OA
ENDBRANCH   9  11
ENDBRANCH   4   6
BRANCH   1  14
ATOM     14  S   UNL     1       4.484   3.791  16.946  0.00  0.00    +0.000 S 
BRANCH  14  20
ATOM     15  C   UNL     1       4.962   3.868  13.711  0.00  0.00    +0.000 C 
ATOM     16  N   UNL     1       5.924   4.368  14.668  0.00  0.00    +0.000 N 
ATOM     17  C   UNL     1       7.083   5.006  14.301  0.00  0.00    +0.000 A 
ATOM     18  N   UNL     1       7.763   5.420  15.343  0.00  0.00    +0.000 NA
ATOM     19  C   UNL     1       7.003   5.050  16.439  0.00  0.00    +0.000 A 
ATOM     20  C   UNL     1       5.859   4.370  16.045  0.00  0.00    +0.000 A 
BRANCH  19  21
ATOM     21  N   UNL     1       7.443   5.428  17.769  0.00  0.00    +0.000 N 
ATOM     22  O   UNL     1       7.712   4.514  18.559  0.00  0.00    +0.000 OA
ATOM     23  O   UNL     1       7.522   6.637  18.024  0.00  0.00    +0.000 OA
ENDBRANCH  19  21
ENDBRANCH  14  20
ENDBRANCH   1  14
TORSDOF 5
ENDMDL
MODEL 5
REMARK VINA RESULT:      -7.0      1.137      1.321
REMARK  Name = 
REMARK  6 active torsions:
REMARK  status: ('A' for Active; 'I' for Inactive)
REMARK    1  A    between atoms: C_1  and  N_2
REMARK    2  A    between atoms: C_5  and  N_6
REMARK    3  A    between atoms: C_9  and  S_10
REMARK    4  A    between atoms: S_10  and  C_11
REMARK    5  A    between atoms: C_14  and  C_15
REMARK    6  A    between atoms: C_18  and  N_19
REMARK                            x       y       z     vdW  Elec       q    Type
REMARK                         _______ _______ _______ _____ _____    ______ ____
ROOT
ATOM      1  C   UNL     1       5.329   4.880  18.261  0.00  0.00    +0.000 A 
ATOM      2  N   UNL     1       6.588   4.503  18.186  0.00  0.00    +0.000 NA
ATOM      3  N   UNL     1       6.976   4.238  16.888  0.00  0.00    +0.000 NA
ATOM      4  C   UNL     1       6.002   4.448  16.024  0.00  0.00    +0.000 A 
ATOM      5  S   UNL     1       4.530   4.966  16.745  0.00  0.00    +0.000 S 
ENDROOT
BRANCH   4   6
ATOM      6  C   UNL     1       6.173   4.228  14.614  0.00  0.00    +0.000 A 
ATOM      7  C   UNL     1       7.157   4.767  13.789  0.00  0.00    +0.000 A 
ATOM      8  C   UNL     1       6.962   4.254  12.482  0.00  0.00    +0.000 A 
ATOM      9  C   UNL     1       5.863   3.442  12.579  0.00  0.00    +0.000 A 
ATOM     10  O   UNL     1       5.368   3.412  13.849  0.00  0.00    +0.000 OA
BRANCH   9  11
ATOM     11  N   UNL     1       5.182   2.647  11.607  0.00  0.00    +0.000 N 
ATOM     12  O   UNL     1       4.132   3.123  11.154  0.00  0.00    +0.000 OA
ATOM     13  O   UNL     1       5.684   1.563  11.290  0.00  0.00    +0.000 OA
ENDBRANCH   9  11
ENDBRANCH   4   6
BRANCH   1  14
ATOM     14  S   UNL     1       4.631   5.361  19.791  0.00  0.00    +0.000 S 
BRANCH  14  20
ATOM     15  C   UNL     1       1.505   6.168  20.317  0.00  0.00    +0.000 C 
ATOM     16  N   UNL     1       1.941   4.816  20.049  0.00  0.00    +0.000 N 
ATOM     17  C   UNL     1       1.072   3.765  19.899  0.00  0.00    +0.000 A 
ATOM     18  N   UNL     1       1.699   2.651  19.604  0.00  0.00    +0.000 NA
ATOM     19  C   UNL     1       3.037   2.998  19.543  0.00  0.00    +0.000 A 
ATOM     20  C   UNL     1       3.220   4.341  19.840  0.00  0.00    +0.000 A 
BRANCH  19  21
ATOM     21  N   UNL     1       4.014   1.994  19.161  0.00  0.00    +0.000 N 
ATOM     22  O   UNL     1       3.895   1.483  18.040  0.00  0.00    +0.000 OA
ATOM     23  O   UNL     1       4.902   1.719  19.979  0.00  0.00    +0.000 OA
ENDBRANCH  19  21
ENDBRANCH  14  20
ENDBRANCH   1  14
TORSDOF 5
ENDMDL
MODEL 6
REMARK VINA RESULT:      -6.9      2.200      2.742
REMARK  Name = 
REMARK  6 active torsions:
REMARK  status: ('A' for Active; 'I' for Inactive)
REMARK    1  A    between atoms: C_1  and  N_2
REMARK    2  A    between atoms: C_5  and  N_6
REMARK    3  A    between atoms: C_9  and  S_10
REMARK    4  A    between atoms: S_10  and  C_11
REMARK    5  A    between atoms: C_14  and  C_15
REMARK    6  A    between atoms: C_18  and  N_19
REMARK                            x       y       z     vdW  Elec       q    Type
REMARK                         _______ _______ _______ _____ _____    ______ ____
ROOT
ATOM      1  C   UNL     1       6.180   4.786  17.378  0.00  0.00    +0.000 A 
ATOM      2  N   UNL     1       7.330   5.074  16.806  0.00  0.00    +0.000 NA
ATOM      3  N   UNL     1       7.335   4.766  15.461  0.00  0.00    +0.000 NA
ATOM      4  C   UNL     1       6.178   4.276  15.058  0.00  0.00    +0.000 A 
ATOM      5  S   UNL     1       5.005   4.139  16.308  0.00  0.00    +0.000 S 
ENDROOT
BRANCH   4   6
ATOM      6  C   UNL     1       5.953   3.874  13.696  0.00  0.00    +0.000 A 
ATOM      7  C   UNL     1       6.890   3.370  12.799  0.00  0.00    +0.000 A 
ATOM      8  C   UNL     1       6.220   3.078  11.584  0.00  0.00    +0.000 A 
ATOM      9  C   UNL     1       4.915   3.432  11.804  0.00  0.00    +0.000 A 
ATOM     10  O   UNL     1       4.729   3.916  13.064  0.00  0.00    +0.000 OA
BRANCH   9  11
ATOM     11  N   UNL     1       3.763   3.373  10.962  0.00  0.00    +0.000 N 
ATOM     12  O   UNL     1       3.115   2.319  11.000  0.00  0.00    +0.000 OA
ATOM     13  O   UNL     1       3.498   4.364  10.272  0.00  0.00    +0.000 OA
ENDBRANCH   9  11
ENDBRANCH   4   6
BRANCH   1  14
ATOM     14  S   UNL     1       5.897   5.174  19.061  0.00  0.00    +0.000 S 
BRANCH  14  20
ATOM     15  C   UNL     1       4.486   2.362  19.951  0.00  0.00    +0.000 C 
ATOM     16  N   UNL     1       3.738   3.554  19.620  0.00  0.00    +0.000 N 
ATOM     17  C   UNL     1       2.374   3.641  19.739  0.00  0.00    +0.000 A 
ATOM     18  N   UNL     1       1.933   4.838  19.436  0.00  0.00    +0.000 NA
ATOM     19  C   UNL     1       3.065   5.570  19.122  0.00  0.00    +0.000 A 
ATOM     20  C   UNL     1       4.206   4.784  19.205  0.00  0.00    +0.000 A 
BRANCH  19  21
ATOM     21  N   UNL     1       2.934   6.980  18.806  0.00  0.00    +0.000 N 
ATOM     22  O   UNL     1       2.298   7.684  19.601  0.00  0.00    +0.000 OA
ATOM     23  O   UNL     1       3.468   7.387  17.765  0.00  0.00    +0.000 OA
ENDBRANCH  19  21
ENDBRANCH  14  20
ENDBRANCH   1  14
TORSDOF 5
ENDMDL
MODEL 7
REMARK VINA RESULT:      -6.9      5.279      8.904
REMARK  Name = 
REMARK  6 active torsions:
REMARK  status: ('A' for Active; 'I' for Inactive)
REMARK    1  A    between atoms: C_1  and  N_2
REMARK    2  A    between atoms: C_5  and  N_6
REMARK    3  A    between atoms: C_9  and  S_10
REMARK    4  A    between atoms: S_10  and  C_11
REMARK    5  A    between atoms: C_14  and  C_15
REMARK    6  A    between atoms: C_18  and  N_19
REMARK                            x       y       z     vdW  Elec       q    Type
REMARK                         _______ _______ _______ _____ _____    ______ ____
ROOT
ATOM      1  C   UNL     1       3.020   7.247  18.316  0.00  0.00    +0.000 A 
ATOM      2  N   UNL     1       2.770   6.878  19.554  0.00  0.00    +0.000 NA
ATOM      3  N   UNL     1       1.898   7.739  20.188  0.00  0.00    +0.000 NA
ATOM      4  C   UNL     1       1.501   8.718  19.398  0.00  0.00    +0.000 A 
ATOM      5  S   UNL     1       2.187   8.663  17.822  0.00  0.00    +0.000 S 
ENDROOT
BRANCH   4   6
ATOM      6  C   UNL     1       0.597   9.742  19.847  0.00  0.00    +0.000 A 
ATOM      7  C   UNL     1      -0.401  10.369  19.108  0.00  0.00    +0.000 A 
ATOM      8  C   UNL     1      -1.066  11.288  19.960  0.00  0.00    +0.000 A 
ATOM      9  C   UNL     1      -0.426  11.179  21.166  0.00  0.00    +0.000 A 
ATOM     10  O   UNL     1       0.579  10.259  21.124  0.00  0.00    +0.000 OA
BRANCH   9  11
ATOM     11  N   UNL     1      -0.637  11.841  22.414  0.00  0.00    +0.000 N 
ATOM     12  O   UNL     1      -0.509  13.073  22.405  0.00  0.00    +0.000 OA
ATOM     13  O   UNL     1      -0.932  11.149  23.395  0.00  0.00    +0.000 OA
ENDBRANCH   9  11
ENDBRANCH   4   6
BRANCH   1  14
ATOM     14  S   UNL     1       4.025   6.262  17.276  0.00  0.00    +0.000 S 
BRANCH  14  20
ATOM     15  C   UNL     1       1.854   3.890  17.871  0.00  0.00    +0.000 C 
ATOM     16  N   UNL     1       3.199   3.885  18.400  0.00  0.00    +0.000 N 
ATOM     17  C   UNL     1       3.716   2.838  19.122  0.00  0.00    +0.000 A 
ATOM     18  N   UNL     1       4.972   3.040  19.443  0.00  0.00    +0.000 NA
ATOM     19  C   UNL     1       5.292   4.267  18.888  0.00  0.00    +0.000 A 
ATOM     20  C   UNL     1       4.195   4.828  18.250  0.00  0.00    +0.000 A 
BRANCH  19  21
ATOM     21  N   UNL     1       6.652   4.763  18.998  0.00  0.00    +0.000 N 
ATOM     22  O   UNL     1       6.920   5.473  19.976  0.00  0.00    +0.000 OA
ATOM     23  O   UNL     1       7.452   4.442  18.110  0.00  0.00    +0.000 OA
ENDBRANCH  19  21
ENDBRANCH  14  20
ENDBRANCH   1  14
TORSDOF 5
ENDMDL
MODEL 8
REMARK VINA RESULT:      -6.8      5.182      8.741
REMARK  Name = 
REMARK  6 active torsions:
REMARK  status: ('A' for Active; 'I' for Inactive)
REMARK    1  A    between atoms: C_1  and  N_2
REMARK    2  A    between atoms: C_5  and  N_6
REMARK    3  A    between atoms: C_9  and  S_10
REMARK    4  A    between atoms: S_10  and  C_11
REMARK    5  A    between atoms: C_14  and  C_15
REMARK    6  A    between atoms: C_18  and  N_19
REMARK                            x       y       z     vdW  Elec       q    Type
REMARK                         _______ _______ _______ _____ _____    ______ ____
ROOT
ATOM      1  C   UNL     1       3.148   7.202  17.895  0.00  0.00    +0.000 A 
ATOM      2  N   UNL     1       2.771   8.354  17.382  0.00  0.00    +0.000 NA
ATOM      3  N   UNL     1       1.973   9.074  18.248  0.00  0.00    +0.000 NA
ATOM      4  C   UNL     1       1.793   8.449  19.396  0.00  0.00    +0.000 A 
ATOM      5  S   UNL     1       2.576   6.921  19.488  0.00  0.00    +0.000 S 
ENDROOT
BRANCH   4   6
ATOM      6  C   UNL     1       0.988   9.004  20.450  0.00  0.00    +0.000 A 
ATOM      7  C   UNL     1       0.455   8.334  21.547  0.00  0.00    +0.000 A 
ATOM      8  C   UNL     1      -0.241   9.280  22.342  0.00  0.00    +0.000 A 
ATOM      9  C   UNL     1      -0.105  10.470  21.678  0.00  0.00    +0.000 A 
ATOM     10  O   UNL     1       0.627  10.331  20.537  0.00  0.00    +0.000 OA
BRANCH   9  11
ATOM     11  N   UNL     1      -0.580  11.783  21.979  0.00  0.00    +0.000 N 
ATOM     12  O   UNL     1      -0.690  12.060  23.181  0.00  0.00    +0.000 OA
ATOM     13  O   UNL     1      -0.839  12.537  21.033  0.00  0.00    +0.000 OA
ENDBRANCH   9  11
ENDBRANCH   4   6
BRANCH   1  14
ATOM     14  S   UNL     1       4.243   6.153  17.023  0.00  0.00    +0.000 S 
BRANCH  14  20
ATOM     15  C   UNL     1       2.020   3.842  17.666  0.00  0.00    +0.000 C 
ATOM     16  N   UNL     1       3.330   3.875  18.278  0.00  0.00    +0.000 N 
ATOM     17  C   UNL     1       3.793   2.889  19.113  0.00  0.00    +0.000 A 
ATOM     18  N   UNL     1       5.027   3.112  19.495  0.00  0.00    +0.000 NA
ATOM     19  C   UNL     1       5.391   4.290  18.866  0.00  0.00    +0.000 A 
ATOM     20  C   UNL     1       4.340   4.801  18.117  0.00  0.00    +0.000 A 
BRANCH  19  21
ATOM     21  N   UNL     1       6.745   4.790  19.021  0.00  0.00    +0.000 N 
ATOM     22  O   UNL     1       6.985   5.477  20.022  0.00  0.00    +0.000 OA
ATOM     23  O   UNL     1       7.569   4.494  18.146  0.00  0.00    +0.000 OA
ENDBRANCH  19  21
ENDBRANCH  14  20
ENDBRANCH   1  14
TORSDOF 5
ENDMDL
MODEL 9
REMARK VINA RESULT:      -6.7      5.784      7.600
REMARK  Name = 
REMARK  6 active torsions:
REMARK  status: ('A' for Active; 'I' for Inactive)
REMARK    1  A    between atoms: C_1  and  N_2
REMARK    2  A    between atoms: C_5  and  N_6
REMARK    3  A    between atoms: C_9  and  S_10
REMARK    4  A    between atoms: S_10  and  C_11
REMARK    5  A    between atoms: C_14  and  C_15
REMARK    6  A    between atoms: C_18  and  N_19
REMARK                            x       y       z     vdW  Elec       q    Type
REMARK                         _______ _______ _______ _____ _____    ______ ____
ROOT
ATOM      1  C   UNL     1       1.284   9.002  19.375  0.00  0.00    +0.000 A 
ATOM      2  N   UNL     1       1.560   9.468  18.176  0.00  0.00    +0.000 NA
ATOM      3  N   UNL     1       2.463   8.671  17.502  0.00  0.00    +0.000 NA
ATOM      4  C   UNL     1       2.821   7.616  18.209  0.00  0.00    +0.000 A 
ATOM      5  S   UNL     1       2.088   7.536  19.762  0.00  0.00    +0.000 S 
ENDROOT
BRANCH   4   6
ATOM      6  C   UNL     1       3.762   6.649  17.713  0.00  0.00    +0.000 A 
ATOM      7  C   UNL     1       3.550   5.287  17.522  0.00  0.00    +0.000 A 
ATOM      8  C   UNL     1       4.739   4.729  16.986  0.00  0.00    +0.000 A 
ATOM      9  C   UNL     1       5.613   5.780  16.894  0.00  0.00    +0.000 A 
ATOM     10  O   UNL     1       5.051   6.944  17.327  0.00  0.00    +0.000 OA
BRANCH   9  11
ATOM     11  N   UNL     1       6.962   5.853  16.429  0.00  0.00    +0.000 N 
ATOM     12  O   UNL     1       7.565   6.907  16.670  0.00  0.00    +0.000 OA
ATOM     13  O   UNL     1       7.422   4.872  15.833  0.00  0.00    +0.000 OA
ENDBRANCH   9  11
ENDBRANCH   4   6
BRANCH   1  14
ATOM     14  S   UNL     1       0.092   9.788  20.386  0.00  0.00    +0.000 S 
BRANCH  14  20
ATOM     15  C   UNL     1       1.670  12.653  20.397  0.00  0.00    +0.000 C 
ATOM     16  N   UNL     1       0.540  12.372  19.539  0.00  0.00    +0.000 N 
ATOM     17  C   UNL     1       0.087  13.249  18.586  0.00  0.00    +0.000 A 
ATOM     18  N   UNL     1      -0.910  12.749  17.896  0.00  0.00    +0.000 NA
ATOM     19  C   UNL     1      -1.102  11.479  18.412  0.00  0.00    +0.000 A 
ATOM     20  C   UNL     1      -0.225  11.227  19.457  0.00  0.00    +0.000 A 
BRANCH  19  21
ATOM     21  N   UNL     1      -2.101  10.613  17.813  0.00  0.00    +0.000 N 
ATOM     22  O   UNL     1      -1.708   9.778  16.988  0.00  0.00    +0.000 OA
ATOM     23  O   UNL     1      -3.277  10.763  18.168  0.00  0.00    +0.000 OA
ENDBRANCH  19  21
ENDBRANCH  14  20
ENDBRANCH   1  14
TORSDOF 5
ENDMDL
