MODEL 1
REMARK VINA RESULT:     -10.4      0.000      0.000
REMARK  Name = 
REMARK  4 active torsions:
REMARK  status: ('A' for Active; 'I' for Inactive)
REMARK    1  A    between atoms: C_7  and  C_8
REMARK    2  A    between atoms: C_11  and  N_12
REMARK    3  A    between atoms: N_12  and  C_13
REMARK    4  A    between atoms: C_15  and  C_16
REMARK                            x       y       z     vdW  Elec       q    Type
REMARK                         _______ _______ _______ _____ _____    ______ ____
ROOT
ATOM      1  N   UNL     1       5.626   4.681  18.100  0.00  0.00    +0.000 N 
ATOM      2  H   UNL     1       6.113   3.839  17.812  0.00  0.00    +0.000 HD
ENDROOT
BRANCH   1   3
ATOM      3  C   UNL     1       4.538   4.355  19.052  0.00  0.00    +0.000 A 
ATOM      4  N   UNL     1       4.298   5.418  19.849  0.00  0.00    +0.000 NA
ATOM      5  C   UNL     1       3.012   5.775  19.964  0.00  0.00    +0.000 A 
ATOM      6  N   UNL     1       1.961   5.077  19.553  0.00  0.00    +0.000 NA
ATOM      7  C   UNL     1       2.153   4.044  18.801  0.00  0.00    +0.000 A 
ATOM      8  C   UNL     1       0.956   3.559  18.369  0.00  0.00    +0.000 A 
ATOM      9  C   UNL     1       0.729   2.221  18.499  0.00  0.00    +0.000 A 
ATOM     10  C   UNL     1       1.827   1.446  18.857  0.00  0.00    +0.000 A 
ATOM     11  C   UNL     1       3.151   2.002  18.865  0.00  0.00    +0.000 A 
ATOM     12  C   UNL     1       3.399   3.439  18.741  0.00  0.00    +0.000 A 
BRANCH   5  13
ATOM     13  C   UNL     1       2.675   7.131  19.570  0.00  0.00    +0.000 A 
ATOM     14  C   UNL     1       2.797   7.432  18.199  0.00  0.00    +0.000 A 
ATOM     15  C   UNL     1       2.122   8.497  17.650  0.00  0.00    +0.000 A 
ATOM     16  C   UNL     1       1.297   9.270  18.462  0.00  0.00    +0.000 A 
ATOM     17  C   UNL     1       1.114   8.956  19.812  0.00  0.00    +0.000 A 
ATOM     18  C   UNL     1       1.794   7.885  20.367  0.00  0.00    +0.000 A 
ENDBRANCH   5  13
ENDBRANCH   1   3
BRANCH   1  22
ATOM     19  C   UNL     1       8.177   8.358  18.278  0.00  0.00    +0.000 A 
ATOM     20  C   UNL     1       7.114   8.193  17.365  0.00  0.00    +0.000 A 
ATOM     21  C   UNL     1       6.322   6.977  17.260  0.00  0.00    +0.000 A 
ATOM     22  C   UNL     1       6.528   5.845  18.063  0.00  0.00    +0.000 A 
ATOM     23  C   UNL     1       7.636   5.985  18.938  0.00  0.00    +0.000 A 
ATOM     24  C   UNL     1       8.443   7.197  19.029  0.00  0.00    +0.000 A 
BRANCH  19  31
ATOM     25  F   UNL     1      12.072  14.616  18.059  0.00  0.00    +0.000 F 
ATOM     26  C   UNL     1      11.460  13.517  18.535  0.00  0.00    +0.000 A 
ATOM     27  C   UNL     1      11.629  13.187  19.876  0.00  0.00    +0.000 A 
ATOM     28  C   UNL     1      11.006  12.043  20.405  0.00  0.00    +0.000 A 
ATOM     29  C   UNL     1      10.232  11.253  19.532  0.00  0.00    +0.000 A 
ATOM     30  N   UNL     1       9.497  10.091  19.698  0.00  0.00    +0.000 N 
ATOM     31  C   UNL     1       8.939   9.674  18.488  0.00  0.00    +0.000 A 
ATOM     32  N   UNL     1       9.254  10.595  17.573  0.00  0.00    +0.000 NA
ATOM     33  C   UNL     1      10.056  11.563  18.188  0.00  0.00    +0.000 A 
ATOM     34  C   UNL     1      10.678  12.729  17.675  0.00  0.00    +0.000 A 
ATOM     35  H   UNL     1       9.407   9.605  20.573  0.00  0.00    +0.000 HD
ENDBRANCH  19  31
ENDBRANCH   1  22
TORSDOF 4
ENDMDL
MODEL 2
REMARK VINA RESULT:     -10.0      5.536      8.915
REMARK  Name = 
REMARK  4 active torsions:
REMARK  status: ('A' for Active; 'I' for Inactive)
REMARK    1  A    between atoms: C_7  and  C_8
REMARK    2  A    between atoms: C_11  and  N_12
REMARK    3  A    between atoms: N_12  and  C_13
REMARK    4  A    between atoms: C_15  and  C_16
REMARK                            x       y       z     vdW  Elec       q    Type
REMARK                         _______ _______ _______ _____ _____    ______ ____
ROOT
ATOM      1  N   UNL     1       2.773   6.979  18.606  0.00  0.00    +0.000 N 
ATOM      2  H   UNL     1       3.772   7.105  18.730  0.00  0.00    +0.000 HD
ENDROOT
BRANCH   1   3
ATOM      3  C   UNL     1       2.436   5.539  18.508  0.00  0.00    +0.000 A 
ATOM      4  N   UNL     1       2.954   5.027  17.371  0.00  0.00    +0.000 NA
ATOM      5  C   UNL     1       3.645   3.889  17.511  0.00  0.00    +0.000 A 
ATOM      6  N   UNL     1       3.691   3.125  18.595  0.00  0.00    +0.000 NA
ATOM      7  C   UNL     1       3.193   3.575  19.699  0.00  0.00    +0.000 A 
ATOM      8  C   UNL     1       3.471   2.713  20.716  0.00  0.00    +0.000 A 
ATOM      9  C   UNL     1       2.442   2.338  21.529  0.00  0.00    +0.000 A 
ATOM     10  C   UNL     1       1.254   3.044  21.376  0.00  0.00    +0.000 A 
ATOM     11  C   UNL     1       1.199   4.233  20.572  0.00  0.00    +0.000 A 
ATOM     12  C   UNL     1       2.295   4.631  19.686  0.00  0.00    +0.000 A 
BRANCH   5  13
ATOM     13  C   UNL     1       5.027   3.908  17.069  0.00  0.00    +0.000 A 
ATOM     14  C   UNL     1       5.238   3.946  15.677  0.00  0.00    +0.000 A 
ATOM     15  C   UNL     1       6.432   4.391  15.158  0.00  0.00    +0.000 A 
ATOM     16  C   UNL     1       7.431   4.823  16.026  0.00  0.00    +0.000 A 
ATOM     17  C   UNL     1       7.224   4.849  17.409  0.00  0.00    +0.000 A 
ATOM     18  C   UNL     1       6.023   4.401  17.932  0.00  0.00    +0.000 A 
ENDBRANCH   5  13
ENDBRANCH   1   3
BRANCH   1  22
ATOM     19  C   UNL     1       0.187  10.129  20.466  0.00  0.00    +0.000 A 
ATOM     20  C   UNL     1       0.674  10.203  19.143  0.00  0.00    +0.000 A 
ATOM     21  C   UNL     1       1.564   9.215  18.554  0.00  0.00    +0.000 A 
ATOM     22  C   UNL     1       2.025   8.080  19.238  0.00  0.00    +0.000 A 
ATOM     23  C   UNL     1       1.590   8.036  20.588  0.00  0.00    +0.000 A 
ATOM     24  C   UNL     1       0.713   9.038  21.185  0.00  0.00    +0.000 A 
BRANCH  19  31
ATOM     25  F   UNL     1      -4.789  13.985  24.306  0.00  0.00    +0.000 F 
ATOM     26  C   UNL     1      -4.062  13.524  23.273  0.00  0.00    +0.000 A 
ATOM     27  C   UNL     1      -4.393  13.936  21.986  0.00  0.00    +0.000 A 
ATOM     28  C   UNL     1      -3.655  13.470  20.884  0.00  0.00    +0.000 A 
ATOM     29  C   UNL     1      -2.596  12.574  21.133  0.00  0.00    +0.000 A 
ATOM     30  N   UNL     1      -1.684  11.928  20.316  0.00  0.00    +0.000 N 
ATOM     31  C   UNL     1      -0.849  11.092  21.060  0.00  0.00    +0.000 A 
ATOM     32  N   UNL     1      -1.178  11.254  22.345  0.00  0.00    +0.000 NA
ATOM     33  C   UNL     1      -2.253  12.146  22.411  0.00  0.00    +0.000 A 
ATOM     34  C   UNL     1      -2.998  12.638  23.512  0.00  0.00    +0.000 A 
ATOM     35  H   UNL     1      -1.652  12.034  19.317  0.00  0.00    +0.000 HD
ENDBRANCH  19  31
ENDBRANCH   1  22
TORSDOF 4
ENDMDL
MODEL 3
REMARK VINA RESULT:     -10.0      0.540      1.134
REMARK  Name = 
REMARK  4 active torsions:
REMARK  status: ('A' for Active; 'I' for Inactive)
REMARK    1  A    between atoms: C_7  and  C_8
REMARK    2  A    between atoms: C_11  and  N_12
REMARK    3  A    between atoms: N_12  and  C_13
REMARK    4  A    between atoms: C_15  and  C_16
REMARK                            x       y       z     vdW  Elec       q    Type
REMARK                         _______ _______ _______ _____ _____    ______ ____
ROOT
ATOM      1  N   UNL     1       5.644   4.849  17.999  0.00  0.00    +0.000 N 
ATOM      2  H   UNL     1       6.104   4.023  17.632  0.00  0.00    +0.000 HD
ENDROOT
BRANCH   1   3
ATOM      3  C   UNL     1       4.591   4.473  18.972  0.00  0.00    +0.000 A 
ATOM      4  N   UNL     1       4.341   5.513  19.796  0.00  0.00    +0.000 NA
ATOM      5  C   UNL     1       3.049   5.830  19.951  0.00  0.00    +0.000 A 
ATOM      6  N   UNL     1       2.008   5.110  19.552  0.00  0.00    +0.000 NA
ATOM      7  C   UNL     1       2.210   4.098  18.773  0.00  0.00    +0.000 A 
ATOM      8  C   UNL     1       1.017   3.587  18.361  0.00  0.00    +0.000 A 
ATOM      9  C   UNL     1       0.832   2.240  18.470  0.00  0.00    +0.000 A 
ATOM     10  C   UNL     1       1.960   1.491  18.784  0.00  0.00    +0.000 A 
ATOM     11  C   UNL     1       3.268   2.085  18.770  0.00  0.00    +0.000 A 
ATOM     12  C   UNL     1       3.471   3.531  18.670  0.00  0.00    +0.000 A 
BRANCH   5  13
ATOM     13  C   UNL     1       2.663   7.183  19.593  0.00  0.00    +0.000 A 
ATOM     14  C   UNL     1       2.777   7.526  18.231  0.00  0.00    +0.000 A 
ATOM     15  C   UNL     1       2.064   8.581  17.710  0.00  0.00    +0.000 A 
ATOM     16  C   UNL     1       1.210   9.300  18.541  0.00  0.00    +0.000 A 
ATOM     17  C   UNL     1       1.036   8.943  19.881  0.00  0.00    +0.000 A 
ATOM     18  C   UNL     1       1.753   7.882  20.408  0.00  0.00    +0.000 A 
ENDBRANCH   5  13
ENDBRANCH   1   3
BRANCH   1  22
ATOM     19  C   UNL     1       8.258   8.473  18.321  0.00  0.00    +0.000 A 
ATOM     20  C   UNL     1       7.184   8.367  17.412  0.00  0.00    +0.000 A 
ATOM     21  C   UNL     1       6.371   7.171  17.259  0.00  0.00    +0.000 A 
ATOM     22  C   UNL     1       6.565   5.999  18.007  0.00  0.00    +0.000 A 
ATOM     23  C   UNL     1       7.684   6.080  18.876  0.00  0.00    +0.000 A 
ATOM     24  C   UNL     1       8.512   7.274  19.014  0.00  0.00    +0.000 A 
BRANCH  19  31
ATOM     25  F   UNL     1      11.478  14.665  20.700  0.00  0.00    +0.000 F 
ATOM     26  C   UNL     1      11.018  13.711  19.873  0.00  0.00    +0.000 A 
ATOM     27  C   UNL     1      11.095  13.923  18.500  0.00  0.00    +0.000 A 
ATOM     28  C   UNL     1      10.620  12.947  17.607  0.00  0.00    +0.000 A 
ATOM     29  C   UNL     1      10.060  11.774  18.152  0.00  0.00    +0.000 A 
ATOM     30  N   UNL     1       9.507  10.634  17.593  0.00  0.00    +0.000 N 
ATOM     31  C   UNL     1       9.044   9.765  18.583  0.00  0.00    +0.000 A 
ATOM     32  N   UNL     1       9.359  10.310  19.761  0.00  0.00    +0.000 NA
ATOM     33  C   UNL     1       9.969  11.545  19.521  0.00  0.00    +0.000 A 
ATOM     34  C   UNL     1      10.467  12.534  20.406  0.00  0.00    +0.000 A 
ATOM     35  H   UNL     1       9.430  10.475  16.603  0.00  0.00    +0.000 HD
ENDBRANCH  19  31
ENDBRANCH   1  22
TORSDOF 4
ENDMDL
MODEL 4
REMARK VINA RESULT:      -9.9      5.199      8.906
REMARK  Name = 
REMARK  4 active torsions:
REMARK  status: ('A' for Active; 'I' for Inactive)
REMARK    1  A    between atoms: C_7  and  C_8
REMARK    2  A    between atoms: C_11  and  N_12
REMARK    3  A    between atoms: N_12  and  C_13
REMARK    4  A    between atoms: C_15  and  C_16
REMARK                            x       y       z     vdW  Elec       q    Type
REMARK                         _______ _______ _______ _____ _____    ______ ____
ROOT
ATOM      1  N   UNL     1       2.362   7.637  19.598  0.00  0.00    +0.000 N 
ATOM      2  H   UNL     1       3.292   7.723  19.994  0.00  0.00    +0.000 HD
ENDROOT
BRANCH   1   3
ATOM      3  C   UNL     1       2.135   6.265  19.088  0.00  0.00    +0.000 A 
ATOM      4  N   UNL     1       2.636   6.154  17.840  0.00  0.00    +0.000 NA
ATOM      5  C   UNL     1       3.421   5.090  17.624  0.00  0.00    +0.000 A 
ATOM      6  N   UNL     1       3.578   4.051  18.433  0.00  0.00    +0.000 NA
ATOM      7  C   UNL     1       3.099   4.114  19.632  0.00  0.00    +0.000 A 
ATOM      8  C   UNL     1       3.491   3.021  20.344  0.00  0.00    +0.000 A 
ATOM      9  C   UNL     1       2.534   2.336  21.033  0.00  0.00    +0.000 A 
ATOM     10  C   UNL     1       1.288   2.948  21.121  0.00  0.00    +0.000 A 
ATOM     11  C   UNL     1       1.103   4.309  20.703  0.00  0.00    +0.000 A 
ATOM     12  C   UNL     1       2.121   5.044  19.950  0.00  0.00    +0.000 A 
BRANCH   5  13
ATOM     13  C   UNL     1       4.775   5.360  17.176  0.00  0.00    +0.000 A 
ATOM     14  C   UNL     1       5.177   6.710  17.179  0.00  0.00    +0.000 A 
ATOM     15  C   UNL     1       6.511   7.047  17.198  0.00  0.00    +0.000 A 
ATOM     16  C   UNL     1       7.466   6.035  17.232  0.00  0.00    +0.000 A 
ATOM     17  C   UNL     1       7.091   4.689  17.288  0.00  0.00    +0.000 A 
ATOM     18  C   UNL     1       5.749   4.349  17.269  0.00  0.00    +0.000 A 
ENDBRANCH   5  13
ENDBRANCH   1   3
BRANCH   1  22
ATOM     19  C   UNL     1      -0.193  10.680  21.666  0.00  0.00    +0.000 A 
ATOM     20  C   UNL     1       0.297   9.517  22.299  0.00  0.00    +0.000 A 
ATOM     21  C   UNL     1       1.075   8.495  21.616  0.00  0.00    +0.000 A 
ATOM     22  C   UNL     1       1.426   8.563  20.259  0.00  0.00    +0.000 A 
ATOM     23  C   UNL     1       0.880   9.698  19.606  0.00  0.00    +0.000 A 
ATOM     24  C   UNL     1       0.083  10.714  20.286  0.00  0.00    +0.000 A 
BRANCH  19  31
ATOM     25  F   UNL     1      -2.483  16.463  25.626  0.00  0.00    +0.000 F 
ATOM     26  C   UNL     1      -2.505  15.316  24.926  0.00  0.00    +0.000 A 
ATOM     27  C   UNL     1      -3.695  14.601  24.852  0.00  0.00    +0.000 A 
ATOM     28  C   UNL     1      -3.751  13.396  24.131  0.00  0.00    +0.000 A 
ATOM     29  C   UNL     1      -2.569  12.945  23.510  0.00  0.00    +0.000 A 
ATOM     30  N   UNL     1      -2.259  11.835  22.742  0.00  0.00    +0.000 N 
ATOM     31  C   UNL     1      -0.906  11.825  22.398  0.00  0.00    +0.000 A 
ATOM     32  N   UNL     1      -0.371  12.950  22.881  0.00  0.00    +0.000 NA
ATOM     33  C   UNL     1      -1.368  13.643  23.576  0.00  0.00    +0.000 A 
ATOM     34  C   UNL     1      -1.334  14.864  24.296  0.00  0.00    +0.000 A 
ATOM     35  H   UNL     1      -2.924  11.123  22.493  0.00  0.00    +0.000 HD
ENDBRANCH  19  31
ENDBRANCH   1  22
TORSDOF 4
ENDMDL
MODEL 5
REMARK VINA RESULT:      -9.7      5.035      8.935
REMARK  Name = 
REMARK  4 active torsions:
REMARK  status: ('A' for Active; 'I' for Inactive)
REMARK    1  A    between atoms: C_7  and  C_8
REMARK    2  A    between atoms: C_11  and  N_12
REMARK    3  A    between atoms: N_12  and  C_13
REMARK    4  A    between atoms: C_15  and  C_16
REMARK                            x       y       z     vdW  Elec       q    Type
REMARK                         _______ _______ _______ _____ _____    ______ ____
ROOT
ATOM      1  N   UNL     1       2.632   7.115  19.935  0.00  0.00    +0.000 N 
ATOM      2  H   UNL     1       3.096   6.723  20.746  0.00  0.00    +0.000 HD
ENDROOT
BRANCH   1   3
ATOM      3  C   UNL     1       2.636   6.148  18.812  0.00  0.00    +0.000 A 
ATOM      4  N   UNL     1       3.545   6.527  17.888  0.00  0.00    +0.000 NA
ATOM      5  C   UNL     1       4.385   5.569  17.477  0.00  0.00    +0.000 A 
ATOM      6  N   UNL     1       4.280   4.270  17.724  0.00  0.00    +0.000 NA
ATOM      7  C   UNL     1       3.411   3.868  18.591  0.00  0.00    +0.000 A 
ATOM      8  C   UNL     1       3.561   2.532  18.809  0.00  0.00    +0.000 A 
ATOM      9  C   UNL     1       2.443   1.751  18.758  0.00  0.00    +0.000 A 
ATOM     10  C   UNL     1       1.229   2.425  18.708  0.00  0.00    +0.000 A 
ATOM     11  C   UNL     1       1.162   3.844  18.924  0.00  0.00    +0.000 A 
ATOM     12  C   UNL     1       2.357   4.688  18.964  0.00  0.00    +0.000 A 
BRANCH   5  13
ATOM     13  C   UNL     1       5.802   5.821  17.666  0.00  0.00    +0.000 A 
ATOM     14  C   UNL     1       6.316   6.987  17.064  0.00  0.00    +0.000 A 
ATOM     15  C   UNL     1       7.489   7.550  17.511  0.00  0.00    +0.000 A 
ATOM     16  C   UNL     1       8.160   6.965  18.582  0.00  0.00    +0.000 A 
ATOM     17  C   UNL     1       7.640   5.842  19.232  0.00  0.00    +0.000 A 
ATOM     18  C   UNL     1       6.459   5.273  18.783  0.00  0.00    +0.000 A 
ENDBRANCH   5  13
ENDBRANCH   1   3
BRANCH   1  22
ATOM     19  C   UNL     1      -0.241  10.281  21.273  0.00  0.00    +0.000 A 
ATOM     20  C   UNL     1       0.099   9.158  22.057  0.00  0.00    +0.000 A 
ATOM     21  C   UNL     1       0.982   8.095  21.604  0.00  0.00    +0.000 A 
ATOM     22  C   UNL     1       1.596   8.080  20.342  0.00  0.00    +0.000 A 
ATOM     23  C   UNL     1       1.205   9.175  19.528  0.00  0.00    +0.000 A 
ATOM     24  C   UNL     1       0.303  10.231  19.975  0.00  0.00    +0.000 A 
BRANCH  19  31
ATOM     25  F   UNL     1      -4.808  15.143  24.415  0.00  0.00    +0.000 F 
ATOM     26  C   UNL     1      -3.940  14.595  23.548  0.00  0.00    +0.000 A 
ATOM     27  C   UNL     1      -3.642  15.281  22.375  0.00  0.00    +0.000 A 
ATOM     28  C   UNL     1      -2.741  14.733  21.446  0.00  0.00    +0.000 A 
ATOM     29  C   UNL     1      -2.175  13.477  21.740  0.00  0.00    +0.000 A 
ATOM     30  N   UNL     1      -1.278  12.657  21.076  0.00  0.00    +0.000 N 
ATOM     31  C   UNL     1      -1.069  11.469  21.780  0.00  0.00    +0.000 A 
ATOM     32  N   UNL     1      -1.770  11.558  22.914  0.00  0.00    +0.000 NA
ATOM     33  C   UNL     1      -2.464  12.772  22.904  0.00  0.00    +0.000 A 
ATOM     34  C   UNL     1      -3.363  13.347  23.837  0.00  0.00    +0.000 A 
ATOM     35  H   UNL     1      -0.859  12.885  20.191  0.00  0.00    +0.000 HD
ENDBRANCH  19  31
ENDBRANCH   1  22
TORSDOF 4
ENDMDL
MODEL 6
REMARK VINA RESULT:      -9.7      5.447      8.762
REMARK  Name = 
REMARK  4 active torsions:
REMARK  status: ('A' for Active; 'I' for Inactive)
REMARK    1  A    between atoms: C_7  and  C_8
REMARK    2  A    between atoms: C_11  and  N_12
REMARK    3  A    between atoms: N_12  and  C_13
REMARK    4  A    between atoms: C_15  and  C_16
REMARK                            x       y       z     vdW  Elec       q    Type
REMARK                         _______ _______ _______ _____ _____    ______ ____
ROOT
ATOM      1  N   UNL     1       2.805   7.006  18.739  0.00  0.00    +0.000 N 
ATOM      2  H   UNL     1       3.786   7.107  18.977  0.00  0.00    +0.000 HD
ENDROOT
BRANCH   1   3
ATOM      3  C   UNL     1       2.447   5.576  18.589  0.00  0.00    +0.000 A 
ATOM      4  N   UNL     1       2.953   5.100  17.431  0.00  0.00    +0.000 NA
ATOM      5  C   UNL     1       3.629   3.948  17.526  0.00  0.00    +0.000 A 
ATOM      6  N   UNL     1       3.668   3.143  18.580  0.00  0.00    +0.000 NA
ATOM      7  C   UNL     1       3.181   3.558  19.702  0.00  0.00    +0.000 A 
ATOM      8  C   UNL     1       3.450   2.655  20.685  0.00  0.00    +0.000 A 
ATOM      9  C   UNL     1       2.419   2.264  21.487  0.00  0.00    +0.000 A 
ATOM     10  C   UNL     1       1.241   2.992  21.367  0.00  0.00    +0.000 A 
ATOM     11  C   UNL     1       1.200   4.211  20.608  0.00  0.00    +0.000 A 
ATOM     12  C   UNL     1       2.298   4.626  19.733  0.00  0.00    +0.000 A 
BRANCH   5  13
ATOM     13  C   UNL     1       5.010   3.965  17.078  0.00  0.00    +0.000 A 
ATOM     14  C   UNL     1       5.215   3.964  15.685  0.00  0.00    +0.000 A 
ATOM     15  C   UNL     1       6.405   4.403  15.150  0.00  0.00    +0.000 A 
ATOM     16  C   UNL     1       7.403   4.867  16.002  0.00  0.00    +0.000 A 
ATOM     17  C   UNL     1       7.201   4.930  17.384  0.00  0.00    +0.000 A 
ATOM     18  C   UNL     1       6.005   4.488  17.924  0.00  0.00    +0.000 A 
ENDBRANCH   5  13
ENDBRANCH   1   3
BRANCH   1  22
ATOM     19  C   UNL     1       0.102  10.184  20.370  0.00  0.00    +0.000 A 
ATOM     20  C   UNL     1       0.610  10.196  19.054  0.00  0.00    +0.000 A 
ATOM     21  C   UNL     1       1.537   9.201  18.538  0.00  0.00    +0.000 A 
ATOM     22  C   UNL     1       2.016   8.121  19.294  0.00  0.00    +0.000 A 
ATOM     23  C   UNL     1       1.558   8.142  20.637  0.00  0.00    +0.000 A 
ATOM     24  C   UNL     1       0.644   9.152  21.160  0.00  0.00    +0.000 A 
BRANCH  19  31
ATOM     25  F   UNL     1      -4.850  15.455  21.808  0.00  0.00    +0.000 F 
ATOM     26  C   UNL     1      -3.988  14.440  21.991  0.00  0.00    +0.000 A 
ATOM     27  C   UNL     1      -3.707  14.026  23.288  0.00  0.00    +0.000 A 
ATOM     28  C   UNL     1      -2.808  12.970  23.514  0.00  0.00    +0.000 A 
ATOM     29  C   UNL     1      -2.204  12.370  22.391  0.00  0.00    +0.000 A 
ATOM     30  N   UNL     1      -1.294  11.337  22.236  0.00  0.00    +0.000 N 
ATOM     31  C   UNL     1      -0.970  11.151  20.891  0.00  0.00    +0.000 A 
ATOM     32  N   UNL     1      -1.715  12.008  20.187  0.00  0.00    +0.000 NA
ATOM     33  C   UNL     1      -2.467  12.772  21.086  0.00  0.00    +0.000 A 
ATOM     34  C   UNL     1      -3.389  13.829  20.877  0.00  0.00    +0.000 A 
ATOM     35  H   UNL     1      -0.904  10.814  23.002  0.00  0.00    +0.000 HD
ENDBRANCH  19  31
ENDBRANCH   1  22
TORSDOF 4
ENDMDL
MODEL 7
REMARK VINA RESULT:      -9.7      5.410      8.559
REMARK  Name = 
REMARK  4 active torsions:
REMARK  status: ('A' for Active; 'I' for Inactive)
REMARK    1  A    between atoms: C_7  and  C_8
REMARK    2  A    between atoms: C_11  and  N_12
REMARK    3  A    between atoms: N_12  and  C_13
REMARK    4  A    between atoms: C_15  and  C_16
REMARK                            x       y       z     vdW  Elec       q    Type
REMARK                         _______ _______ _______ _____ _____    ______ ____
ROOT
ATOM      1  N   UNL     1       2.782   7.388  17.542  0.00  0.00    +0.000 N 
ATOM      2  H   UNL     1       2.682   7.619  16.560  0.00  0.00    +0.000 HD
ENDROOT
BRANCH   1   3
ATOM      3  C   UNL     1       3.993   6.565  17.766  0.00  0.00    +0.000 A 
ATOM      4  N   UNL     1       3.937   5.996  18.989  0.00  0.00    +0.000 NA
ATOM      5  C   UNL     1       4.185   4.681  19.027  0.00  0.00    +0.000 A 
ATOM      6  N   UNL     1       4.675   3.943  18.039  0.00  0.00    +0.000 NA
ATOM      7  C   UNL     1       4.757   4.458  16.857  0.00  0.00    +0.000 A 
ATOM      8  C   UNL     1       5.139   3.504  15.963  0.00  0.00    +0.000 A 
ATOM      9  C   UNL     1       6.164   3.803  15.115  0.00  0.00    +0.000 A 
ATOM     10  C   UNL     1       6.574   5.131  15.096  0.00  0.00    +0.000 A 
ATOM     11  C   UNL     1       5.811   6.149  15.761  0.00  0.00    +0.000 A 
ATOM     12  C   UNL     1       4.720   5.833  16.685  0.00  0.00    +0.000 A 
BRANCH   5  13
ATOM     13  C   UNL     1       3.139   3.837  19.575  0.00  0.00    +0.000 A 
ATOM     14  C   UNL     1       3.511   2.989  20.637  0.00  0.00    +0.000 A 
ATOM     15  C   UNL     1       2.564   2.483  21.497  0.00  0.00    +0.000 A 
ATOM     16  C   UNL     1       1.228   2.833  21.319  0.00  0.00    +0.000 A 
ATOM     17  C   UNL     1       0.842   3.717  20.307  0.00  0.00    +0.000 A 
ATOM     18  C   UNL     1       1.794   4.227  19.440  0.00  0.00    +0.000 A 
ENDBRANCH   5  13
ENDBRANCH   1   3
BRANCH   1  22
ATOM     19  C   UNL     1       0.638  10.444  20.018  0.00  0.00    +0.000 A 
ATOM     20  C   UNL     1       1.154  10.709  18.731  0.00  0.00    +0.000 A 
ATOM     21  C   UNL     1       1.905   9.741  17.948  0.00  0.00    +0.000 A 
ATOM     22  C   UNL     1       2.187   8.438  18.388  0.00  0.00    +0.000 A 
ATOM     23  C   UNL     1       1.725   8.190  19.707  0.00  0.00    +0.000 A 
ATOM     24  C   UNL     1       0.989   9.169  20.500  0.00  0.00    +0.000 A 
BRANCH  19  31
ATOM     25  F   UNL     1      -2.967  14.778  24.772  0.00  0.00    +0.000 F 
ATOM     26  C   UNL     1      -2.693  14.047  23.678  0.00  0.00    +0.000 A 
ATOM     27  C   UNL     1      -3.696  13.854  22.734  0.00  0.00    +0.000 A 
ATOM     28  C   UNL     1      -3.443  13.093  21.580  0.00  0.00    +0.000 A 
ATOM     29  C   UNL     1      -2.159  12.532  21.430  0.00  0.00    +0.000 A 
ATOM     30  N   UNL     1      -1.570  11.747  20.453  0.00  0.00    +0.000 N 
ATOM     31  C   UNL     1      -0.261  11.409  20.803  0.00  0.00    +0.000 A 
ATOM     32  N   UNL     1       0.007  12.027  21.957  0.00  0.00    +0.000 NA
ATOM     33  C   UNL     1      -1.144  12.708  22.365  0.00  0.00    +0.000 A 
ATOM     34  C   UNL     1      -1.412  13.492  23.515  0.00  0.00    +0.000 A 
ATOM     35  H   UNL     1      -2.041  11.444  19.618  0.00  0.00    +0.000 HD
ENDBRANCH  19  31
ENDBRANCH   1  22
TORSDOF 4
ENDMDL
MODEL 8
REMARK VINA RESULT:      -9.6      5.095      8.185
REMARK  Name = 
REMARK  4 active torsions:
REMARK  status: ('A' for Active; 'I' for Inactive)
REMARK    1  A    between atoms: C_7  and  C_8
REMARK    2  A    between atoms: C_11  and  N_12
REMARK    3  A    between atoms: N_12  and  C_13
REMARK    4  A    between atoms: C_15  and  C_16
REMARK                            x       y       z     vdW  Elec       q    Type
REMARK                         _______ _______ _______ _____ _____    ______ ____
ROOT
ATOM      1  N   UNL     1       2.634   7.000  18.763  0.00  0.00    +0.000 N 
ATOM      2  H   UNL     1       3.619   7.158  18.947  0.00  0.00    +0.000 HD
ENDROOT
BRANCH   1   3
ATOM      3  C   UNL     1       2.361   5.555  18.582  0.00  0.00    +0.000 A 
ATOM      4  N   UNL     1       2.952   5.118  17.449  0.00  0.00    +0.000 NA
ATOM      5  C   UNL     1       3.682   4.002  17.570  0.00  0.00    +0.000 A 
ATOM      6  N   UNL     1       3.709   3.189  18.618  0.00  0.00    +0.000 NA
ATOM      7  C   UNL     1       3.142   3.566  19.717  0.00  0.00    +0.000 A 
ATOM      8  C   UNL     1       3.406   2.667  20.705  0.00  0.00    +0.000 A 
ATOM      9  C   UNL     1       2.356   2.215  21.449  0.00  0.00    +0.000 A 
ATOM     10  C   UNL     1       1.149   2.880  21.271  0.00  0.00    +0.000 A 
ATOM     11  C   UNL     1       1.084   4.104  20.521  0.00  0.00    +0.000 A 
ATOM     12  C   UNL     1       2.202   4.586  19.709  0.00  0.00    +0.000 A 
BRANCH   5  13
ATOM     13  C   UNL     1       5.081   4.096  17.197  0.00  0.00    +0.000 A 
ATOM     14  C   UNL     1       5.369   4.006  15.821  0.00  0.00    +0.000 A 
ATOM     15  C   UNL     1       6.551   4.497  15.316  0.00  0.00    +0.000 A 
ATOM     16  C   UNL     1       7.459   5.104  16.180  0.00  0.00    +0.000 A 
ATOM     17  C   UNL     1       7.170   5.256  17.539  0.00  0.00    +0.000 A 
ATOM     18  C   UNL     1       5.982   4.762  18.049  0.00  0.00    +0.000 A 
ENDBRANCH   5  13
ENDBRANCH   1   3
BRANCH   1  22
ATOM     19  C   UNL     1       0.444  10.357  20.762  0.00  0.00    +0.000 A 
ATOM     20  C   UNL     1       0.784   9.153  21.415  0.00  0.00    +0.000 A 
ATOM     21  C   UNL     1       1.440   8.035  20.755  0.00  0.00    +0.000 A 
ATOM     22  C   UNL     1       1.810   8.041  19.401  0.00  0.00    +0.000 A 
ATOM     23  C   UNL     1       1.411   9.224  18.727  0.00  0.00    +0.000 A 
ATOM     24  C   UNL     1       0.735  10.338  19.385  0.00  0.00    +0.000 A 
BRANCH  19  31
ATOM     25  F   UNL     1      -1.157  16.721  24.126  0.00  0.00    +0.000 F 
ATOM     26  C   UNL     1      -1.257  15.449  23.703  0.00  0.00    +0.000 A 
ATOM     27  C   UNL     1      -2.299  14.664  24.185  0.00  0.00    +0.000 A 
ATOM     28  C   UNL     1      -2.429  13.329  23.766  0.00  0.00    +0.000 A 
ATOM     29  C   UNL     1      -1.469  12.825  22.866  0.00  0.00    +0.000 A 
ATOM     30  N   UNL     1      -1.286  11.594  22.259  0.00  0.00    +0.000 N 
ATOM     31  C   UNL     1      -0.133  11.590  21.471  0.00  0.00    +0.000 A 
ATOM     32  N   UNL     1       0.377  12.824  21.519  0.00  0.00    +0.000 NA
ATOM     33  C   UNL     1      -0.417  13.591  22.377  0.00  0.00    +0.000 A 
ATOM     34  C   UNL     1      -0.310  14.941  22.798  0.00  0.00    +0.000 A 
ATOM     35  H   UNL     1      -1.895  10.805  22.395  0.00  0.00    +0.000 HD
ENDBRANCH  19  31
ENDBRANCH   1  22
TORSDOF 4
ENDMDL
MODEL 9
REMARK VINA RESULT:      -9.6      5.431      9.160
REMARK  Name = 
REMARK  4 active torsions:
REMARK  status: ('A' for Active; 'I' for Inactive)
REMARK    1  A    between atoms: C_7  and  C_8
REMARK    2  A    between atoms: C_11  and  N_12
REMARK    3  A    between atoms: N_12  and  C_13
REMARK    4  A    between atoms: C_15  and  C_16
REMARK                            x       y       z     vdW  Elec       q    Type
REMARK                         _______ _______ _______ _____ _____    ______ ____
ROOT
ATOM      1  N   UNL     1       2.411   7.865  19.711  0.00  0.00    +0.000 N 
ATOM      2  H   UNL     1       3.315   8.005  20.148  0.00  0.00    +0.000 HD
ENDROOT
BRANCH   1   3
ATOM      3  C   UNL     1       2.311   6.500  19.143  0.00  0.00    +0.000 A 
ATOM      4  N   UNL     1       3.094   6.404  18.048  0.00  0.00    +0.000 NA
ATOM      5  C   UNL     1       3.907   5.340  18.009  0.00  0.00    +0.000 A 
ATOM      6  N   UNL     1       3.867   4.290  18.818  0.00  0.00    +0.000 NA
ATOM      7  C   UNL     1       3.118   4.339  19.870  0.00  0.00    +0.000 A 
ATOM      8  C   UNL     1       3.329   3.235  20.639  0.00  0.00    +0.000 A 
ATOM      9  C   UNL     1       2.236   2.545  21.072  0.00  0.00    +0.000 A 
ATOM     10  C   UNL     1       1.005   3.159  20.871  0.00  0.00    +0.000 A 
ATOM     11  C   UNL     1       0.924   4.527  20.440  0.00  0.00    +0.000 A 
ATOM     12  C   UNL     1       2.092   5.267  19.960  0.00  0.00    +0.000 A 
BRANCH   5  13
ATOM     13  C   UNL     1       5.329   5.612  17.899  0.00  0.00    +0.000 A 
ATOM     14  C   UNL     1       5.693   6.740  17.139  0.00  0.00    +0.000 A 
ATOM     15  C   UNL     1       6.921   7.336  17.310  0.00  0.00    +0.000 A 
ATOM     16  C   UNL     1       7.800   6.823  18.260  0.00  0.00    +0.000 A 
ATOM     17  C   UNL     1       7.438   5.740  19.066  0.00  0.00    +0.000 A 
ATOM     18  C   UNL     1       6.203   5.138  18.895  0.00  0.00    +0.000 A 
ENDBRANCH   5  13
ENDBRANCH   1   3
BRANCH   1  22
ATOM     19  C   UNL     1      -0.464  10.645  21.728  0.00  0.00    +0.000 A 
ATOM     20  C   UNL     1       0.225   9.616  22.403  0.00  0.00    +0.000 A 
ATOM     21  C   UNL     1       1.112   8.671  21.743  0.00  0.00    +0.000 A 
ATOM     22  C   UNL     1       1.381   8.690  20.366  0.00  0.00    +0.000 A 
ATOM     23  C   UNL     1       0.640   9.683  19.675  0.00  0.00    +0.000 A 
ATOM     24  C   UNL     1      -0.266  10.618  20.334  0.00  0.00    +0.000 A 
BRANCH  19  31
ATOM     25  F   UNL     1      -5.416  15.453  24.324  0.00  0.00    +0.000 F 
ATOM     26  C   UNL     1      -4.236  14.872  24.046  0.00  0.00    +0.000 A 
ATOM     27  C   UNL     1      -3.065  15.546  24.375  0.00  0.00    +0.000 A 
ATOM     28  C   UNL     1      -1.815  14.967  24.095  0.00  0.00    +0.000 A 
ATOM     29  C   UNL     1      -1.800  13.707  23.466  0.00  0.00    +0.000 A 
ATOM     30  N   UNL     1      -0.785  12.861  23.049  0.00  0.00    +0.000 N 
ATOM     31  C   UNL     1      -1.303  11.725  22.425  0.00  0.00    +0.000 A 
ATOM     32  N   UNL     1      -2.634  11.808  22.503  0.00  0.00    +0.000 NA
ATOM     33  C   UNL     1      -2.959  13.019  23.124  0.00  0.00    +0.000 A 
ATOM     34  C   UNL     1      -4.211  13.611  23.428  0.00  0.00    +0.000 A 
ATOM     35  H   UNL     1       0.194  13.063  23.162  0.00  0.00    +0.000 HD
ENDBRANCH  19  31
ENDBRANCH   1  22
TORSDOF 4
ENDMDL
