MODEL 1
REMARK VINA RESULT:      -8.4      0.000      0.000
REMARK  Name = 
REMARK  11 active torsions:
REMARK  status: ('A' for Active; 'I' for Inactive)
REMARK    1  A    between atoms: C_1  and  C_2
REMARK    2  A    between atoms: C_2  and  C_3
REMARK    3  A    between atoms: C_8  and  N_9
REMARK    4  A    between atoms: C_10  and  C_12
REMARK    5  A    between atoms: C_12  and  S_13
REMARK    6  A    between atoms: S_13  and  C_14
REMARK    7  A    between atoms: C_19  and  C_20
REMARK    8  A    between atoms: C_22  and  N_23
REMARK    9  A    between atoms: N_24  and  C_25
REMARK   10  A    between atoms: C_29  and  O_30
REMARK   11  A    between atoms: O_30  and  C_31
REMARK                            x       y       z     vdW  Elec       q    Type
REMARK                         _______ _______ _______ _____ _____    ______ ____
ROOT
ATOM      1  C   UNL     1       0.337  11.287  20.497  0.00  0.00    +0.000 A 
ATOM      2  N   UNL     1       1.300  11.821  21.195  0.00  0.00    +0.000 NA
ATOM      3  C   UNL     1       1.794  13.003  20.737  0.00  0.00    +0.000 A 
ATOM      4  N   UNL     1       2.756  13.690  21.288  0.00  0.00    +0.000 NA
ATOM      5  N   UNL     1       2.986  14.868  20.463  0.00  0.00    +0.000 NA
ATOM      6  C   UNL     1       2.147  14.823  19.459  0.00  0.00    +0.000 A 
ATOM      7  C   UNL     1       2.079  15.861  18.388  0.00  0.00    +0.000 C 
ATOM      8  C   UNL     1       1.291  13.643  19.537  0.00  0.00    +0.000 A 
ATOM      9  C   UNL     1       0.251  13.122  18.870  0.00  0.00    +0.000 A 
ATOM     10  N   UNL     1      -0.276  11.880  19.354  0.00  0.00    +0.000 N 
ENDROOT
BRANCH  10  11
ATOM     11  C   UNL     1      -1.368  11.247  18.649  0.00  0.00    +0.000 A 
ATOM     12  C   UNL     1      -1.156  10.235  17.697  0.00  0.00    +0.000 A 
ATOM     13  C   UNL     1      -2.204   9.712  16.937  0.00  0.00    +0.000 A 
ATOM     14  C   UNL     1      -3.512  10.078  17.225  0.00  0.00    +0.000 A 
ATOM     15  C   UNL     1      -3.774  10.990  18.244  0.00  0.00    +0.000 A 
ATOM     16  C   UNL     1      -2.707  11.619  18.892  0.00  0.00    +0.000 A 
BRANCH  15  17
ATOM     17  O   UNL     1      -5.099  11.193  18.515  0.00  0.00    +0.000 OA
ATOM     18  C   UNL     1      -5.416  12.349  19.284  0.00  0.00    +0.000 C 
ENDBRANCH  15  17
ENDBRANCH  10  11
BRANCH   9  19
ATOM     19  N   UNL     1      -0.290  13.806  17.781  0.00  0.00    +0.000 N 
ATOM     20  H   UNL     1      -0.479  14.792  17.922  0.00  0.00    +0.000 HD
ATOM     21  H   UNL     1      -1.108  13.333  17.400  0.00  0.00    +0.000 HD
ENDBRANCH   9  19
BRANCH   1  22
ATOM     22  S   UNL     1      -0.186   9.672  21.045  0.00  0.00    +0.000 S 
BRANCH  22  23
ATOM     23  C   UNL     1       1.323   8.746  21.331  0.00  0.00    +0.000 C 
BRANCH  23  25
ATOM     24  N   UNL     1       2.110   6.712  20.293  0.00  0.00    +0.000 N 
ATOM     25  C   UNL     1       1.736   8.025  20.070  0.00  0.00    +0.000 C 
ATOM     26  O   UNL     1       1.724   8.611  18.990  0.00  0.00    +0.000 OA
ATOM     27  H   UNL     1       2.253   6.446  21.258  0.00  0.00    +0.000 HD
BRANCH  24  33
ATOM     28  C   UNL     1       1.938   4.498  19.264  0.00  0.00    +0.000 A 
ATOM     29  C   UNL     1       2.360   3.599  18.264  0.00  0.00    +0.000 A 
ATOM     30  C   UNL     1       3.371   3.945  17.366  0.00  0.00    +0.000 A 
ATOM     31  C   UNL     1       3.954   5.198  17.429  0.00  0.00    +0.000 A 
ATOM     32  C   UNL     1       3.520   6.116  18.381  0.00  0.00    +0.000 A 
ATOM     33  C   UNL     1       2.526   5.784  19.315  0.00  0.00    +0.000 A 
BRANCH  28  35
ATOM     34  C   UNL     1       1.473   3.020  21.285  0.00  0.00    +0.000 C 
ATOM     35  C   UNL     1       0.917   3.991  20.254  0.00  0.00    +0.000 C 
ENDBRANCH  28  35
ENDBRANCH  24  33
ENDBRANCH  23  25
ENDBRANCH  22  23
ENDBRANCH   1  22
TORSDOF 8
ENDMDL
MODEL 2
REMARK VINA RESULT:      -8.1      0.986      1.594
REMARK  Name = 
REMARK  11 active torsions:
REMARK  status: ('A' for Active; 'I' for Inactive)
REMARK    1  A    between atoms: C_1  and  C_2
REMARK    2  A    between atoms: C_2  and  C_3
REMARK    3  A    between atoms: C_8  and  N_9
REMARK    4  A    between atoms: C_10  and  C_12
REMARK    5  A    between atoms: C_12  and  S_13
REMARK    6  A    between atoms: S_13  and  C_14
REMARK    7  A    between atoms: C_19  and  C_20
REMARK    8  A    between atoms: C_22  and  N_23
REMARK    9  A    between atoms: N_24  and  C_25
REMARK   10  A    between atoms: C_29  and  O_30
REMARK   11  A    between atoms: O_30  and  C_31
REMARK                            x       y       z     vdW  Elec       q    Type
REMARK                         _______ _______ _______ _____ _____    ______ ____
ROOT
ATOM      1  C   UNL     1       0.286  11.674  20.433  0.00  0.00    +0.000 A 
ATOM      2  N   UNL     1       1.420  11.931  21.023  0.00  0.00    +0.000 NA
ATOM      3  C   UNL     1       1.939  13.172  20.819  0.00  0.00    +0.000 A 
ATOM      4  N   UNL     1       3.060  13.618  21.315  0.00  0.00    +0.000 NA
ATOM      5  N   UNL     1       3.249  14.976  20.826  0.00  0.00    +0.000 NA
ATOM      6  C   UNL     1       2.230  15.272  20.060  0.00  0.00    +0.000 A 
ATOM      7  C   UNL     1       2.065  16.584  19.367  0.00  0.00    +0.000 C 
ATOM      8  C   UNL     1       1.282  14.162  19.989  0.00  0.00    +0.000 A 
ATOM      9  C   UNL     1       0.081  13.913  19.449  0.00  0.00    +0.000 A 
ATOM     10  N   UNL     1      -0.472  12.608  19.667  0.00  0.00    +0.000 N 
ENDROOT
BRANCH  10  11
ATOM     11  C   UNL     1      -1.744  12.265  19.071  0.00  0.00    +0.000 A 
ATOM     12  C   UNL     1      -2.959  12.421  19.760  0.00  0.00    +0.000 A 
ATOM     13  C   UNL     1      -4.169  11.979  19.222  0.00  0.00    +0.000 A 
ATOM     14  C   UNL     1      -4.211  11.512  17.915  0.00  0.00    +0.000 A 
ATOM     15  C   UNL     1      -3.045  11.455  17.156  0.00  0.00    +0.000 A 
ATOM     16  C   UNL     1      -1.820  11.756  17.757  0.00  0.00    +0.000 A 
BRANCH  15  17
ATOM     17  O   UNL     1      -3.220  11.087  15.850  0.00  0.00    +0.000 OA
ATOM     18  C   UNL     1      -2.861   9.750  15.517  0.00  0.00    +0.000 C 
ENDBRANCH  15  17
ENDBRANCH  10  11
BRANCH   9  19
ATOM     19  N   UNL     1      -0.587  14.915  18.744  0.00  0.00    +0.000 N 
ATOM     20  H   UNL     1      -0.596  15.832  19.173  0.00  0.00    +0.000 HD
ATOM     21  H   UNL     1      -1.528  14.632  18.477  0.00  0.00    +0.000 HD
ENDBRANCH   9  19
BRANCH   1  22
ATOM     22  S   UNL     1      -0.292   9.996  20.605  0.00  0.00    +0.000 S 
BRANCH  22  23
ATOM     23  C   UNL     1       1.155   9.028  21.038  0.00  0.00    +0.000 C 
BRANCH  23  25
ATOM     24  N   UNL     1       2.092   6.978  20.167  0.00  0.00    +0.000 N 
ATOM     25  C   UNL     1       1.631   8.241  19.839  0.00  0.00    +0.000 C 
ATOM     26  O   UNL     1       1.589   8.738  18.717  0.00  0.00    +0.000 OA
ATOM     27  H   UNL     1       2.243   6.800  21.151  0.00  0.00    +0.000 HD
BRANCH  24  33
ATOM     28  C   UNL     1       2.039   4.701  19.273  0.00  0.00    +0.000 A 
ATOM     29  C   UNL     1       2.534   3.758  18.350  0.00  0.00    +0.000 A 
ATOM     30  C   UNL     1       3.571   4.084  17.474  0.00  0.00    +0.000 A 
ATOM     31  C   UNL     1       4.109   5.360  17.482  0.00  0.00    +0.000 A 
ATOM     32  C   UNL     1       3.603   6.318  18.356  0.00  0.00    +0.000 A 
ATOM     33  C   UNL     1       2.581   6.008  19.267  0.00  0.00    +0.000 A 
BRANCH  28  35
ATOM     34  C   UNL     1       1.444   3.062  21.129  0.00  0.00    +0.000 C 
ATOM     35  C   UNL     1       0.993   4.219  20.250  0.00  0.00    +0.000 C 
ENDBRANCH  28  35
ENDBRANCH  24  33
ENDBRANCH  23  25
ENDBRANCH  22  23
ENDBRANCH   1  22
TORSDOF 8
ENDMDL
MODEL 3
REMARK VINA RESULT:      -7.8      2.693      5.157
REMARK  Name = 
REMARK  11 active torsions:
REMARK  status: ('A' for Active; 'I' for Inactive)
REMARK    1  A    between atoms: C_1  and  C_2
REMARK    2  A    between atoms: C_2  and  C_3
REMARK    3  A    between atoms: C_8  and  N_9
REMARK    4  A    between atoms: C_10  and  C_12
REMARK    5  A    between atoms: C_12  and  S_13
REMARK    6  A    between atoms: S_13  and  C_14
REMARK    7  A    between atoms: C_19  and  C_20
REMARK    8  A    between atoms: C_22  and  N_23
REMARK    9  A    between atoms: N_24  and  C_25
REMARK   10  A    between atoms: C_29  and  O_30
REMARK   11  A    between atoms: O_30  and  C_31
REMARK                            x       y       z     vdW  Elec       q    Type
REMARK                         _______ _______ _______ _____ _____    ______ ____
ROOT
ATOM      1  C   UNL     1      -0.785  10.600  18.918  0.00  0.00    +0.000 A 
ATOM      2  N   UNL     1      -0.986  10.043  17.757  0.00  0.00    +0.000 NA
ATOM      3  C   UNL     1      -2.141  10.373  17.119  0.00  0.00    +0.000 A 
ATOM      4  N   UNL     1      -2.526   9.921  15.957  0.00  0.00    +0.000 NA
ATOM      5  N   UNL     1      -3.825  10.507  15.664  0.00  0.00    +0.000 NA
ATOM      6  C   UNL     1      -4.153  11.280  16.668  0.00  0.00    +0.000 A 
ATOM      7  C   UNL     1      -5.426  12.056  16.738  0.00  0.00    +0.000 C 
ATOM      8  C   UNL     1      -3.110  11.289  17.691  0.00  0.00    +0.000 A 
ATOM      9  C   UNL     1      -2.858  11.913  18.851  0.00  0.00    +0.000 A 
ATOM     10  N   UNL     1      -1.638  11.571  19.521  0.00  0.00    +0.000 N 
ENDROOT
BRANCH  10  11
ATOM     11  C   UNL     1      -1.334  12.177  20.798  0.00  0.00    +0.000 A 
ATOM     12  C   UNL     1      -1.850  11.675  22.005  0.00  0.00    +0.000 A 
ATOM     13  C   UNL     1      -1.647  12.333  23.219  0.00  0.00    +0.000 A 
ATOM     14  C   UNL     1      -0.790  13.426  23.276  0.00  0.00    +0.000 A 
ATOM     15  C   UNL     1      -0.163  13.882  22.119  0.00  0.00    +0.000 A 
ATOM     16  C   UNL     1      -0.495  13.308  20.888  0.00  0.00    +0.000 A 
BRANCH  15  17
ATOM     17  O   UNL     1       0.743  14.889  22.308  0.00  0.00    +0.000 OA
ATOM     18  C   UNL     1       2.004  14.732  21.665  0.00  0.00    +0.000 C 
ENDBRANCH  15  17
ENDBRANCH  10  11
BRANCH   9  19
ATOM     19  N   UNL     1      -3.749  12.872  19.332  0.00  0.00    +0.000 N 
ATOM     20  H   UNL     1      -4.272  13.386  18.633  0.00  0.00    +0.000 HD
ATOM     21  H   UNL     1      -3.305  13.509  19.991  0.00  0.00    +0.000 HD
ENDBRANCH   9  19
BRANCH   1  22
ATOM     22  S   UNL     1       0.666  10.034  19.786  0.00  0.00    +0.000 S 
BRANCH  22  23
ATOM     23  C   UNL     1       1.721   9.297  18.537  0.00  0.00    +0.000 C 
BRANCH  23  25
ATOM     24  N   UNL     1       2.255   7.044  17.846  0.00  0.00    +0.000 N 
ATOM     25  C   UNL     1       2.083   7.884  18.931  0.00  0.00    +0.000 C 
ATOM     26  O   UNL     1       2.190   7.582  20.118  0.00  0.00    +0.000 OA
ATOM     27  H   UNL     1       1.938   7.398  16.953  0.00  0.00    +0.000 HD
BRANCH  24  33
ATOM     28  C   UNL     1       3.947   5.289  17.630  0.00  0.00    +0.000 A 
ATOM     29  C   UNL     1       4.279   3.922  17.704  0.00  0.00    +0.000 A 
ATOM     30  C   UNL     1       3.307   2.959  17.983  0.00  0.00    +0.000 A 
ATOM     31  C   UNL     1       2.000   3.345  18.224  0.00  0.00    +0.000 A 
ATOM     32  C   UNL     1       1.662   4.695  18.201  0.00  0.00    +0.000 A 
ATOM     33  C   UNL     1       2.613   5.680  17.893  0.00  0.00    +0.000 A 
BRANCH  28  35
ATOM     34  C   UNL     1       5.310   6.271  15.717  0.00  0.00    +0.000 C 
ATOM     35  C   UNL     1       5.045   6.239  17.215  0.00  0.00    +0.000 C 
ENDBRANCH  28  35
ENDBRANCH  24  33
ENDBRANCH  23  25
ENDBRANCH  22  23
ENDBRANCH   1  22
TORSDOF 8
ENDMDL
MODEL 4
REMARK VINA RESULT:      -7.7      1.383      2.590
REMARK  Name = 
REMARK  11 active torsions:
REMARK  status: ('A' for Active; 'I' for Inactive)
REMARK    1  A    between atoms: C_1  and  C_2
REMARK    2  A    between atoms: C_2  and  C_3
REMARK    3  A    between atoms: C_8  and  N_9
REMARK    4  A    between atoms: C_10  and  C_12
REMARK    5  A    between atoms: C_12  and  S_13
REMARK    6  A    between atoms: S_13  and  C_14
REMARK    7  A    between atoms: C_19  and  C_20
REMARK    8  A    between atoms: C_22  and  N_23
REMARK    9  A    between atoms: N_24  and  C_25
REMARK   10  A    between atoms: C_29  and  O_30
REMARK   11  A    between atoms: O_30  and  C_31
REMARK                            x       y       z     vdW  Elec       q    Type
REMARK                         _______ _______ _______ _____ _____    ______ ____
ROOT
ATOM      1  C   UNL     1       0.180  12.215  21.057  0.00  0.00    +0.000 A 
ATOM      2  N   UNL     1       1.398  12.458  21.451  0.00  0.00    +0.000 NA
ATOM      3  C   UNL     1       2.054  13.460  20.806  0.00  0.00    +0.000 A 
ATOM      4  N   UNL     1       3.274  13.851  21.048  0.00  0.00    +0.000 NA
ATOM      5  N   UNL     1       3.587  14.925  20.117  0.00  0.00    +0.000 NA
ATOM      6  C   UNL     1       2.535  15.120  19.363  0.00  0.00    +0.000 A 
ATOM      7  C   UNL     1       2.471  16.144  18.277  0.00  0.00    +0.000 C 
ATOM      8  C   UNL     1       1.445  14.221  19.732  0.00  0.00    +0.000 A 
ATOM      9  C   UNL     1       0.167  14.013  19.386  0.00  0.00    +0.000 A 
ATOM     10  N   UNL     1      -0.529  12.961  20.069  0.00  0.00    +0.000 N 
ENDROOT
BRANCH  10  11
ATOM     11  C   UNL     1      -1.895  12.659  19.707  0.00  0.00    +0.000 A 
ATOM     12  C   UNL     1      -2.989  13.138  20.449  0.00  0.00    +0.000 A 
ATOM     13  C   UNL     1      -4.297  12.746  20.162  0.00  0.00    +0.000 A 
ATOM     14  C   UNL     1      -4.556  11.989  19.026  0.00  0.00    +0.000 A 
ATOM     15  C   UNL     1      -3.509  11.595  18.196  0.00  0.00    +0.000 A 
ATOM     16  C   UNL     1      -2.192  11.864  18.579  0.00  0.00    +0.000 A 
BRANCH  15  17
ATOM     17  O   UNL     1      -3.888  10.951  17.050  0.00  0.00    +0.000 OA
ATOM     18  C   UNL     1      -2.895  10.833  16.036  0.00  0.00    +0.000 C 
ENDBRANCH  15  17
ENDBRANCH  10  11
BRANCH   9  19
ATOM     19  N   UNL     1      -0.436  14.828  18.428  0.00  0.00    +0.000 N 
ATOM     20  H   UNL     1      -0.238  15.819  18.495  0.00  0.00    +0.000 HD
ATOM     21  H   UNL     1      -1.440  14.663  18.363  0.00  0.00    +0.000 HD
ENDBRANCH   9  19
BRANCH   1  22
ATOM     22  S   UNL     1      -0.596  10.804  21.824  0.00  0.00    +0.000 S 
BRANCH  22  23
ATOM     23  C   UNL     1       0.739   9.669  22.209  0.00  0.00    +0.000 C 
BRANCH  23  25
ATOM     24  N   UNL     1       1.818   7.949  20.899  0.00  0.00    +0.000 N 
ATOM     25  C   UNL     1       0.607   8.413  21.380  0.00  0.00    +0.000 C 
ATOM     26  O   UNL     1      -0.499   7.912  21.187  0.00  0.00    +0.000 OA
ATOM     27  H   UNL     1       2.603   8.583  20.980  0.00  0.00    +0.000 HD
BRANCH  24  33
ATOM     28  C   UNL     1       2.466   6.917  18.777  0.00  0.00    +0.000 A 
ATOM     29  C   UNL     1       2.676   5.745  18.023  0.00  0.00    +0.000 A 
ATOM     30  C   UNL     1       2.405   4.485  18.560  0.00  0.00    +0.000 A 
ATOM     31  C   UNL     1       1.953   4.371  19.863  0.00  0.00    +0.000 A 
ATOM     32  C   UNL     1       1.783   5.514  20.639  0.00  0.00    +0.000 A 
ATOM     33  C   UNL     1       2.019   6.794  20.113  0.00  0.00    +0.000 A 
BRANCH  28  35
ATOM     34  C   UNL     1       1.402   8.974  17.720  0.00  0.00    +0.000 C 
ATOM     35  C   UNL     1       2.684   8.233  18.070  0.00  0.00    +0.000 C 
ENDBRANCH  28  35
ENDBRANCH  24  33
ENDBRANCH  23  25
ENDBRANCH  22  23
ENDBRANCH   1  22
TORSDOF 8
ENDMDL
MODEL 5
REMARK VINA RESULT:      -7.7      0.843      1.690
REMARK  Name = 
REMARK  11 active torsions:
REMARK  status: ('A' for Active; 'I' for Inactive)
REMARK    1  A    between atoms: C_1  and  C_2
REMARK    2  A    between atoms: C_2  and  C_3
REMARK    3  A    between atoms: C_8  and  N_9
REMARK    4  A    between atoms: C_10  and  C_12
REMARK    5  A    between atoms: C_12  and  S_13
REMARK    6  A    between atoms: S_13  and  C_14
REMARK    7  A    between atoms: C_19  and  C_20
REMARK    8  A    between atoms: C_22  and  N_23
REMARK    9  A    between atoms: N_24  and  C_25
REMARK   10  A    between atoms: C_29  and  O_30
REMARK   11  A    between atoms: O_30  and  C_31
REMARK                            x       y       z     vdW  Elec       q    Type
REMARK                         _______ _______ _______ _____ _____    ______ ____
ROOT
ATOM      1  C   UNL     1       0.405  11.300  20.470  0.00  0.00    +0.000 A 
ATOM      2  N   UNL     1       1.364  11.814  21.188  0.00  0.00    +0.000 NA
ATOM      3  C   UNL     1       1.773  13.065  20.843  0.00  0.00    +0.000 A 
ATOM      4  N   UNL     1       2.717  13.746  21.432  0.00  0.00    +0.000 NA
ATOM      5  N   UNL     1       2.848  15.015  20.732  0.00  0.00    +0.000 NA
ATOM      6  C   UNL     1       1.973  15.027  19.758  0.00  0.00    +0.000 A 
ATOM      7  C   UNL     1       1.805  16.167  18.808  0.00  0.00    +0.000 C 
ATOM      8  C   UNL     1       1.188  13.796  19.737  0.00  0.00    +0.000 A 
ATOM      9  C   UNL     1       0.152  13.288  19.054  0.00  0.00    +0.000 A 
ATOM     10  N   UNL     1      -0.286  11.973  19.419  0.00  0.00    +0.000 N 
ENDROOT
BRANCH  10  11
ATOM     11  C   UNL     1      -1.368  11.354  18.687  0.00  0.00    +0.000 A 
ATOM     12  C   UNL     1      -1.146  10.339  17.741  0.00  0.00    +0.000 A 
ATOM     13  C   UNL     1      -2.182   9.829  16.956  0.00  0.00    +0.000 A 
ATOM     14  C   UNL     1      -3.492  10.214  17.210  0.00  0.00    +0.000 A 
ATOM     15  C   UNL     1      -3.767  11.130  18.222  0.00  0.00    +0.000 A 
ATOM     16  C   UNL     1      -2.708  11.745  18.896  0.00  0.00    +0.000 A 
BRANCH  15  17
ATOM     17  O   UNL     1      -5.095  11.351  18.461  0.00  0.00    +0.000 OA
ATOM     18  C   UNL     1      -5.814  12.038  17.441  0.00  0.00    +0.000 C 
ENDBRANCH  15  17
ENDBRANCH  10  11
BRANCH   9  19
ATOM     19  N   UNL     1      -0.470  14.051  18.064  0.00  0.00    +0.000 N 
ATOM     20  H   UNL     1      -0.740  13.556  17.223  0.00  0.00    +0.000 HD
ATOM     21  H   UNL     1       0.064  14.888  17.836  0.00  0.00    +0.000 HD
ENDBRANCH   9  19
BRANCH   1  22
ATOM     22  S   UNL     1      -0.006   9.609  20.858  0.00  0.00    +0.000 S 
BRANCH  22  23
ATOM     23  C   UNL     1       1.559   8.788  21.163  0.00  0.00    +0.000 C 
BRANCH  23  25
ATOM     24  N   UNL     1       1.843   6.406  20.878  0.00  0.00    +0.000 N 
ATOM     25  C   UNL     1       1.724   7.618  20.222  0.00  0.00    +0.000 C 
ATOM     26  O   UNL     1       1.749   7.800  19.007  0.00  0.00    +0.000 OA
ATOM     27  H   UNL     1       2.002   6.452  21.876  0.00  0.00    +0.000 HD
BRANCH  24  33
ATOM     28  C   UNL     1       3.196   4.806  19.614  0.00  0.00    +0.000 A 
ATOM     29  C   UNL     1       3.321   3.526  19.037  0.00  0.00    +0.000 A 
ATOM     30  C   UNL     1       2.262   2.616  19.068  0.00  0.00    +0.000 A 
ATOM     31  C   UNL     1       1.078   2.953  19.700  0.00  0.00    +0.000 A 
ATOM     32  C   UNL     1       0.952   4.194  20.316  0.00  0.00    +0.000 A 
ATOM     33  C   UNL     1       1.989   5.139  20.274  0.00  0.00    +0.000 A 
BRANCH  28  35
ATOM     34  C   UNL     1       5.705   5.071  19.279  0.00  0.00    +0.000 C 
ATOM     35  C   UNL     1       4.356   5.755  19.433  0.00  0.00    +0.000 C 
ENDBRANCH  28  35
ENDBRANCH  24  33
ENDBRANCH  23  25
ENDBRANCH  22  23
ENDBRANCH   1  22
TORSDOF 8
ENDMDL
MODEL 6
REMARK VINA RESULT:      -7.6      1.198      2.052
REMARK  Name = 
REMARK  11 active torsions:
REMARK  status: ('A' for Active; 'I' for Inactive)
REMARK    1  A    between atoms: C_1  and  C_2
REMARK    2  A    between atoms: C_2  and  C_3
REMARK    3  A    between atoms: C_8  and  N_9
REMARK    4  A    between atoms: C_10  and  C_12
REMARK    5  A    between atoms: C_12  and  S_13
REMARK    6  A    between atoms: S_13  and  C_14
REMARK    7  A    between atoms: C_19  and  C_20
REMARK    8  A    between atoms: C_22  and  N_23
REMARK    9  A    between atoms: N_24  and  C_25
REMARK   10  A    between atoms: C_29  and  O_30
REMARK   11  A    between atoms: O_30  and  C_31
REMARK                            x       y       z     vdW  Elec       q    Type
REMARK                         _______ _______ _______ _____ _____    ______ ____
ROOT
ATOM      1  C   UNL     1       0.027  12.080  21.036  0.00  0.00    +0.000 A 
ATOM      2  N   UNL     1       0.992  12.677  21.676  0.00  0.00    +0.000 NA
ATOM      3  C   UNL     1       1.548  13.757  21.061  0.00  0.00    +0.000 A 
ATOM      4  N   UNL     1       2.523  14.483  21.534  0.00  0.00    +0.000 NA
ATOM      5  N   UNL     1       2.823  15.513  20.550  0.00  0.00    +0.000 NA
ATOM      6  C   UNL     1       2.011  15.348  19.537  0.00  0.00    +0.000 A 
ATOM      7  C   UNL     1       2.015  16.213  18.320  0.00  0.00    +0.000 C 
ATOM      8  C   UNL     1       1.104  14.225  19.763  0.00  0.00    +0.000 A 
ATOM      9  C   UNL     1       0.061  13.649  19.149  0.00  0.00    +0.000 A 
ATOM     10  N   UNL     1      -0.530  12.515  19.797  0.00  0.00    +0.000 N 
ENDROOT
BRANCH  10  11
ATOM     11  C   UNL     1      -1.628  11.823  19.160  0.00  0.00    +0.000 A 
ATOM     12  C   UNL     1      -1.426  10.717  18.317  0.00  0.00    +0.000 A 
ATOM     13  C   UNL     1      -2.480  10.128  17.615  0.00  0.00    +0.000 A 
ATOM     14  C   UNL     1      -3.785  10.536  17.861  0.00  0.00    +0.000 A 
ATOM     15  C   UNL     1      -4.037  11.551  18.781  0.00  0.00    +0.000 A 
ATOM     16  C   UNL     1      -2.964  12.233  19.361  0.00  0.00    +0.000 A 
BRANCH  15  17
ATOM     17  O   UNL     1      -5.360  11.794  19.029  0.00  0.00    +0.000 OA
ATOM     18  C   UNL     1      -6.286  11.277  18.078  0.00  0.00    +0.000 C 
ENDBRANCH  15  17
ENDBRANCH  10  11
BRANCH   9  19
ATOM     19  N   UNL     1      -0.422  14.180  17.952  0.00  0.00    +0.000 N 
ATOM     20  H   UNL     1      -1.025  13.576  17.406  0.00  0.00    +0.000 HD
ATOM     21  H   UNL     1       0.325  14.563  17.375  0.00  0.00    +0.000 HD
ENDBRANCH   9  19
BRANCH   1  22
ATOM     22  S   UNL     1      -0.578  10.588  21.802  0.00  0.00    +0.000 S 
BRANCH  22  23
ATOM     23  C   UNL     1       0.866   9.554  22.055  0.00  0.00    +0.000 C 
BRANCH  23  25
ATOM     24  N   UNL     1       1.897   7.782  20.776  0.00  0.00    +0.000 N 
ATOM     25  C   UNL     1       0.708   8.251  21.308  0.00  0.00    +0.000 C 
ATOM     26  O   UNL     1      -0.396   7.720  21.216  0.00  0.00    +0.000 OA
ATOM     27  H   UNL     1       2.671   8.433  20.771  0.00  0.00    +0.000 HD
BRANCH  24  33
ATOM     28  C   UNL     1       2.572   6.635  18.723  0.00  0.00    +0.000 A 
ATOM     29  C   UNL     1       2.754   5.425  18.024  0.00  0.00    +0.000 A 
ATOM     30  C   UNL     1       2.406   4.201  18.600  0.00  0.00    +0.000 A 
ATOM     31  C   UNL     1       1.902   4.162  19.889  0.00  0.00    +0.000 A 
ATOM     32  C   UNL     1       1.757   5.343  20.611  0.00  0.00    +0.000 A 
ATOM     33  C   UNL     1       2.071   6.588  20.045  0.00  0.00    +0.000 A 
BRANCH  28  35
ATOM     34  C   UNL     1       1.658   8.781  17.702  0.00  0.00    +0.000 C 
ATOM     35  C   UNL     1       2.875   7.910  17.973  0.00  0.00    +0.000 C 
ENDBRANCH  28  35
ENDBRANCH  24  33
ENDBRANCH  23  25
ENDBRANCH  22  23
ENDBRANCH   1  22
TORSDOF 8
ENDMDL
MODEL 7
REMARK VINA RESULT:      -7.5      2.437      4.989
REMARK  Name = 
REMARK  11 active torsions:
REMARK  status: ('A' for Active; 'I' for Inactive)
REMARK    1  A    between atoms: C_1  and  C_2
REMARK    2  A    between atoms: C_2  and  C_3
REMARK    3  A    between atoms: C_8  and  N_9
REMARK    4  A    between atoms: C_10  and  C_12
REMARK    5  A    between atoms: C_12  and  S_13
REMARK    6  A    between atoms: S_13  and  C_14
REMARK    7  A    between atoms: C_19  and  C_20
REMARK    8  A    between atoms: C_22  and  N_23
REMARK    9  A    between atoms: N_24  and  C_25
REMARK   10  A    between atoms: C_29  and  O_30
REMARK   11  A    between atoms: O_30  and  C_31
REMARK                            x       y       z     vdW  Elec       q    Type
REMARK                         _______ _______ _______ _____ _____    ______ ____
ROOT
ATOM      1  C   UNL     1       0.176  10.529  18.131  0.00  0.00    +0.000 A 
ATOM      2  N   UNL     1      -0.788   9.778  17.678  0.00  0.00    +0.000 NA
ATOM      3  C   UNL     1      -2.054  10.235  17.873  0.00  0.00    +0.000 A 
ATOM      4  N   UNL     1      -3.148   9.630  17.499  0.00  0.00    +0.000 NA
ATOM      5  N   UNL     1      -4.273  10.448  17.927  0.00  0.00    +0.000 NA
ATOM      6  C   UNL     1      -3.793  11.502  18.537  0.00  0.00    +0.000 A 
ATOM      7  C   UNL     1      -4.643  12.580  19.125  0.00  0.00    +0.000 C 
ATOM      8  C   UNL     1      -2.333  11.485  18.552  0.00  0.00    +0.000 A 
ATOM      9  C   UNL     1      -1.332  12.285  18.948  0.00  0.00    +0.000 A 
ATOM     10  N   UNL     1       0.004  11.809  18.737  0.00  0.00    +0.000 N 
ENDROOT
BRANCH  10  11
ATOM     11  C   UNL     1       1.123  12.607  19.185  0.00  0.00    +0.000 A 
ATOM     12  C   UNL     1       1.550  12.611  20.524  0.00  0.00    +0.000 A 
ATOM     13  C   UNL     1       2.555  13.471  20.970  0.00  0.00    +0.000 A 
ATOM     14  C   UNL     1       3.264  14.236  20.053  0.00  0.00    +0.000 A 
ATOM     15  C   UNL     1       2.951  14.170  18.698  0.00  0.00    +0.000 A 
ATOM     16  C   UNL     1       1.844  13.422  18.286  0.00  0.00    +0.000 A 
BRANCH  15  17
ATOM     17  O   UNL     1       3.783  14.876  17.874  0.00  0.00    +0.000 OA
ATOM     18  C   UNL     1       3.292  16.127  17.402  0.00  0.00    +0.000 C 
ENDBRANCH  15  17
ENDBRANCH  10  11
BRANCH   9  19
ATOM     19  N   UNL     1      -1.617  13.534  19.500  0.00  0.00    +0.000 N 
ATOM     20  H   UNL     1      -2.445  13.999  19.150  0.00  0.00    +0.000 HD
ATOM     21  H   UNL     1      -0.812  14.158  19.470  0.00  0.00    +0.000 HD
ENDBRANCH   9  19
BRANCH   1  22
ATOM     22  S   UNL     1       1.810   9.831  17.986  0.00  0.00    +0.000 S 
BRANCH  22  23
ATOM     23  C   UNL     1       1.851   8.451  19.131  0.00  0.00    +0.000 C 
BRANCH  23  25
ATOM     24  N   UNL     1       2.162   6.057  19.033  0.00  0.00    +0.000 N 
ATOM     25  C   UNL     1       2.553   7.272  18.499  0.00  0.00    +0.000 C 
ATOM     26  O   UNL     1       3.382   7.451  17.609  0.00  0.00    +0.000 OA
ATOM     27  H   UNL     1       1.623   6.098  19.887  0.00  0.00    +0.000 HD
BRANCH  24  33
ATOM     28  C   UNL     1       2.056   3.618  19.203  0.00  0.00    +0.000 A 
ATOM     29  C   UNL     1       2.525   2.360  18.776  0.00  0.00    +0.000 A 
ATOM     30  C   UNL     1       3.563   2.256  17.848  0.00  0.00    +0.000 A 
ATOM     31  C   UNL     1       4.127   3.399  17.309  0.00  0.00    +0.000 A 
ATOM     32  C   UNL     1       3.647   4.651  17.685  0.00  0.00    +0.000 A 
ATOM     33  C   UNL     1       2.625   4.784  18.638  0.00  0.00    +0.000 A 
BRANCH  28  35
ATOM     34  C   UNL     1       1.372   2.803  21.516  0.00  0.00    +0.000 C 
ATOM     35  C   UNL     1       1.008   3.625  20.289  0.00  0.00    +0.000 C 
ENDBRANCH  28  35
ENDBRANCH  24  33
ENDBRANCH  23  25
ENDBRANCH  22  23
ENDBRANCH   1  22
TORSDOF 8
ENDMDL
MODEL 8
REMARK VINA RESULT:      -7.5      2.505      5.304
REMARK  Name = 
REMARK  11 active torsions:
REMARK  status: ('A' for Active; 'I' for Inactive)
REMARK    1  A    between atoms: C_1  and  C_2
REMARK    2  A    between atoms: C_2  and  C_3
REMARK    3  A    between atoms: C_8  and  N_9
REMARK    4  A    between atoms: C_10  and  C_12
REMARK    5  A    between atoms: C_12  and  S_13
REMARK    6  A    between atoms: S_13  and  C_14
REMARK    7  A    between atoms: C_19  and  C_20
REMARK    8  A    between atoms: C_22  and  N_23
REMARK    9  A    between atoms: N_24  and  C_25
REMARK   10  A    between atoms: C_29  and  O_30
REMARK   11  A    between atoms: O_30  and  C_31
REMARK                            x       y       z     vdW  Elec       q    Type
REMARK                         _______ _______ _______ _____ _____    ______ ____
ROOT
ATOM      1  C   UNL     1      -0.114  10.433  18.227  0.00  0.00    +0.000 A 
ATOM      2  N   UNL     1      -1.099   9.704  17.783  0.00  0.00    +0.000 NA
ATOM      3  C   UNL     1      -2.348  10.226  17.922  0.00  0.00    +0.000 A 
ATOM      4  N   UNL     1      -3.458   9.653  17.547  0.00  0.00    +0.000 NA
ATOM      5  N   UNL     1      -4.556  10.540  17.906  0.00  0.00    +0.000 NA
ATOM      6  C   UNL     1      -4.043  11.600  18.479  0.00  0.00    +0.000 A 
ATOM      7  C   UNL     1      -4.857  12.742  18.992  0.00  0.00    +0.000 C 
ATOM      8  C   UNL     1      -2.586  11.519  18.534  0.00  0.00    +0.000 A 
ATOM      9  C   UNL     1      -1.560  12.292  18.919  0.00  0.00    +0.000 A 
ATOM     10  N   UNL     1      -0.243  11.747  18.767  0.00  0.00    +0.000 N 
ENDROOT
BRANCH  10  11
ATOM     11  C   UNL     1       0.900  12.515  19.207  0.00  0.00    +0.000 A 
ATOM     12  C   UNL     1       1.303  12.552  20.554  0.00  0.00    +0.000 A 
ATOM     13  C   UNL     1       2.334  13.386  20.988  0.00  0.00    +0.000 A 
ATOM     14  C   UNL     1       3.091  14.087  20.058  0.00  0.00    +0.000 A 
ATOM     15  C   UNL     1       2.799  13.983  18.700  0.00  0.00    +0.000 A 
ATOM     16  C   UNL     1       1.670  13.266  18.294  0.00  0.00    +0.000 A 
BRANCH  15  17
ATOM     17  O   UNL     1       3.675  14.624  17.867  0.00  0.00    +0.000 OA
ATOM     18  C   UNL     1       3.348  15.966  17.519  0.00  0.00    +0.000 C 
ENDBRANCH  15  17
ENDBRANCH  10  11
BRANCH   9  19
ATOM     19  N   UNL     1      -1.801  13.577  19.404  0.00  0.00    +0.000 N 
ATOM     20  H   UNL     1      -1.258  13.860  20.211  0.00  0.00    +0.000 HD
ATOM     21  H   UNL     1      -2.794  13.747  19.560  0.00  0.00    +0.000 HD
ENDBRANCH   9  19
BRANCH   1  22
ATOM     22  S   UNL     1       1.490   9.657  18.159  0.00  0.00    +0.000 S 
BRANCH  22  23
ATOM     23  C   UNL     1       1.720   8.881  19.760  0.00  0.00    +0.000 C 
BRANCH  23  25
ATOM     24  N   UNL     1       2.578   7.135  18.326  0.00  0.00    +0.000 N 
ATOM     25  C   UNL     1       2.078   7.424  19.584  0.00  0.00    +0.000 C 
ATOM     26  O   UNL     1       1.908   6.630  20.506  0.00  0.00    +0.000 OA
ATOM     27  H   UNL     1       2.467   7.856  17.626  0.00  0.00    +0.000 HD
BRANCH  24  33
ATOM     28  C   UNL     1       4.334   5.713  17.389  0.00  0.00    +0.000 A 
ATOM     29  C   UNL     1       4.748   4.437  16.958  0.00  0.00    +0.000 A 
ATOM     30  C   UNL     1       3.863   3.356  16.957  0.00  0.00    +0.000 A 
ATOM     31  C   UNL     1       2.568   3.521  17.413  0.00  0.00    +0.000 A 
ATOM     32  C   UNL     1       2.154   4.764  17.886  0.00  0.00    +0.000 A 
ATOM     33  C   UNL     1       3.014   5.873  17.870  0.00  0.00    +0.000 A 
BRANCH  28  35
ATOM     34  C   UNL     1       6.775   6.381  17.107  0.00  0.00    +0.000 C 
ATOM     35  C   UNL     1       5.331   6.838  17.250  0.00  0.00    +0.000 C 
ENDBRANCH  28  35
ENDBRANCH  24  33
ENDBRANCH  23  25
ENDBRANCH  22  23
ENDBRANCH   1  22
TORSDOF 8
ENDMDL
MODEL 9
REMARK VINA RESULT:      -7.4      2.616      5.084
REMARK  Name = 
REMARK  11 active torsions:
REMARK  status: ('A' for Active; 'I' for Inactive)
REMARK    1  A    between atoms: C_1  and  C_2
REMARK    2  A    between atoms: C_2  and  C_3
REMARK    3  A    between atoms: C_8  and  N_9
REMARK    4  A    between atoms: C_10  and  C_12
REMARK    5  A    between atoms: C_12  and  S_13
REMARK    6  A    between atoms: S_13  and  C_14
REMARK    7  A    between atoms: C_19  and  C_20
REMARK    8  A    between atoms: C_22  and  N_23
REMARK    9  A    between atoms: N_24  and  C_25
REMARK   10  A    between atoms: C_29  and  O_30
REMARK   11  A    between atoms: O_30  and  C_31
REMARK                            x       y       z     vdW  Elec       q    Type
REMARK                         _______ _______ _______ _____ _____    ______ ____
ROOT
ATOM      1  C   UNL     1      -0.740  10.791  19.239  0.00  0.00    +0.000 A 
ATOM      2  N   UNL     1      -0.868  10.182  18.094  0.00  0.00    +0.000 NA
ATOM      3  C   UNL     1      -2.011  10.434  17.400  0.00  0.00    +0.000 A 
ATOM      4  N   UNL     1      -2.328   9.922  16.243  0.00  0.00    +0.000 NA
ATOM      5  N   UNL     1      -3.641  10.434  15.878  0.00  0.00    +0.000 NA
ATOM      6  C   UNL     1      -4.043  11.227  16.838  0.00  0.00    +0.000 A 
ATOM      7  C   UNL     1      -5.352  11.944  16.830  0.00  0.00    +0.000 C 
ATOM      8  C   UNL     1      -3.042  11.323  17.898  0.00  0.00    +0.000 A 
ATOM      9  C   UNL     1      -2.866  12.001  19.042  0.00  0.00    +0.000 A 
ATOM     10  N   UNL     1      -1.659  11.743  19.771  0.00  0.00    +0.000 N 
ENDROOT
BRANCH  10  11
ATOM     11  C   UNL     1      -1.434  12.409  21.034  0.00  0.00    +0.000 A 
ATOM     12  C   UNL     1      -2.069  11.999  22.219  0.00  0.00    +0.000 A 
ATOM     13  C   UNL     1      -1.937  12.718  23.409  0.00  0.00    +0.000 A 
ATOM     14  C   UNL     1      -1.041  13.777  23.477  0.00  0.00    +0.000 A 
ATOM     15  C   UNL     1      -0.302  14.140  22.354  0.00  0.00    +0.000 A 
ATOM     16  C   UNL     1      -0.556  13.509  21.133  0.00  0.00    +0.000 A 
BRANCH  15  17
ATOM     17  O   UNL     1       0.630  15.119  22.564  0.00  0.00    +0.000 OA
ATOM     18  C   UNL     1       1.849  14.997  21.837  0.00  0.00    +0.000 C 
ENDBRANCH  15  17
ENDBRANCH  10  11
BRANCH   9  19
ATOM     19  N   UNL     1      -3.818  12.935  19.451  0.00  0.00    +0.000 N 
ATOM     20  H   UNL     1      -3.495  13.652  20.089  0.00  0.00    +0.000 HD
ATOM     21  H   UNL     1      -4.662  12.489  19.807  0.00  0.00    +0.000 HD
ENDBRANCH   9  19
BRANCH   1  22
ATOM     22  S   UNL     1       0.700  10.327  20.183  0.00  0.00    +0.000 S 
BRANCH  22  23
ATOM     23  C   UNL     1       1.535   9.075  19.208  0.00  0.00    +0.000 C 
BRANCH  23  25
ATOM     24  N   UNL     1       2.123   6.732  19.269  0.00  0.00    +0.000 N 
ATOM     25  C   UNL     1       1.717   7.817  20.025  0.00  0.00    +0.000 C 
ATOM     26  O   UNL     1       1.502   7.829  21.235  0.00  0.00    +0.000 OA
ATOM     27  H   UNL     1       2.063   6.840  18.265  0.00  0.00    +0.000 HD
BRANCH  24  33
ATOM     28  C   UNL     1       3.523   4.725  19.279  0.00  0.00    +0.000 A 
ATOM     29  C   UNL     1       3.777   3.437  19.791  0.00  0.00    +0.000 A 
ATOM     30  C   UNL     1       2.909   2.843  20.709  0.00  0.00    +0.000 A 
ATOM     31  C   UNL     1       1.795   3.533  21.154  0.00  0.00    +0.000 A 
ATOM     32  C   UNL     1       1.552   4.824  20.695  0.00  0.00    +0.000 A 
ATOM     33  C   UNL     1       2.392   5.432  19.749  0.00  0.00    +0.000 A 
BRANCH  28  35
ATOM     34  C   UNL     1       4.616   4.301  17.019  0.00  0.00    +0.000 C 
ATOM     35  C   UNL     1       4.461   5.234  18.211  0.00  0.00    +0.000 C 
ENDBRANCH  28  35
ENDBRANCH  24  33
ENDBRANCH  23  25
ENDBRANCH  22  23
ENDBRANCH   1  22
TORSDOF 8
ENDMDL
