MODEL 1
REMARK VINA RESULT:      -5.6      0.000      0.000
REMARK  Name = 
REMARK  10 active torsions:
REMARK  status: ('A' for Active; 'I' for Inactive)
REMARK    1  A    between atoms: C_1  and  C_2
REMARK    2  A    between atoms: C_2  and  O_3
REMARK    3  A    between atoms: O_3  and  C_4
REMARK    4  A    between atoms: C_4  and  C_5
REMARK    5  A    between atoms: C_5  and  C_6
REMARK    6  A    between atoms: C_6  and  C_7
REMARK    7  A    between atoms: N_9  and  C_10
REMARK    8  A    between atoms: N_9  and  C_11
REMARK    9  A    between atoms: C_11  and  C_12
REMARK   10  A    between atoms: C_15  and  C_16
REMARK                            x       y       z     vdW  Elec       q    Type
REMARK                         _______ _______ _______ _____ _____    ______ ____
ROOT
ATOM      1  C   UNL     1       3.273   3.442  17.998  0.00  0.00    +0.000 C 
ATOM      2  O   UNL     1       3.744   2.306  17.965  0.00  0.00    +0.000 OA
ATOM      3  N   UNL     1       4.077   4.570  18.144  0.00  0.00    +0.000 N 
ATOM      4  C   UNL     1       3.587   5.942  18.202  0.00  0.00    +0.000 C 
ENDROOT
BRANCH   1   5
ATOM      5  C   UNL     1       1.777   3.682  17.906  0.00  0.00    +0.000 C 
BRANCH   5   6
ATOM      6  C   UNL     1       0.953   2.544  18.511  0.00  0.00    +0.000 C 
BRANCH   6   7
ATOM      7  C   UNL     1       0.709   2.768  19.998  0.00  0.00    +0.000 C 
BRANCH   7   8
ATOM      8  O   UNL     1       1.854   2.338  20.733  0.00  0.00    +0.000 OA
BRANCH   8  10
ATOM      9  C   UNL     1       2.181   4.636  21.293  0.00  0.00    +0.000 C 
ATOM     10  C   UNL     1       2.148   3.214  21.817  0.00  0.00    +0.000 C 
ENDBRANCH   8  10
ENDBRANCH   7   8
ENDBRANCH   6   7
ENDBRANCH   5   6
ENDBRANCH   1   5
BRANCH   3  11
ATOM     11  C   UNL     1       5.523   4.377  18.256  0.00  0.00    +0.000 C 
BRANCH  11  12
ATOM     12  C   UNL     1       6.214   4.706  16.972  0.00  0.00    +0.000 A 
ATOM     13  C   UNL     1       7.181   5.662  16.731  0.00  0.00    +0.000 A 
ATOM     14  N   UNL     1       7.625   5.756  15.426  0.00  0.00    +0.000 NA
ATOM     15  C   UNL     1       7.003   4.868  14.683  0.00  0.00    +0.000 A 
ATOM     16  C   UNL     1       7.269   4.650  13.234  0.00  0.00    +0.000 C 
ATOM     17  S   UNL     1       5.819   3.922  15.497  0.00  0.00    +0.000 S 
ENDBRANCH  11  12
ENDBRANCH   3  11
TORSDOF 7
ENDMDL
MODEL 2
REMARK VINA RESULT:      -5.5      2.830      6.728
REMARK  Name = 
REMARK  10 active torsions:
REMARK  status: ('A' for Active; 'I' for Inactive)
REMARK    1  A    between atoms: C_1  and  C_2
REMARK    2  A    between atoms: C_2  and  O_3
REMARK    3  A    between atoms: O_3  and  C_4
REMARK    4  A    between atoms: C_4  and  C_5
REMARK    5  A    between atoms: C_5  and  C_6
REMARK    6  A    between atoms: C_6  and  C_7
REMARK    7  A    between atoms: N_9  and  C_10
REMARK    8  A    between atoms: N_9  and  C_11
REMARK    9  A    between atoms: C_11  and  C_12
REMARK   10  A    between atoms: C_15  and  C_16
REMARK                            x       y       z     vdW  Elec       q    Type
REMARK                         _______ _______ _______ _____ _____    ______ ____
ROOT
ATOM      1  C   UNL     1       5.474   6.257  16.806  0.00  0.00    +0.000 C 
ATOM      2  O   UNL     1       4.824   6.846  15.944  0.00  0.00    +0.000 OA
ATOM      3  N   UNL     1       4.988   6.069  18.098  0.00  0.00    +0.000 N 
ATOM      4  C   UNL     1       5.708   5.390  19.169  0.00  0.00    +0.000 C 
ENDROOT
BRANCH   1   5
ATOM      5  C   UNL     1       6.863   5.716  16.518  0.00  0.00    +0.000 C 
BRANCH   5   6
ATOM      6  C   UNL     1       6.840   4.409  15.722  0.00  0.00    +0.000 C 
BRANCH   6   7
ATOM      7  C   UNL     1       6.876   4.674  14.222  0.00  0.00    +0.000 C 
BRANCH   7   8
ATOM      8  O   UNL     1       5.982   3.776  13.565  0.00  0.00    +0.000 OA
BRANCH   8  10
ATOM      9  C   UNL     1       5.489   2.422  11.661  0.00  0.00    +0.000 C 
ATOM     10  C   UNL     1       6.416   3.471  12.242  0.00  0.00    +0.000 C 
ENDBRANCH   8  10
ENDBRANCH   7   8
ENDBRANCH   6   7
ENDBRANCH   5   6
ENDBRANCH   1   5
BRANCH   3  11
ATOM     11  C   UNL     1       3.661   6.594  18.418  0.00  0.00    +0.000 C 
BRANCH  11  12
ATOM     12  C   UNL     1       2.738   5.503  18.853  0.00  0.00    +0.000 A 
ATOM     13  C   UNL     1       2.048   5.377  20.042  0.00  0.00    +0.000 A 
ATOM     14  N   UNL     1       1.278   4.236  20.176  0.00  0.00    +0.000 NA
ATOM     15  C   UNL     1       1.377   3.506  19.087  0.00  0.00    +0.000 A 
ATOM     16  C   UNL     1       0.641   2.233  18.859  0.00  0.00    +0.000 C 
ATOM     17  S   UNL     1       2.439   4.119  17.881  0.00  0.00    +0.000 S 
ENDBRANCH  11  12
ENDBRANCH   3  11
TORSDOF 7
ENDMDL
MODEL 3
REMARK VINA RESULT:      -5.4      4.465      7.341
REMARK  Name = 
REMARK  10 active torsions:
REMARK  status: ('A' for Active; 'I' for Inactive)
REMARK    1  A    between atoms: C_1  and  C_2
REMARK    2  A    between atoms: C_2  and  O_3
REMARK    3  A    between atoms: O_3  and  C_4
REMARK    4  A    between atoms: C_4  and  C_5
REMARK    5  A    between atoms: C_5  and  C_6
REMARK    6  A    between atoms: C_6  and  C_7
REMARK    7  A    between atoms: N_9  and  C_10
REMARK    8  A    between atoms: N_9  and  C_11
REMARK    9  A    between atoms: C_11  and  C_12
REMARK   10  A    between atoms: C_15  and  C_16
REMARK                            x       y       z     vdW  Elec       q    Type
REMARK                         _______ _______ _______ _____ _____    ______ ____
ROOT
ATOM      1  C   UNL     1       7.423   6.648  18.051  0.00  0.00    +0.000 C 
ATOM      2  O   UNL     1       8.075   6.131  18.957  0.00  0.00    +0.000 OA
ATOM      3  N   UNL     1       6.409   5.962  17.388  0.00  0.00    +0.000 N 
ATOM      4  C   UNL     1       5.605   6.508  16.300  0.00  0.00    +0.000 C 
ENDROOT
BRANCH   1   5
ATOM      5  C   UNL     1       7.703   8.065  17.582  0.00  0.00    +0.000 C 
BRANCH   5   6
ATOM      6  C   UNL     1       8.589   8.849  18.553  0.00  0.00    +0.000 C 
BRANCH   6   7
ATOM      7  C   UNL     1       8.809  10.277  18.069  0.00  0.00    +0.000 C 
BRANCH   7   8
ATOM      8  O   UNL     1       9.788  10.907  18.895  0.00  0.00    +0.000 OA
BRANCH   8  10
ATOM      9  C   UNL     1      10.010  12.040  20.985  0.00  0.00    +0.000 C 
ATOM     10  C   UNL     1       9.451  10.822  20.276  0.00  0.00    +0.000 C 
ENDBRANCH   8  10
ENDBRANCH   7   8
ENDBRANCH   6   7
ENDBRANCH   5   6
ENDBRANCH   1   5
BRANCH   3  11
ATOM     11  C   UNL     1       6.123   4.587  17.799  0.00  0.00    +0.000 C 
BRANCH  11  12
ATOM     12  C   UNL     1       4.776   4.481  18.437  0.00  0.00    +0.000 A 
ATOM     13  C   UNL     1       4.260   5.206  19.493  0.00  0.00    +0.000 A 
ATOM     14  N   UNL     1       2.979   4.869  19.888  0.00  0.00    +0.000 NA
ATOM     15  C   UNL     1       2.522   3.900  19.126  0.00  0.00    +0.000 A 
ATOM     16  C   UNL     1       1.155   3.321  19.231  0.00  0.00    +0.000 C 
ATOM     17  S   UNL     1       3.624   3.307  17.945  0.00  0.00    +0.000 S 
ENDBRANCH  11  12
ENDBRANCH   3  11
TORSDOF 7
ENDMDL
MODEL 4
REMARK VINA RESULT:      -5.3      2.908      6.860
REMARK  Name = 
REMARK  10 active torsions:
REMARK  status: ('A' for Active; 'I' for Inactive)
REMARK    1  A    between atoms: C_1  and  C_2
REMARK    2  A    between atoms: C_2  and  O_3
REMARK    3  A    between atoms: O_3  and  C_4
REMARK    4  A    between atoms: C_4  and  C_5
REMARK    5  A    between atoms: C_5  and  C_6
REMARK    6  A    between atoms: C_6  and  C_7
REMARK    7  A    between atoms: N_9  and  C_10
REMARK    8  A    between atoms: N_9  and  C_11
REMARK    9  A    between atoms: C_11  and  C_12
REMARK   10  A    between atoms: C_15  and  C_16
REMARK                            x       y       z     vdW  Elec       q    Type
REMARK                         _______ _______ _______ _____ _____    ______ ____
ROOT
ATOM      1  C   UNL     1       6.451   5.052  16.444  0.00  0.00    +0.000 C 
ATOM      2  O   UNL     1       7.293   4.309  16.945  0.00  0.00    +0.000 OA
ATOM      3  N   UNL     1       5.507   5.724  17.217  0.00  0.00    +0.000 N 
ATOM      4  C   UNL     1       4.475   6.610  16.689  0.00  0.00    +0.000 C 
ENDROOT
BRANCH   1   5
ATOM      5  C   UNL     1       6.375   5.264  14.942  0.00  0.00    +0.000 C 
BRANCH   5   6
ATOM      6  C   UNL     1       5.932   4.009  14.186  0.00  0.00    +0.000 C 
BRANCH   6   7
ATOM      7  C   UNL     1       6.679   3.867  12.866  0.00  0.00    +0.000 C 
BRANCH   7   8
ATOM      8  O   UNL     1       5.752   3.528  11.836  0.00  0.00    +0.000 OA
BRANCH   8  10
ATOM      9  C   UNL     1       6.734   1.537  10.954  0.00  0.00    +0.000 C 
ATOM     10  C   UNL     1       5.569   2.119  11.730  0.00  0.00    +0.000 C 
ENDBRANCH   8  10
ENDBRANCH   7   8
ENDBRANCH   6   7
ENDBRANCH   5   6
ENDBRANCH   1   5
BRANCH   3  11
ATOM     11  C   UNL     1       5.537   5.530  18.666  0.00  0.00    +0.000 C 
BRANCH  11  12
ATOM     12  C   UNL     1       4.470   4.581  19.107  0.00  0.00    +0.000 A 
ATOM     13  C   UNL     1       4.403   3.213  18.933  0.00  0.00    +0.000 A 
ATOM     14  N   UNL     1       3.272   2.595  19.432  0.00  0.00    +0.000 NA
ATOM     15  C   UNL     1       2.491   3.491  19.993  0.00  0.00    +0.000 A 
ATOM     16  C   UNL     1       1.209   3.176  20.682  0.00  0.00    +0.000 C 
ATOM     17  S   UNL     1       3.042   5.117  19.895  0.00  0.00    +0.000 S 
ENDBRANCH  11  12
ENDBRANCH   3  11
TORSDOF 7
ENDMDL
MODEL 5
REMARK VINA RESULT:      -5.3      2.967      6.773
REMARK  Name = 
REMARK  10 active torsions:
REMARK  status: ('A' for Active; 'I' for Inactive)
REMARK    1  A    between atoms: C_1  and  C_2
REMARK    2  A    between atoms: C_2  and  O_3
REMARK    3  A    between atoms: O_3  and  C_4
REMARK    4  A    between atoms: C_4  and  C_5
REMARK    5  A    between atoms: C_5  and  C_6
REMARK    6  A    between atoms: C_6  and  C_7
REMARK    7  A    between atoms: N_9  and  C_10
REMARK    8  A    between atoms: N_9  and  C_11
REMARK    9  A    between atoms: C_11  and  C_12
REMARK   10  A    between atoms: C_15  and  C_16
REMARK                            x       y       z     vdW  Elec       q    Type
REMARK                         _______ _______ _______ _____ _____    ______ ____
ROOT
ATOM      1  C   UNL     1       5.375   4.478  16.463  0.00  0.00    +0.000 C 
ATOM      2  O   UNL     1       4.169   4.696  16.361  0.00  0.00    +0.000 OA
ATOM      3  N   UNL     1       6.090   4.806  17.612  0.00  0.00    +0.000 N 
ATOM      4  C   UNL     1       7.520   4.585  17.797  0.00  0.00    +0.000 C 
ENDROOT
BRANCH   1   5
ATOM      5  C   UNL     1       6.166   3.856  15.326  0.00  0.00    +0.000 C 
BRANCH   5   6
ATOM      6  C   UNL     1       5.550   4.128  13.952  0.00  0.00    +0.000 C 
BRANCH   6   7
ATOM      7  C   UNL     1       6.390   3.518  12.838  0.00  0.00    +0.000 C 
BRANCH   7   8
ATOM      8  O   UNL     1       5.527   2.907  11.879  0.00  0.00    +0.000 OA
BRANCH   8  10
ATOM      9  C   UNL     1       3.431   2.934  10.735  0.00  0.00    +0.000 C 
ATOM     10  C   UNL     1       4.416   3.739  11.561  0.00  0.00    +0.000 C 
ENDBRANCH   8  10
ENDBRANCH   7   8
ENDBRANCH   6   7
ENDBRANCH   5   6
ENDBRANCH   1   5
BRANCH   3  11
ATOM     11  C   UNL     1       5.365   5.425  18.721  0.00  0.00    +0.000 C 
BRANCH  11  12
ATOM     12  C   UNL     1       4.432   4.454  19.368  0.00  0.00    +0.000 A 
ATOM     13  C   UNL     1       4.567   3.087  19.509  0.00  0.00    +0.000 A 
ATOM     14  N   UNL     1       3.522   2.438  20.137  0.00  0.00    +0.000 NA
ATOM     15  C   UNL     1       2.602   3.312  20.481  0.00  0.00    +0.000 A 
ATOM     16  C   UNL     1       1.358   2.975  21.226  0.00  0.00    +0.000 C 
ATOM     17  S   UNL     1       2.917   4.937  20.016  0.00  0.00    +0.000 S 
ENDBRANCH  11  12
ENDBRANCH   3  11
TORSDOF 7
ENDMDL
MODEL 6
REMARK VINA RESULT:      -5.3      4.616      7.771
REMARK  Name = 
REMARK  10 active torsions:
REMARK  status: ('A' for Active; 'I' for Inactive)
REMARK    1  A    between atoms: C_1  and  C_2
REMARK    2  A    between atoms: C_2  and  O_3
REMARK    3  A    between atoms: O_3  and  C_4
REMARK    4  A    between atoms: C_4  and  C_5
REMARK    5  A    between atoms: C_5  and  C_6
REMARK    6  A    between atoms: C_6  and  C_7
REMARK    7  A    between atoms: N_9  and  C_10
REMARK    8  A    between atoms: N_9  and  C_11
REMARK    9  A    between atoms: C_11  and  C_12
REMARK   10  A    between atoms: C_15  and  C_16
REMARK                            x       y       z     vdW  Elec       q    Type
REMARK                         _______ _______ _______ _____ _____    ______ ____
ROOT
ATOM      1  C   UNL     1       7.322   6.990  17.642  0.00  0.00    +0.000 C 
ATOM      2  O   UNL     1       6.828   7.228  16.541  0.00  0.00    +0.000 OA
ATOM      3  N   UNL     1       7.019   5.831  18.353  0.00  0.00    +0.000 N 
ATOM      4  C   UNL     1       7.559   5.492  19.665  0.00  0.00    +0.000 C 
ENDROOT
BRANCH   1   5
ATOM      5  C   UNL     1       8.280   7.963  18.307  0.00  0.00    +0.000 C 
BRANCH   5   6
ATOM      6  C   UNL     1       8.163   9.385  17.754  0.00  0.00    +0.000 C 
BRANCH   6   7
ATOM      7  C   UNL     1       9.012  10.362  18.559  0.00  0.00    +0.000 C 
BRANCH   7   8
ATOM      8  O   UNL     1       8.792  11.685  18.073  0.00  0.00    +0.000 OA
BRANCH   8  10
ATOM      9  C   UNL     1      11.175  11.680  17.918  0.00  0.00    +0.000 C 
ATOM     10  C   UNL     1       9.945  12.507  18.233  0.00  0.00    +0.000 C 
ENDBRANCH   8  10
ENDBRANCH   7   8
ENDBRANCH   6   7
ENDBRANCH   5   6
ENDBRANCH   1   5
BRANCH   3  11
ATOM     11  C   UNL     1       6.084   4.879  17.753  0.00  0.00    +0.000 C 
BRANCH  11  12
ATOM     12  C   UNL     1       4.708   5.048  18.309  0.00  0.00    +0.000 A 
ATOM     13  C   UNL     1       3.808   6.073  18.096  0.00  0.00    +0.000 A 
ATOM     14  N   UNL     1       2.606   5.972  18.769  0.00  0.00    +0.000 NA
ATOM     15  C   UNL     1       2.590   4.868  19.483  0.00  0.00    +0.000 A 
ATOM     16  C   UNL     1       1.431   4.407  20.296  0.00  0.00    +0.000 C 
ATOM     17  S   UNL     1       4.033   3.933  19.427  0.00  0.00    +0.000 S 
ENDBRANCH  11  12
ENDBRANCH   3  11
TORSDOF 7
ENDMDL
MODEL 7
REMARK VINA RESULT:      -5.3      1.261      1.462
REMARK  Name = 
REMARK  10 active torsions:
REMARK  status: ('A' for Active; 'I' for Inactive)
REMARK    1  A    between atoms: C_1  and  C_2
REMARK    2  A    between atoms: C_2  and  O_3
REMARK    3  A    between atoms: O_3  and  C_4
REMARK    4  A    between atoms: C_4  and  C_5
REMARK    5  A    between atoms: C_5  and  C_6
REMARK    6  A    between atoms: C_6  and  C_7
REMARK    7  A    between atoms: N_9  and  C_10
REMARK    8  A    between atoms: N_9  and  C_11
REMARK    9  A    between atoms: C_11  and  C_12
REMARK   10  A    between atoms: C_15  and  C_16
REMARK                            x       y       z     vdW  Elec       q    Type
REMARK                         _______ _______ _______ _____ _____    ______ ____
ROOT
ATOM      1  C   UNL     1       4.207   2.793  19.244  0.00  0.00    +0.000 C 
ATOM      2  O   UNL     1       5.107   2.376  19.972  0.00  0.00    +0.000 OA
ATOM      3  N   UNL     1       4.348   3.953  18.487  0.00  0.00    +0.000 N 
ATOM      4  C   UNL     1       3.321   4.509  17.613  0.00  0.00    +0.000 C 
ENDROOT
BRANCH   1   5
ATOM      5  C   UNL     1       2.872   2.076  19.146  0.00  0.00    +0.000 C 
BRANCH   5   6
ATOM      6  C   UNL     1       1.915   2.442  20.282  0.00  0.00    +0.000 C 
BRANCH   6   7
ATOM      7  C   UNL     1       0.723   3.239  19.766  0.00  0.00    +0.000 C 
BRANCH   7   8
ATOM      8  O   UNL     1       0.585   4.431  20.537  0.00  0.00    +0.000 OA
BRANCH   8  10
ATOM      9  C   UNL     1       1.826   6.472  20.569  0.00  0.00    +0.000 C 
ATOM     10  C   UNL     1       1.850   4.989  20.882  0.00  0.00    +0.000 C 
ENDBRANCH   8  10
ENDBRANCH   7   8
ENDBRANCH   6   7
ENDBRANCH   5   6
ENDBRANCH   1   5
BRANCH   3  11
ATOM     11  C   UNL     1       5.613   4.682  18.571  0.00  0.00    +0.000 C 
BRANCH  11  12
ATOM     12  C   UNL     1       6.211   4.888  17.217  0.00  0.00    +0.000 A 
ATOM     13  C   UNL     1       7.091   5.868  16.800  0.00  0.00    +0.000 A 
ATOM     14  N   UNL     1       7.458   5.823  15.469  0.00  0.00    +0.000 NA
ATOM     15  C   UNL     1       6.866   4.806  14.881  0.00  0.00    +0.000 A 
ATOM     16  C   UNL     1       7.071   4.421  13.458  0.00  0.00    +0.000 C 
ATOM     17  S   UNL     1       5.799   3.896  15.878  0.00  0.00    +0.000 S 
ENDBRANCH  11  12
ENDBRANCH   3  11
TORSDOF 7
ENDMDL
MODEL 8
REMARK VINA RESULT:      -5.3      4.325      7.421
REMARK  Name = 
REMARK  10 active torsions:
REMARK  status: ('A' for Active; 'I' for Inactive)
REMARK    1  A    between atoms: C_1  and  C_2
REMARK    2  A    between atoms: C_2  and  O_3
REMARK    3  A    between atoms: O_3  and  C_4
REMARK    4  A    between atoms: C_4  and  C_5
REMARK    5  A    between atoms: C_5  and  C_6
REMARK    6  A    between atoms: C_6  and  C_7
REMARK    7  A    between atoms: N_9  and  C_10
REMARK    8  A    between atoms: N_9  and  C_11
REMARK    9  A    between atoms: C_11  and  C_12
REMARK   10  A    between atoms: C_15  and  C_16
REMARK                            x       y       z     vdW  Elec       q    Type
REMARK                         _______ _______ _______ _____ _____    ______ ____
ROOT
ATOM      1  C   UNL     1       7.238   6.361  17.815  0.00  0.00    +0.000 C 
ATOM      2  O   UNL     1       7.883   5.715  18.639  0.00  0.00    +0.000 OA
ATOM      3  N   UNL     1       6.134   5.824  17.157  0.00  0.00    +0.000 N 
ATOM      4  C   UNL     1       5.332   6.528  16.162  0.00  0.00    +0.000 C 
ENDROOT
BRANCH   1   5
ATOM      5  C   UNL     1       7.623   7.782  17.445  0.00  0.00    +0.000 C 
BRANCH   5   6
ATOM      6  C   UNL     1       8.544   8.437  18.477  0.00  0.00    +0.000 C 
BRANCH   6   7
ATOM      7  C   UNL     1       8.636   9.942  18.260  0.00  0.00    +0.000 C 
BRANCH   7   8
ATOM      8  O   UNL     1       9.644  10.480  19.115  0.00  0.00    +0.000 OA
BRANCH   8  10
ATOM      9  C   UNL     1       9.064  12.417  17.845  0.00  0.00    +0.000 C 
ATOM     10  C   UNL     1       9.588  11.902  19.171  0.00  0.00    +0.000 C 
ENDBRANCH   8  10
ENDBRANCH   7   8
ENDBRANCH   6   7
ENDBRANCH   5   6
ENDBRANCH   1   5
BRANCH   3  11
ATOM     11  C   UNL     1       5.745   4.450  17.472  0.00  0.00    +0.000 C 
BRANCH  11  12
ATOM     12  C   UNL     1       4.376   4.399  18.071  0.00  0.00    +0.000 A 
ATOM     13  C   UNL     1       3.230   3.824  17.560  0.00  0.00    +0.000 A 
ATOM     14  N   UNL     1       2.092   3.954  18.334  0.00  0.00    +0.000 NA
ATOM     15  C   UNL     1       2.379   4.618  19.432  0.00  0.00    +0.000 A 
ATOM     16  C   UNL     1       1.405   4.899  20.523  0.00  0.00    +0.000 C 
ATOM     17  S   UNL     1       4.004   5.166  19.561  0.00  0.00    +0.000 S 
ENDBRANCH  11  12
ENDBRANCH   3  11
TORSDOF 7
ENDMDL
MODEL 9
REMARK VINA RESULT:      -5.3      4.219      7.371
REMARK  Name = 
REMARK  10 active torsions:
REMARK  status: ('A' for Active; 'I' for Inactive)
REMARK    1  A    between atoms: C_1  and  C_2
REMARK    2  A    between atoms: C_2  and  O_3
REMARK    3  A    between atoms: O_3  and  C_4
REMARK    4  A    between atoms: C_4  and  C_5
REMARK    5  A    between atoms: C_5  and  C_6
REMARK    6  A    between atoms: C_6  and  C_7
REMARK    7  A    between atoms: N_9  and  C_10
REMARK    8  A    between atoms: N_9  and  C_11
REMARK    9  A    between atoms: C_11  and  C_12
REMARK   10  A    between atoms: C_15  and  C_16
REMARK                            x       y       z     vdW  Elec       q    Type
REMARK                         _______ _______ _______ _____ _____    ______ ____
ROOT
ATOM      1  C   UNL     1       6.328   6.552  17.246  0.00  0.00    +0.000 C 
ATOM      2  O   UNL     1       6.002   6.921  16.119  0.00  0.00    +0.000 OA
ATOM      3  N   UNL     1       5.554   5.658  17.983  0.00  0.00    +0.000 N 
ATOM      4  C   UNL     1       5.875   5.187  19.326  0.00  0.00    +0.000 C 
ENDROOT
BRANCH   1   5
ATOM      5  C   UNL     1       7.589   7.069  17.915  0.00  0.00    +0.000 C 
BRANCH   5   6
ATOM      6  C   UNL     1       7.867   8.541  17.603  0.00  0.00    +0.000 C 
BRANCH   6   7
ATOM      7  C   UNL     1       8.741   9.178  18.676  0.00  0.00    +0.000 C 
BRANCH   7   8
ATOM      8  O   UNL     1       8.820  10.584  18.445  0.00  0.00    +0.000 OA
BRANCH   8  10
ATOM      9  C   UNL     1       9.857  11.361  20.451  0.00  0.00    +0.000 C 
ATOM     10  C   UNL     1      10.026  11.139  18.961  0.00  0.00    +0.000 C 
ENDBRANCH   8  10
ENDBRANCH   7   8
ENDBRANCH   6   7
ENDBRANCH   5   6
ENDBRANCH   1   5
BRANCH   3  11
ATOM     11  C   UNL     1       4.321   5.153  17.379  0.00  0.00    +0.000 C 
BRANCH  11  12
ATOM     12  C   UNL     1       3.611   4.216  18.301  0.00  0.00    +0.000 A 
ATOM     13  C   UNL     1       3.659   2.837  18.337  0.00  0.00    +0.000 A 
ATOM     14  N   UNL     1       2.868   2.230  19.294  0.00  0.00    +0.000 NA
ATOM     15  C   UNL     1       2.232   3.147  19.988  0.00  0.00    +0.000 A 
ATOM     16  C   UNL     1       1.331   2.858  21.137  0.00  0.00    +0.000 C 
ATOM     17  S   UNL     1       2.502   4.771  19.488  0.00  0.00    +0.000 S 
ENDBRANCH  11  12
ENDBRANCH   3  11
TORSDOF 7
ENDMDL
