MODEL 1
REMARK VINA RESULT:      -7.0      0.000      0.000
REMARK  Name = 
REMARK  3 active torsions:
REMARK  status: ('A' for Active; 'I' for Inactive)
REMARK    1  A    between atoms: C_2  and  C_3
REMARK    2  A    between atoms: N_16  and  C_17
REMARK    3  A    between atoms: C_17  and  C_18
REMARK                            x       y       z     vdW  Elec       q    Type
REMARK                         _______ _______ _______ _____ _____    ______ ____
ROOT
ATOM      1  O   UNL     1      -0.901   8.083  21.808  0.00  0.00    +0.000 OA
ATOM      2  C   UNL     1       0.064   8.754  21.456  0.00  0.00    +0.000 C 
ATOM      3  N   UNL     1       0.264  10.052  21.919  0.00  0.00    +0.000 N 
ATOM      4  C   UNL     1      -0.523  10.535  23.037  0.00  0.00    +0.000 C 
ATOM      5  C   UNL     1      -1.597  11.527  22.601  0.00  0.00    +0.000 C 
ATOM      6  O   UNL     1      -2.554  11.770  23.339  0.00  0.00    +0.000 OA
ATOM      7  N   UNL     1      -1.329  12.256  21.442  0.00  0.00    +0.000 N 
ATOM      8  C   UNL     1      -0.173  12.148  20.671  0.00  0.00    +0.000 C 
ATOM      9  O   UNL     1       0.109  12.928  19.759  0.00  0.00    +0.000 OA
ATOM     10  C   UNL     1       0.848  11.102  21.098  0.00  0.00    +0.000 C 
ENDROOT
BRANCH   2  11
ATOM     11  C   UNL     1       1.066   8.219  20.556  0.00  0.00    +0.000 A 
ATOM     12  C   UNL     1       1.538   8.701  19.346  0.00  0.00    +0.000 A 
ATOM     13  C   UNL     1       2.450   7.762  18.810  0.00  0.00    +0.000 A 
ATOM     14  C   UNL     1       3.155   7.677  17.597  0.00  0.00    +0.000 A 
ATOM     15  C   UNL     1       4.010   6.593  17.382  0.00  0.00    +0.000 A 
ATOM     16  C   UNL     1       4.165   5.610  18.356  0.00  0.00    +0.000 A 
ATOM     17  C   UNL     1       3.466   5.671  19.568  0.00  0.00    +0.000 A 
ATOM     18  C   UNL     1       2.609   6.759  19.765  0.00  0.00    +0.000 A 
ATOM     19  N   UNL     1       1.800   7.085  20.831  0.00  0.00    +0.000 N 
ATOM     20  H   UNL     1       1.711   6.548  21.684  0.00  0.00    +0.000 HD
ENDBRANCH   2  11
BRANCH   7  21
ATOM     21  C   UNL     1      -2.279  13.295  21.055  0.00  0.00    +0.000 C 
BRANCH  21  22
ATOM     22  C   UNL     1      -3.369  12.691  20.217  0.00  0.00    +0.000 A 
ATOM     23  C   UNL     1      -3.257  12.009  19.021  0.00  0.00    +0.000 A 
ATOM     24  C   UNL     1      -4.521  11.594  18.511  0.00  0.00    +0.000 A 
ATOM     25  C   UNL     1      -5.556  11.954  19.343  0.00  0.00    +0.000 A 
ATOM     26  S   UNL     1      -5.004  12.782  20.731  0.00  0.00    +0.000 S 
ENDBRANCH  21  22
ENDBRANCH   7  21
TORSDOF 3
ENDMDL
MODEL 2
REMARK VINA RESULT:      -6.6      4.654      8.933
REMARK  Name = 
REMARK  3 active torsions:
REMARK  status: ('A' for Active; 'I' for Inactive)
REMARK    1  A    between atoms: C_2  and  C_3
REMARK    2  A    between atoms: N_16  and  C_17
REMARK    3  A    between atoms: C_17  and  C_18
REMARK                            x       y       z     vdW  Elec       q    Type
REMARK                         _______ _______ _______ _____ _____    ______ ____
ROOT
ATOM      1  O   UNL     1       1.914   5.111  21.384  0.00  0.00    +0.000 OA
ATOM      2  C   UNL     1       1.801   5.918  20.466  0.00  0.00    +0.000 C 
ATOM      3  N   UNL     1       2.105   5.579  19.150  0.00  0.00    +0.000 N 
ATOM      4  C   UNL     1       2.302   4.184  18.804  0.00  0.00    +0.000 C 
ATOM      5  C   UNL     1       3.772   3.851  18.568  0.00  0.00    +0.000 C 
ATOM      6  O   UNL     1       4.157   2.680  18.604  0.00  0.00    +0.000 OA
ATOM      7  N   UNL     1       4.581   4.901  18.133  0.00  0.00    +0.000 N 
ATOM      8  C   UNL     1       4.151   6.206  17.900  0.00  0.00    +0.000 C 
ATOM      9  O   UNL     1       4.848   7.061  17.350  0.00  0.00    +0.000 OA
ATOM     10  C   UNL     1       2.693   6.520  18.208  0.00  0.00    +0.000 C 
ENDROOT
BRANCH   2  11
ATOM     11  C   UNL     1       1.318   7.264  20.699  0.00  0.00    +0.000 A 
ATOM     12  C   UNL     1       1.552   8.438  20.002  0.00  0.00    +0.000 A 
ATOM     13  C   UNL     1       0.926   9.504  20.689  0.00  0.00    +0.000 A 
ATOM     14  C   UNL     1       0.901  10.897  20.501  0.00  0.00    +0.000 A 
ATOM     15  C   UNL     1       0.153  11.687  21.378  0.00  0.00    +0.000 A 
ATOM     16  C   UNL     1      -0.560  11.105  22.422  0.00  0.00    +0.000 A 
ATOM     17  C   UNL     1      -0.543   9.720  22.632  0.00  0.00    +0.000 A 
ATOM     18  C   UNL     1       0.217   8.944  21.750  0.00  0.00    +0.000 A 
ATOM     19  N   UNL     1       0.429   7.584  21.704  0.00  0.00    +0.000 N 
ATOM     20  H   UNL     1       0.033   6.907  22.344  0.00  0.00    +0.000 HD
ENDBRANCH   2  11
BRANCH   7  21
ATOM     21  C   UNL     1       5.966   4.597  17.788  0.00  0.00    +0.000 C 
BRANCH  21  22
ATOM     22  C   UNL     1       6.099   4.484  16.296  0.00  0.00    +0.000 A 
ATOM     23  C   UNL     1       5.248   3.865  15.401  0.00  0.00    +0.000 A 
ATOM     24  C   UNL     1       5.715   3.952  14.057  0.00  0.00    +0.000 A 
ATOM     25  C   UNL     1       6.895   4.652  13.967  0.00  0.00    +0.000 A 
ATOM     26  S   UNL     1       7.433   5.204  15.491  0.00  0.00    +0.000 S 
ENDBRANCH  21  22
ENDBRANCH   7  21
TORSDOF 3
ENDMDL
MODEL 3
REMARK VINA RESULT:      -6.5      0.587      1.197
REMARK  Name = 
REMARK  3 active torsions:
REMARK  status: ('A' for Active; 'I' for Inactive)
REMARK    1  A    between atoms: C_2  and  C_3
REMARK    2  A    between atoms: N_16  and  C_17
REMARK    3  A    between atoms: C_17  and  C_18
REMARK                            x       y       z     vdW  Elec       q    Type
REMARK                         _______ _______ _______ _____ _____    ______ ____
ROOT
ATOM      1  O   UNL     1      -0.908   8.122  21.907  0.00  0.00    +0.000 OA
ATOM      2  C   UNL     1       0.061   8.725  21.458  0.00  0.00    +0.000 C 
ATOM      3  N   UNL     1       0.299  10.063  21.762  0.00  0.00    +0.000 N 
ATOM      4  C   UNL     1      -0.450  10.690  22.834  0.00  0.00    +0.000 C 
ATOM      5  C   UNL     1      -1.514  11.649  22.310  0.00  0.00    +0.000 C 
ATOM      6  O   UNL     1      -2.447  11.998  23.036  0.00  0.00    +0.000 OA
ATOM      7  N   UNL     1      -1.261  12.233  21.068  0.00  0.00    +0.000 N 
ATOM      8  C   UNL     1      -0.126  12.010  20.289  0.00  0.00    +0.000 C 
ATOM      9  O   UNL     1       0.148  12.672  19.287  0.00  0.00    +0.000 OA
ATOM     10  C   UNL     1       0.884  10.997  20.812  0.00  0.00    +0.000 C 
ENDROOT
BRANCH   2  11
ATOM     11  C   UNL     1       1.030   8.067  20.604  0.00  0.00    +0.000 A 
ATOM     12  C   UNL     1       1.698   6.864  20.761  0.00  0.00    +0.000 A 
ATOM     13  C   UNL     1       2.612   6.711  19.693  0.00  0.00    +0.000 A 
ATOM     14  C   UNL     1       3.595   5.753  19.386  0.00  0.00    +0.000 A 
ATOM     15  C   UNL     1       4.337   5.894  18.212  0.00  0.00    +0.000 A 
ATOM     16  C   UNL     1       4.107   6.965  17.353  0.00  0.00    +0.000 A 
ATOM     17  C   UNL     1       3.138   7.935  17.643  0.00  0.00    +0.000 A 
ATOM     18  C   UNL     1       2.408   7.784  18.827  0.00  0.00    +0.000 A 
ATOM     19  N   UNL     1       1.412   8.561  19.375  0.00  0.00    +0.000 N 
ATOM     20  H   UNL     1       1.039   9.408  18.965  0.00  0.00    +0.000 HD
ENDBRANCH   2  11
BRANCH   7  21
ATOM     21  C   UNL     1      -2.199  13.242  20.584  0.00  0.00    +0.000 C 
BRANCH  21  22
ATOM     22  C   UNL     1      -3.326  12.570  19.854  0.00  0.00    +0.000 A 
ATOM     23  C   UNL     1      -3.268  11.786  18.718  0.00  0.00    +0.000 A 
ATOM     24  C   UNL     1      -4.554  11.331  18.305  0.00  0.00    +0.000 A 
ATOM     25  C   UNL     1      -5.549  11.764  19.152  0.00  0.00    +0.000 A 
ATOM     26  S   UNL     1      -4.935  12.707  20.435  0.00  0.00    +0.000 S 
ENDBRANCH  21  22
ENDBRANCH   7  21
TORSDOF 3
ENDMDL
MODEL 4
REMARK VINA RESULT:      -6.5      4.630      8.985
REMARK  Name = 
REMARK  3 active torsions:
REMARK  status: ('A' for Active; 'I' for Inactive)
REMARK    1  A    between atoms: C_2  and  C_3
REMARK    2  A    between atoms: N_16  and  C_17
REMARK    3  A    between atoms: C_17  and  C_18
REMARK                            x       y       z     vdW  Elec       q    Type
REMARK                         _______ _______ _______ _____ _____    ______ ____
ROOT
ATOM      1  O   UNL     1       1.910   5.309  21.222  0.00  0.00    +0.000 OA
ATOM      2  C   UNL     1       1.875   6.124  20.306  0.00  0.00    +0.000 C 
ATOM      3  N   UNL     1       2.197   5.773  18.997  0.00  0.00    +0.000 N 
ATOM      4  C   UNL     1       2.318   4.370  18.649  0.00  0.00    +0.000 C 
ATOM      5  C   UNL     1       3.771   3.948  18.455  0.00  0.00    +0.000 C 
ATOM      6  O   UNL     1       4.082   2.756  18.495  0.00  0.00    +0.000 OA
ATOM      7  N   UNL     1       4.656   4.949  18.050  0.00  0.00    +0.000 N 
ATOM      8  C   UNL     1       4.314   6.279  17.813  0.00  0.00    +0.000 C 
ATOM      9  O   UNL     1       5.078   7.092  17.289  0.00  0.00    +0.000 OA
ATOM     10  C   UNL     1       2.869   6.680  18.079  0.00  0.00    +0.000 C 
ENDROOT
BRANCH   2  11
ATOM     11  C   UNL     1       1.468   7.496  20.533  0.00  0.00    +0.000 A 
ATOM     12  C   UNL     1       0.969   8.111  21.670  0.00  0.00    +0.000 A 
ATOM     13  C   UNL     1       0.634   9.448  21.351  0.00  0.00    +0.000 A 
ATOM     14  C   UNL     1       0.020  10.491  22.067  0.00  0.00    +0.000 A 
ATOM     15  C   UNL     1      -0.156  11.729  21.445  0.00  0.00    +0.000 A 
ATOM     16  C   UNL     1       0.271  11.930  20.135  0.00  0.00    +0.000 A 
ATOM     17  C   UNL     1       0.878  10.903  19.402  0.00  0.00    +0.000 A 
ATOM     18  C   UNL     1       1.041   9.666  20.037  0.00  0.00    +0.000 A 
ATOM     19  N   UNL     1       1.587   8.487  19.582  0.00  0.00    +0.000 N 
ATOM     20  H   UNL     1       1.981   8.341  18.660  0.00  0.00    +0.000 HD
ENDBRANCH   2  11
BRANCH   7  21
ATOM     21  C   UNL     1       6.030   4.562  17.745  0.00  0.00    +0.000 C 
BRANCH  21  22
ATOM     22  C   UNL     1       6.200   4.448  16.257  0.00  0.00    +0.000 A 
ATOM     23  C   UNL     1       5.436   3.733  15.355  0.00  0.00    +0.000 A 
ATOM     24  C   UNL     1       5.915   3.856  14.019  0.00  0.00    +0.000 A 
ATOM     25  C   UNL     1       7.016   4.677  13.940  0.00  0.00    +0.000 A 
ATOM     26  S   UNL     1       7.464   5.297  15.465  0.00  0.00    +0.000 S 
ENDBRANCH  21  22
ENDBRANCH   7  21
TORSDOF 3
ENDMDL
MODEL 5
REMARK VINA RESULT:      -6.5      2.356      3.666
REMARK  Name = 
REMARK  3 active torsions:
REMARK  status: ('A' for Active; 'I' for Inactive)
REMARK    1  A    between atoms: C_2  and  C_3
REMARK    2  A    between atoms: N_16  and  C_17
REMARK    3  A    between atoms: C_17  and  C_18
REMARK                            x       y       z     vdW  Elec       q    Type
REMARK                         _______ _______ _______ _____ _____    ______ ____
ROOT
ATOM      1  O   UNL     1      -1.907  11.398  21.968  0.00  0.00    +0.000 OA
ATOM      2  C   UNL     1      -1.600  11.444  20.781  0.00  0.00    +0.000 C 
ATOM      3  N   UNL     1      -2.203  12.338  19.899  0.00  0.00    +0.000 N 
ATOM      4  C   UNL     1      -3.014  13.417  20.430  0.00  0.00    +0.000 C 
ATOM      5  C   UNL     1      -4.505  13.175  20.218  0.00  0.00    +0.000 C 
ATOM      6  O   UNL     1      -5.336  13.794  20.886  0.00  0.00    +0.000 OA
ATOM      7  N   UNL     1      -4.853  12.381  19.124  0.00  0.00    +0.000 N 
ATOM      8  C   UNL     1      -3.953  11.807  18.227  0.00  0.00    +0.000 C 
ATOM      9  O   UNL     1      -4.297  11.262  17.176  0.00  0.00    +0.000 OA
ATOM     10  C   UNL     1      -2.470  12.014  18.506  0.00  0.00    +0.000 C 
ENDROOT
BRANCH   2  11
ATOM     11  C   UNL     1      -0.569  10.584  20.235  0.00  0.00    +0.000 A 
ATOM     12  C   UNL     1       0.037  10.584  18.989  0.00  0.00    +0.000 A 
ATOM     13  C   UNL     1       0.918   9.480  18.915  0.00  0.00    +0.000 A 
ATOM     14  C   UNL     1       1.714   8.941  17.889  0.00  0.00    +0.000 A 
ATOM     15  C   UNL     1       2.500   7.818  18.158  0.00  0.00    +0.000 A 
ATOM     16  C   UNL     1       2.500   7.241  19.425  0.00  0.00    +0.000 A 
ATOM     17  C   UNL     1       1.709   7.757  20.460  0.00  0.00    +0.000 A 
ATOM     18  C   UNL     1       0.922   8.878  20.172  0.00  0.00    +0.000 A 
ATOM     19  N   UNL     1       0.054   9.594  20.965  0.00  0.00    +0.000 N 
ATOM     20  H   UNL     1      -0.146   9.399  21.939  0.00  0.00    +0.000 HD
ENDBRANCH   2  11
BRANCH   7  21
ATOM     21  C   UNL     1      -6.271  12.220  18.820  0.00  0.00    +0.000 C 
BRANCH  21  22
ATOM     22  C   UNL     1      -6.806  11.017  19.544  0.00  0.00    +0.000 A 
ATOM     23  C   UNL     1      -6.694   9.685  19.197  0.00  0.00    +0.000 A 
ATOM     24  C   UNL     1      -7.346   8.824  20.127  0.00  0.00    +0.000 A 
ATOM     25  C   UNL     1      -7.916   9.525  21.164  0.00  0.00    +0.000 A 
ATOM     26  S   UNL     1      -7.662  11.207  21.019  0.00  0.00    +0.000 S 
ENDBRANCH  21  22
ENDBRANCH   7  21
TORSDOF 3
ENDMDL
MODEL 6
REMARK VINA RESULT:      -6.4      2.072      3.103
REMARK  Name = 
REMARK  3 active torsions:
REMARK  status: ('A' for Active; 'I' for Inactive)
REMARK    1  A    between atoms: C_2  and  C_3
REMARK    2  A    between atoms: N_16  and  C_17
REMARK    3  A    between atoms: C_17  and  C_18
REMARK                            x       y       z     vdW  Elec       q    Type
REMARK                         _______ _______ _______ _____ _____    ______ ____
ROOT
ATOM      1  O   UNL     1       2.036  10.920  18.117  0.00  0.00    +0.000 OA
ATOM      2  C   UNL     1       1.360  10.043  18.647  0.00  0.00    +0.000 C 
ATOM      3  N   UNL     1       0.097  10.306  19.172  0.00  0.00    +0.000 N 
ATOM      4  C   UNL     1      -0.553  11.564  18.858  0.00  0.00    +0.000 C 
ATOM      5  C   UNL     1      -0.550  12.526  20.042  0.00  0.00    +0.000 C 
ATOM      6  O   UNL     1      -0.742  13.730  19.864  0.00  0.00    +0.000 OA
ATOM      7  N   UNL     1      -0.512  11.944  21.309  0.00  0.00    +0.000 N 
ATOM      8  C   UNL     1      -0.480  10.574  21.566  0.00  0.00    +0.000 C 
ATOM      9  O   UNL     1      -0.625  10.092  22.691  0.00  0.00    +0.000 OA
ATOM     10  C   UNL     1      -0.417   9.645  20.361  0.00  0.00    +0.000 C 
ENDROOT
BRANCH   2  11
ATOM     11  C   UNL     1       1.831   8.675  18.731  0.00  0.00    +0.000 A 
ATOM     12  C   UNL     1       2.380   7.851  17.762  0.00  0.00    +0.000 A 
ATOM     13  C   UNL     1       2.588   6.570  18.324  0.00  0.00    +0.000 A 
ATOM     14  C   UNL     1       3.026   5.341  17.801  0.00  0.00    +0.000 A 
ATOM     15  C   UNL     1       3.137   4.240  18.654  0.00  0.00    +0.000 A 
ATOM     16  C   UNL     1       2.821   4.357  20.005  0.00  0.00    +0.000 A 
ATOM     17  C   UNL     1       2.375   5.570  20.546  0.00  0.00    +0.000 A 
ATOM     18  C   UNL     1       2.263   6.661  19.676  0.00  0.00    +0.000 A 
ATOM     19  N   UNL     1       1.857   7.956  19.907  0.00  0.00    +0.000 N 
ATOM     20  H   UNL     1       1.567   8.328  20.803  0.00  0.00    +0.000 HD
ENDBRANCH   2  11
BRANCH   7  21
ATOM     21  C   UNL     1      -0.622  12.824  22.468  0.00  0.00    +0.000 C 
BRANCH  21  22
ATOM     22  C   UNL     1      -2.061  13.200  22.679  0.00  0.00    +0.000 A 
ATOM     23  C   UNL     1      -3.141  12.370  22.915  0.00  0.00    +0.000 A 
ATOM     24  C   UNL     1      -4.362  13.093  23.050  0.00  0.00    +0.000 A 
ATOM     25  C   UNL     1      -4.172  14.450  22.934  0.00  0.00    +0.000 A 
ATOM     26  S   UNL     1      -2.534  14.849  22.669  0.00  0.00    +0.000 S 
ENDBRANCH  21  22
ENDBRANCH   7  21
TORSDOF 3
ENDMDL
MODEL 7
REMARK VINA RESULT:      -6.4      2.357      3.558
REMARK  Name = 
REMARK  3 active torsions:
REMARK  status: ('A' for Active; 'I' for Inactive)
REMARK    1  A    between atoms: C_2  and  C_3
REMARK    2  A    between atoms: N_16  and  C_17
REMARK    3  A    between atoms: C_17  and  C_18
REMARK                            x       y       z     vdW  Elec       q    Type
REMARK                         _______ _______ _______ _____ _____    ______ ____
ROOT
ATOM      1  O   UNL     1       2.066   9.969  17.235  0.00  0.00    +0.000 OA
ATOM      2  C   UNL     1       1.789   9.158  18.114  0.00  0.00    +0.000 C 
ATOM      3  N   UNL     1       0.707   9.344  18.970  0.00  0.00    +0.000 N 
ATOM      4  C   UNL     1      -0.274  10.367  18.662  0.00  0.00    +0.000 C 
ATOM      5  C   UNL     1      -0.147  11.582  19.575  0.00  0.00    +0.000 C 
ATOM      6  O   UNL     1      -0.650  12.659  19.250  0.00  0.00    +0.000 OA
ATOM      7  N   UNL     1       0.387  11.348  20.843  0.00  0.00    +0.000 N 
ATOM      8  C   UNL     1       0.803  10.108  21.325  0.00  0.00    +0.000 C 
ATOM      9  O   UNL     1       1.103   9.905  22.504  0.00  0.00    +0.000 OA
ATOM     10  C   UNL     1       0.723   8.929  20.365  0.00  0.00    +0.000 C 
ENDROOT
BRANCH   2  11
ATOM     11  C   UNL     1       2.561   7.945  18.290  0.00  0.00    +0.000 A 
ATOM     12  C   UNL     1       2.381   6.881  19.160  0.00  0.00    +0.000 A 
ATOM     13  C   UNL     1       3.464   5.984  19.007  0.00  0.00    +0.000 A 
ATOM     14  C   UNL     1       3.849   4.807  19.672  0.00  0.00    +0.000 A 
ATOM     15  C   UNL     1       5.000   4.136  19.252  0.00  0.00    +0.000 A 
ATOM     16  C   UNL     1       5.755   4.623  18.190  0.00  0.00    +0.000 A 
ATOM     17  C   UNL     1       5.395   5.798  17.519  0.00  0.00    +0.000 A 
ATOM     18  C   UNL     1       4.243   6.462  17.955  0.00  0.00    +0.000 A 
ATOM     19  N   UNL     1       3.648   7.621  17.507  0.00  0.00    +0.000 N 
ATOM     20  H   UNL     1       3.983   8.191  16.740  0.00  0.00    +0.000 HD
ENDBRANCH   2  11
BRANCH   7  21
ATOM     21  C   UNL     1       0.420  12.462  21.786  0.00  0.00    +0.000 C 
BRANCH  21  22
ATOM     22  C   UNL     1      -0.943  12.651  22.387  0.00  0.00    +0.000 A 
ATOM     23  C   UNL     1      -1.763  11.706  22.972  0.00  0.00    +0.000 A 
ATOM     24  C   UNL     1      -2.998  12.261  23.420  0.00  0.00    +0.000 A 
ATOM     25  C   UNL     1      -3.071  13.614  23.181  0.00  0.00    +0.000 A 
ATOM     26  S   UNL     1      -1.660  14.210  22.427  0.00  0.00    +0.000 S 
ENDBRANCH  21  22
ENDBRANCH   7  21
TORSDOF 3
ENDMDL
MODEL 8
REMARK VINA RESULT:      -6.4      2.212      3.331
REMARK  Name = 
REMARK  3 active torsions:
REMARK  status: ('A' for Active; 'I' for Inactive)
REMARK    1  A    between atoms: C_2  and  C_3
REMARK    2  A    between atoms: N_16  and  C_17
REMARK    3  A    between atoms: C_17  and  C_18
REMARK                            x       y       z     vdW  Elec       q    Type
REMARK                         _______ _______ _______ _____ _____    ______ ____
ROOT
ATOM      1  O   UNL     1       2.058  10.248  17.340  0.00  0.00    +0.000 OA
ATOM      2  C   UNL     1       1.667   9.429  18.166  0.00  0.00    +0.000 C 
ATOM      3  N   UNL     1       0.533   9.653  18.943  0.00  0.00    +0.000 N 
ATOM      4  C   UNL     1      -0.361  10.741  18.594  0.00  0.00    +0.000 C 
ATOM      5  C   UNL     1      -0.238  11.918  19.556  0.00  0.00    +0.000 C 
ATOM      6  O   UNL     1      -0.652  13.032  19.230  0.00  0.00    +0.000 OA
ATOM      7  N   UNL     1       0.180  11.615  20.853  0.00  0.00    +0.000 N 
ATOM      8  C   UNL     1       0.485  10.339  21.323  0.00  0.00    +0.000 C 
ATOM      9  O   UNL     1       0.679  10.084  22.513  0.00  0.00    +0.000 OA
ATOM     10  C   UNL     1       0.415   9.196  20.319  0.00  0.00    +0.000 C 
ENDROOT
BRANCH   2  11
ATOM     11  C   UNL     1       2.353   8.168  18.360  0.00  0.00    +0.000 A 
ATOM     12  C   UNL     1       3.335   7.551  17.602  0.00  0.00    +0.000 A 
ATOM     13  C   UNL     1       3.610   6.283  18.163  0.00  0.00    +0.000 A 
ATOM     14  C   UNL     1       4.430   5.208  17.777  0.00  0.00    +0.000 A 
ATOM     15  C   UNL     1       4.485   4.071  18.586  0.00  0.00    +0.000 A 
ATOM     16  C   UNL     1       3.741   4.001  19.761  0.00  0.00    +0.000 A 
ATOM     17  C   UNL     1       2.912   5.057  20.161  0.00  0.00    +0.000 A 
ATOM     18  C   UNL     1       2.862   6.186  19.335  0.00  0.00    +0.000 A 
ATOM     19  N   UNL     1       2.150   7.358  19.457  0.00  0.00    +0.000 N 
ATOM     20  H   UNL     1       1.523   7.586  20.219  0.00  0.00    +0.000 HD
ENDBRANCH   2  11
BRANCH   7  21
ATOM     21  C   UNL     1       0.201  12.696  21.833  0.00  0.00    +0.000 C 
BRANCH  21  22
ATOM     22  C   UNL     1      -1.178  12.892  22.395  0.00  0.00    +0.000 A 
ATOM     23  C   UNL     1      -1.986  11.971  23.032  0.00  0.00    +0.000 A 
ATOM     24  C   UNL     1      -3.242  12.523  23.416  0.00  0.00    +0.000 A 
ATOM     25  C   UNL     1      -3.345  13.853  23.078  0.00  0.00    +0.000 A 
ATOM     26  S   UNL     1      -1.934  14.430  22.308  0.00  0.00    +0.000 S 
ENDBRANCH  21  22
ENDBRANCH   7  21
TORSDOF 3
ENDMDL
MODEL 9
REMARK VINA RESULT:      -6.3      2.432      3.755
REMARK  Name = 
REMARK  3 active torsions:
REMARK  status: ('A' for Active; 'I' for Inactive)
REMARK    1  A    between atoms: C_2  and  C_3
REMARK    2  A    between atoms: N_16  and  C_17
REMARK    3  A    between atoms: C_17  and  C_18
REMARK                            x       y       z     vdW  Elec       q    Type
REMARK                         _______ _______ _______ _____ _____    ______ ____
ROOT
ATOM      1  O   UNL     1       1.457   5.504  20.665  0.00  0.00    +0.000 OA
ATOM      2  C   UNL     1       2.181   6.272  20.039  0.00  0.00    +0.000 C 
ATOM      3  N   UNL     1       2.153   7.648  20.255  0.00  0.00    +0.000 N 
ATOM      4  C   UNL     1       1.461   8.168  21.419  0.00  0.00    +0.000 C 
ATOM      5  C   UNL     1       0.137   8.832  21.053  0.00  0.00    +0.000 C 
ATOM      6  O   UNL     1      -0.724   9.018  21.915  0.00  0.00    +0.000 OA
ATOM      7  N   UNL     1       0.051   9.370  19.768  0.00  0.00    +0.000 N 
ATOM      8  C   UNL     1       1.068   9.346  18.815  0.00  0.00    +0.000 C 
ATOM      9  O   UNL     1       1.022   9.982  17.759  0.00  0.00    +0.000 OA
ATOM     10  C   UNL     1       2.352   8.618  19.190  0.00  0.00    +0.000 C 
ENDROOT
BRANCH   2  11
ATOM     11  C   UNL     1       3.125   5.784  19.054  0.00  0.00    +0.000 A 
ATOM     12  C   UNL     1       2.916   5.252  17.792  0.00  0.00    +0.000 A 
ATOM     13  C   UNL     1       4.161   4.836  17.265  0.00  0.00    +0.000 A 
ATOM     14  C   UNL     1       4.541   4.162  16.091  0.00  0.00    +0.000 A 
ATOM     15  C   UNL     1       5.896   3.911  15.861  0.00  0.00    +0.000 A 
ATOM     16  C   UNL     1       6.858   4.322  16.778  0.00  0.00    +0.000 A 
ATOM     17  C   UNL     1       6.501   4.988  17.958  0.00  0.00    +0.000 A 
ATOM     18  C   UNL     1       5.140   5.226  18.177  0.00  0.00    +0.000 A 
ATOM     19  N   UNL     1       4.492   5.842  19.225  0.00  0.00    +0.000 N 
ATOM     20  H   UNL     1       4.943   6.241  20.039  0.00  0.00    +0.000 HD
ENDBRANCH   2  11
BRANCH   7  21
ATOM     21  C   UNL     1      -1.157  10.112  19.419  0.00  0.00    +0.000 C 
BRANCH  21  22
ATOM     22  C   UNL     1      -0.959  11.568  19.731  0.00  0.00    +0.000 A 
ATOM     23  C   UNL     1      -0.867  12.178  20.967  0.00  0.00    +0.000 A 
ATOM     24  C   UNL     1      -0.694  13.589  20.866  0.00  0.00    +0.000 A 
ATOM     25  C   UNL     1      -0.638  14.008  19.556  0.00  0.00    +0.000 A 
ATOM     26  S   UNL     1      -0.789  12.708  18.460  0.00  0.00    +0.000 S 
ENDBRANCH  21  22
ENDBRANCH   7  21
TORSDOF 3
ENDMDL
