MODEL 1
REMARK VINA RESULT:      -7.5      0.000      0.000
REMARK  Name = 
REMARK  10 active torsions:
REMARK  status: ('A' for Active; 'I' for Inactive)
REMARK    1  A    between atoms: C_1  and  C_2
REMARK    2  A    between atoms: C_2  and  O_3
REMARK    3  A    between atoms: O_3  and  C_4
REMARK    4  A    between atoms: C_4  and  C_6
REMARK    5  A    between atoms: C_9  and  N_10
REMARK    6  A    between atoms: C_11  and  C_13
REMARK    7  A    between atoms: C_13  and  C_14
REMARK    8  A    between atoms: C_14  and  O_15
REMARK    9  A    between atoms: O_15  and  C_16
REMARK   10  A    between atoms: C_19  and  C_20
REMARK                            x       y       z     vdW  Elec       q    Type
REMARK                         _______ _______ _______ _____ _____    ______ ____
ROOT
ATOM      1  N   UNL     1       5.985   6.940  17.156  0.00  0.00    +0.000 N 
ATOM      2  C   UNL     1       7.209   7.044  17.798  0.00  0.00    +0.000 C 
ATOM      3  O   UNL     1       7.573   6.342  18.741  0.00  0.00    +0.000 OA
ATOM      4  H   UNL     1       5.784   7.565  16.387  0.00  0.00    +0.000 HD
ENDROOT
BRANCH   1   8
ATOM      5  C   UNL     1       2.965   4.104  17.924  0.00  0.00    +0.000 A 
ATOM      6  C   UNL     1       2.748   5.445  18.248  0.00  0.00    +0.000 A 
ATOM      7  C   UNL     1       3.730   6.404  18.000  0.00  0.00    +0.000 A 
ATOM      8  C   UNL     1       4.941   6.035  17.419  0.00  0.00    +0.000 A 
ATOM      9  C   UNL     1       5.155   4.691  17.075  0.00  0.00    +0.000 A 
ATOM     10  C   UNL     1       4.175   3.726  17.327  0.00  0.00    +0.000 A 
BRANCH   5  11
ATOM     11  C   UNL     1       1.920   3.126  18.315  0.00  0.00    +0.000 C 
ATOM     12  O   UNL     1       0.752   3.221  17.976  0.00  0.00    +0.000 OA
BRANCH  11  13
ATOM     13  O   UNL     1       2.429   2.234  19.198  0.00  0.00    +0.000 OA
BRANCH  13  15
ATOM     14  C   UNL     1       1.397   2.756  21.282  0.00  0.00    +0.000 C 
ATOM     15  C   UNL     1       2.699   2.769  20.499  0.00  0.00    +0.000 C 
ENDBRANCH  13  15
ENDBRANCH  11  13
ENDBRANCH   5  11
ENDBRANCH   1   8
BRANCH   2  16
ATOM     16  C   UNL     1       8.165   8.117  17.285  0.00  0.00    +0.000 C 
BRANCH  16  17
ATOM     17  C   UNL     1       8.051   9.442  18.008  0.00  0.00    +0.000 C 
BRANCH  17  18
ATOM     18  O   UNL     1       8.899   9.516  19.148  0.00  0.00    +0.000 OA
BRANCH  18  19
ATOM     19  C   UNL     1       9.665  10.658  19.156  0.00  0.00    +0.000 A 
ATOM     20  C   UNL     1       9.972  11.179  20.410  0.00  0.00    +0.000 A 
ATOM     21  C   UNL     1      10.734  12.347  20.518  0.00  0.00    +0.000 A 
ATOM     22  C   UNL     1      11.203  12.998  19.371  0.00  0.00    +0.000 A 
ATOM     23  C   UNL     1      12.035  14.242  19.461  0.00  0.00    +0.000 C 
ATOM     24  C   UNL     1      10.906  12.464  18.116  0.00  0.00    +0.000 A 
ATOM     25  C   UNL     1      10.149  11.299  18.009  0.00  0.00    +0.000 A 
ENDBRANCH  18  19
ENDBRANCH  17  18
ENDBRANCH  16  17
ENDBRANCH   2  16
TORSDOF 8
ENDMDL
MODEL 2
REMARK VINA RESULT:      -7.4      5.307      7.863
REMARK  Name = 
REMARK  10 active torsions:
REMARK  status: ('A' for Active; 'I' for Inactive)
REMARK    1  A    between atoms: C_1  and  C_2
REMARK    2  A    between atoms: C_2  and  O_3
REMARK    3  A    between atoms: O_3  and  C_4
REMARK    4  A    between atoms: C_4  and  C_6
REMARK    5  A    between atoms: C_9  and  N_10
REMARK    6  A    between atoms: C_11  and  C_13
REMARK    7  A    between atoms: C_13  and  C_14
REMARK    8  A    between atoms: C_14  and  O_15
REMARK    9  A    between atoms: O_15  and  C_16
REMARK   10  A    between atoms: C_19  and  C_20
REMARK                            x       y       z     vdW  Elec       q    Type
REMARK                         _______ _______ _______ _____ _____    ______ ____
ROOT
ATOM      1  N   UNL     1       2.769   6.043  20.294  0.00  0.00    +0.000 N 
ATOM      2  C   UNL     1       2.240   4.767  20.173  0.00  0.00    +0.000 C 
ATOM      3  O   UNL     1       1.112   4.508  19.755  0.00  0.00    +0.000 OA
ATOM      4  H   UNL     1       3.710   6.150  20.647  0.00  0.00    +0.000 HD
ENDROOT
BRANCH   1   8
ATOM      5  C   UNL     1       0.968   9.673  19.139  0.00  0.00    +0.000 A 
ATOM      6  C   UNL     1       0.871   9.249  20.466  0.00  0.00    +0.000 A 
ATOM      7  C   UNL     1       1.462   8.054  20.875  0.00  0.00    +0.000 A 
ATOM      8  C   UNL     1       2.163   7.269  19.962  0.00  0.00    +0.000 A 
ATOM      9  C   UNL     1       2.277   7.702  18.632  0.00  0.00    +0.000 A 
ATOM     10  C   UNL     1       1.682   8.897  18.218  0.00  0.00    +0.000 A 
BRANCH   5  11
ATOM     11  C   UNL     1       0.225  10.899  18.755  0.00  0.00    +0.000 C 
ATOM     12  O   UNL     1       0.729  12.009  18.731  0.00  0.00    +0.000 OA
BRANCH  11  13
ATOM     13  O   UNL     1      -1.089  10.611  18.590  0.00  0.00    +0.000 OA
BRANCH  13  15
ATOM     14  C   UNL     1      -2.449  10.734  16.638  0.00  0.00    +0.000 C 
ATOM     15  C   UNL     1      -1.802  11.532  17.757  0.00  0.00    +0.000 C 
ENDBRANCH  13  15
ENDBRANCH  11  13
ENDBRANCH   5  11
ENDBRANCH   1   8
BRANCH   2  16
ATOM     16  C   UNL     1       3.139   3.609  20.597  0.00  0.00    +0.000 C 
BRANCH  16  17
ATOM     17  C   UNL     1       4.139   3.186  19.542  0.00  0.00    +0.000 C 
BRANCH  17  18
ATOM     18  O   UNL     1       5.262   4.057  19.475  0.00  0.00    +0.000 OA
BRANCH  18  19
ATOM     19  C   UNL     1       5.702   4.244  18.185  0.00  0.00    +0.000 A 
ATOM     20  C   UNL     1       4.770   3.994  17.181  0.00  0.00    +0.000 A 
ATOM     21  C   UNL     1       5.129   4.143  15.837  0.00  0.00    +0.000 A 
ATOM     22  C   UNL     1       6.422   4.553  15.488  0.00  0.00    +0.000 A 
ATOM     23  C   UNL     1       6.826   4.736  14.056  0.00  0.00    +0.000 C 
ATOM     24  C   UNL     1       7.347   4.818  16.499  0.00  0.00    +0.000 A 
ATOM     25  C   UNL     1       6.988   4.672  17.837  0.00  0.00    +0.000 A 
ENDBRANCH  18  19
ENDBRANCH  17  18
ENDBRANCH  16  17
ENDBRANCH   2  16
TORSDOF 8
ENDMDL
MODEL 3
REMARK VINA RESULT:      -7.4      4.057      7.312
REMARK  Name = 
REMARK  10 active torsions:
REMARK  status: ('A' for Active; 'I' for Inactive)
REMARK    1  A    between atoms: C_1  and  C_2
REMARK    2  A    between atoms: C_2  and  O_3
REMARK    3  A    between atoms: O_3  and  C_4
REMARK    4  A    between atoms: C_4  and  C_6
REMARK    5  A    between atoms: C_9  and  N_10
REMARK    6  A    between atoms: C_11  and  C_13
REMARK    7  A    between atoms: C_13  and  C_14
REMARK    8  A    between atoms: C_14  and  O_15
REMARK    9  A    between atoms: O_15  and  C_16
REMARK   10  A    between atoms: C_19  and  C_20
REMARK                            x       y       z     vdW  Elec       q    Type
REMARK                         _______ _______ _______ _____ _____    ______ ____
ROOT
ATOM      1  N   UNL     1       2.726   5.539  20.298  0.00  0.00    +0.000 N 
ATOM      2  C   UNL     1       2.102   4.314  20.124  0.00  0.00    +0.000 C 
ATOM      3  O   UNL     1       0.974   4.156  19.658  0.00  0.00    +0.000 OA
ATOM      4  H   UNL     1       3.658   5.561  20.689  0.00  0.00    +0.000 HD
ENDROOT
BRANCH   1   8
ATOM      5  C   UNL     1       1.271   9.331  19.174  0.00  0.00    +0.000 A 
ATOM      6  C   UNL     1       1.063   8.873  20.477  0.00  0.00    +0.000 A 
ATOM      7  C   UNL     1       1.538   7.624  20.876  0.00  0.00    +0.000 A 
ATOM      8  C   UNL     1       2.233   6.818  19.977  0.00  0.00    +0.000 A 
ATOM      9  C   UNL     1       2.460   7.283  18.672  0.00  0.00    +0.000 A 
ATOM     10  C   UNL     1       1.981   8.533  18.268  0.00  0.00    +0.000 A 
BRANCH   5  11
ATOM     11  C   UNL     1       0.645  10.621  18.792  0.00  0.00    +0.000 C 
ATOM     12  O   UNL     1       1.283  11.640  18.584  0.00  0.00    +0.000 OA
BRANCH  11  13
ATOM     13  O   UNL     1      -0.704  10.519  18.860  0.00  0.00    +0.000 OA
BRANCH  13  15
ATOM     14  C   UNL     1      -1.651  11.918  20.541  0.00  0.00    +0.000 C 
ATOM     15  C   UNL     1      -1.388  11.763  19.052  0.00  0.00    +0.000 C 
ENDBRANCH  13  15
ENDBRANCH  11  13
ENDBRANCH   5  11
ENDBRANCH   1   8
BRANCH   2  16
ATOM     16  C   UNL     1       2.888   3.077  20.550  0.00  0.00    +0.000 C 
BRANCH  16  17
ATOM     17  C   UNL     1       4.198   2.895  19.814  0.00  0.00    +0.000 C 
BRANCH  17  18
ATOM     18  O   UNL     1       4.109   3.264  18.443  0.00  0.00    +0.000 OA
BRANCH  18  19
ATOM     19  C   UNL     1       4.928   4.325  18.133  0.00  0.00    +0.000 A 
ATOM     20  C   UNL     1       5.928   4.614  19.058  0.00  0.00    +0.000 A 
ATOM     21  C   UNL     1       6.800   5.685  18.837  0.00  0.00    +0.000 A 
ATOM     22  C   UNL     1       6.684   6.469  17.683  0.00  0.00    +0.000 A 
ATOM     23  C   UNL     1       7.617   7.612  17.415  0.00  0.00    +0.000 C 
ATOM     24  C   UNL     1       5.691   6.165  16.751  0.00  0.00    +0.000 A 
ATOM     25  C   UNL     1       4.824   5.097  16.971  0.00  0.00    +0.000 A 
ENDBRANCH  18  19
ENDBRANCH  17  18
ENDBRANCH  16  17
ENDBRANCH   2  16
TORSDOF 8
ENDMDL
MODEL 4
REMARK VINA RESULT:      -7.4      4.046      6.974
REMARK  Name = 
REMARK  10 active torsions:
REMARK  status: ('A' for Active; 'I' for Inactive)
REMARK    1  A    between atoms: C_1  and  C_2
REMARK    2  A    between atoms: C_2  and  O_3
REMARK    3  A    between atoms: O_3  and  C_4
REMARK    4  A    between atoms: C_4  and  C_6
REMARK    5  A    between atoms: C_9  and  N_10
REMARK    6  A    between atoms: C_11  and  C_13
REMARK    7  A    between atoms: C_13  and  C_14
REMARK    8  A    between atoms: C_14  and  O_15
REMARK    9  A    between atoms: O_15  and  C_16
REMARK   10  A    between atoms: C_19  and  C_20
REMARK                            x       y       z     vdW  Elec       q    Type
REMARK                         _______ _______ _______ _____ _____    ______ ____
ROOT
ATOM      1  N   UNL     1       2.878   5.750  19.977  0.00  0.00    +0.000 N 
ATOM      2  C   UNL     1       2.459   4.511  19.519  0.00  0.00    +0.000 C 
ATOM      3  O   UNL     1       1.480   4.319  18.799  0.00  0.00    +0.000 OA
ATOM      4  H   UNL     1       3.699   5.801  20.564  0.00  0.00    +0.000 HD
ENDROOT
BRANCH   1   8
ATOM      5  C   UNL     1       1.195   9.495  19.027  0.00  0.00    +0.000 A 
ATOM      6  C   UNL     1       1.040   8.978  20.315  0.00  0.00    +0.000 A 
ATOM      7  C   UNL     1       1.591   7.743  20.656  0.00  0.00    +0.000 A 
ATOM      8  C   UNL     1       2.310   7.010  19.714  0.00  0.00    +0.000 A 
ATOM      9  C   UNL     1       2.483   7.536  18.424  0.00  0.00    +0.000 A 
ATOM     10  C   UNL     1       1.928   8.771  18.077  0.00  0.00    +0.000 A 
BRANCH   5  11
ATOM     11  C   UNL     1       0.492  10.761  18.706  0.00  0.00    +0.000 C 
ATOM     12  O   UNL     1       0.990  11.863  18.865  0.00  0.00    +0.000 OA
BRANCH  11  13
ATOM     13  O   UNL     1      -0.794  10.503  18.368  0.00  0.00    +0.000 OA
BRANCH  13  15
ATOM     14  C   UNL     1      -2.984  11.297  17.863  0.00  0.00    +0.000 C 
ATOM     15  C   UNL     1      -1.710  11.570  18.644  0.00  0.00    +0.000 C 
ENDBRANCH  13  15
ENDBRANCH  11  13
ENDBRANCH   5  11
ENDBRANCH   1   8
BRANCH   2  16
ATOM     16  C   UNL     1       3.286   3.303  19.954  0.00  0.00    +0.000 C 
BRANCH  16  17
ATOM     17  C   UNL     1       4.727   3.344  19.492  0.00  0.00    +0.000 C 
BRANCH  17  18
ATOM     18  O   UNL     1       4.860   3.835  18.163  0.00  0.00    +0.000 OA
BRANCH  18  19
ATOM     19  C   UNL     1       5.696   4.925  18.091  0.00  0.00    +0.000 A 
ATOM     20  C   UNL     1       5.310   5.933  17.211  0.00  0.00    +0.000 A 
ATOM     21  C   UNL     1       6.105   7.074  17.059  0.00  0.00    +0.000 A 
ATOM     22  C   UNL     1       7.288   7.219  17.793  0.00  0.00    +0.000 A 
ATOM     23  C   UNL     1       8.148   8.439  17.659  0.00  0.00    +0.000 C 
ATOM     24  C   UNL     1       7.663   6.213  18.684  0.00  0.00    +0.000 A 
ATOM     25  C   UNL     1       6.870   5.078  18.838  0.00  0.00    +0.000 A 
ENDBRANCH  18  19
ENDBRANCH  17  18
ENDBRANCH  16  17
ENDBRANCH   2  16
TORSDOF 8
ENDMDL
MODEL 5
REMARK VINA RESULT:      -7.4      5.346      7.736
REMARK  Name = 
REMARK  10 active torsions:
REMARK  status: ('A' for Active; 'I' for Inactive)
REMARK    1  A    between atoms: C_1  and  C_2
REMARK    2  A    between atoms: C_2  and  O_3
REMARK    3  A    between atoms: O_3  and  C_4
REMARK    4  A    between atoms: C_4  and  C_6
REMARK    5  A    between atoms: C_9  and  N_10
REMARK    6  A    between atoms: C_11  and  C_13
REMARK    7  A    between atoms: C_13  and  C_14
REMARK    8  A    between atoms: C_14  and  O_15
REMARK    9  A    between atoms: O_15  and  C_16
REMARK   10  A    between atoms: C_19  and  C_20
REMARK                            x       y       z     vdW  Elec       q    Type
REMARK                         _______ _______ _______ _____ _____    ______ ____
ROOT
ATOM      1  N   UNL     1       2.889   5.531  20.318  0.00  0.00    +0.000 N 
ATOM      2  C   UNL     1       2.364   4.270  20.087  0.00  0.00    +0.000 C 
ATOM      3  O   UNL     1       1.284   4.045  19.539  0.00  0.00    +0.000 OA
ATOM      4  H   UNL     1       3.788   5.609  20.774  0.00  0.00    +0.000 HD
ENDROOT
BRANCH   1   8
ATOM      5  C   UNL     1       1.254   9.229  19.132  0.00  0.00    +0.000 A 
ATOM      6  C   UNL     1       1.074   8.787  20.444  0.00  0.00    +0.000 A 
ATOM      7  C   UNL     1       1.609   7.569  20.863  0.00  0.00    +0.000 A 
ATOM      8  C   UNL     1       2.336   6.779  19.976  0.00  0.00    +0.000 A 
ATOM      9  C   UNL     1       2.534   7.229  18.661  0.00  0.00    +0.000 A 
ATOM     10  C   UNL     1       1.994   8.447  18.236  0.00  0.00    +0.000 A 
BRANCH   5  11
ATOM     11  C   UNL     1       0.566  10.481  18.730  0.00  0.00    +0.000 C 
ATOM     12  O   UNL     1      -0.328  10.518  17.901  0.00  0.00    +0.000 OA
BRANCH  11  13
ATOM     13  O   UNL     1       1.176  11.548  19.299  0.00  0.00    +0.000 OA
BRANCH  13  15
ATOM     14  C   UNL     1      -0.307  12.181  21.053  0.00  0.00    +0.000 C 
ATOM     15  C   UNL     1       0.288  12.591  19.717  0.00  0.00    +0.000 C 
ENDBRANCH  13  15
ENDBRANCH  11  13
ENDBRANCH   5  11
ENDBRANCH   1   8
BRANCH   2  16
ATOM     16  C   UNL     1       3.199   3.081  20.555  0.00  0.00    +0.000 C 
BRANCH  16  17
ATOM     17  C   UNL     1       4.444   2.840  19.730  0.00  0.00    +0.000 C 
BRANCH  17  18
ATOM     18  O   UNL     1       5.181   4.034  19.492  0.00  0.00    +0.000 OA
BRANCH  18  19
ATOM     19  C   UNL     1       5.511   4.188  18.166  0.00  0.00    +0.000 A 
ATOM     20  C   UNL     1       6.833   4.535  17.902  0.00  0.00    +0.000 A 
ATOM     21  C   UNL     1       7.259   4.729  16.583  0.00  0.00    +0.000 A 
ATOM     22  C   UNL     1       6.366   4.567  15.517  0.00  0.00    +0.000 A 
ATOM     23  C   UNL     1       6.801   4.754  14.095  0.00  0.00    +0.000 C 
ATOM     24  C   UNL     1       5.045   4.205  15.786  0.00  0.00    +0.000 A 
ATOM     25  C   UNL     1       4.622   4.009  17.099  0.00  0.00    +0.000 A 
ENDBRANCH  18  19
ENDBRANCH  17  18
ENDBRANCH  16  17
ENDBRANCH   2  16
TORSDOF 8
ENDMDL
MODEL 6
REMARK VINA RESULT:      -7.3      4.896      8.581
REMARK  Name = 
REMARK  10 active torsions:
REMARK  status: ('A' for Active; 'I' for Inactive)
REMARK    1  A    between atoms: C_1  and  C_2
REMARK    2  A    between atoms: C_2  and  O_3
REMARK    3  A    between atoms: O_3  and  C_4
REMARK    4  A    between atoms: C_4  and  C_6
REMARK    5  A    between atoms: C_9  and  N_10
REMARK    6  A    between atoms: C_11  and  C_13
REMARK    7  A    between atoms: C_13  and  C_14
REMARK    8  A    between atoms: C_14  and  O_15
REMARK    9  A    between atoms: O_15  and  C_16
REMARK   10  A    between atoms: C_19  and  C_20
REMARK                            x       y       z     vdW  Elec       q    Type
REMARK                         _______ _______ _______ _____ _____    ______ ____
ROOT
ATOM      1  N   UNL     1       3.583   6.381  18.811  0.00  0.00    +0.000 N 
ATOM      2  C   UNL     1       2.536   7.289  18.780  0.00  0.00    +0.000 C 
ATOM      3  O   UNL     1       2.187   7.930  17.789  0.00  0.00    +0.000 OA
ATOM      4  H   UNL     1       3.789   5.903  19.678  0.00  0.00    +0.000 HD
ENDROOT
BRANCH   1   8
ATOM      5  C   UNL     1       5.997   5.117  15.597  0.00  0.00    +0.000 A 
ATOM      6  C   UNL     1       6.321   6.291  16.281  0.00  0.00    +0.000 A 
ATOM      7  C   UNL     1       5.541   6.729  17.351  0.00  0.00    +0.000 A 
ATOM      8  C   UNL     1       4.428   5.994  17.755  0.00  0.00    +0.000 A 
ATOM      9  C   UNL     1       4.111   4.805  17.082  0.00  0.00    +0.000 A 
ATOM     10  C   UNL     1       4.888   4.365  16.006  0.00  0.00    +0.000 A 
BRANCH   5  11
ATOM     11  C   UNL     1       6.809   4.771  14.404  0.00  0.00    +0.000 C 
ATOM     12  O   UNL     1       7.804   5.390  14.069  0.00  0.00    +0.000 OA
BRANCH  11  13
ATOM     13  O   UNL     1       6.197   3.791  13.696  0.00  0.00    +0.000 OA
BRANCH  13  15
ATOM     14  C   UNL     1       6.033   2.413  11.759  0.00  0.00    +0.000 C 
ATOM     15  C   UNL     1       6.604   3.702  12.326  0.00  0.00    +0.000 C 
ENDBRANCH  13  15
ENDBRANCH  11  13
ENDBRANCH   5  11
ENDBRANCH   1   8
BRANCH   2  16
ATOM     16  C   UNL     1       1.772   7.501  20.084  0.00  0.00    +0.000 C 
BRANCH  16  17
ATOM     17  C   UNL     1       1.769   6.295  20.999  0.00  0.00    +0.000 C 
BRANCH  17  18
ATOM     18  O   UNL     1       0.885   5.273  20.552  0.00  0.00    +0.000 OA
BRANCH  18  19
ATOM     19  C   UNL     1       1.556   4.201  20.013  0.00  0.00    +0.000 A 
ATOM     20  C   UNL     1       2.749   3.849  20.641  0.00  0.00    +0.000 A 
ATOM     21  C   UNL     1       3.509   2.781  20.154  0.00  0.00    +0.000 A 
ATOM     22  C   UNL     1       3.077   2.050  19.041  0.00  0.00    +0.000 A 
ATOM     23  C   UNL     1       3.867   0.891  18.511  0.00  0.00    +0.000 C 
ATOM     24  C   UNL     1       1.874   2.396  18.425  0.00  0.00    +0.000 A 
ATOM     25  C   UNL     1       1.115   3.459  18.912  0.00  0.00    +0.000 A 
ENDBRANCH  18  19
ENDBRANCH  17  18
ENDBRANCH  16  17
ENDBRANCH   2  16
TORSDOF 8
ENDMDL
MODEL 7
REMARK VINA RESULT:      -7.3      5.142      8.021
REMARK  Name = 
REMARK  10 active torsions:
REMARK  status: ('A' for Active; 'I' for Inactive)
REMARK    1  A    between atoms: C_1  and  C_2
REMARK    2  A    between atoms: C_2  and  O_3
REMARK    3  A    between atoms: O_3  and  C_4
REMARK    4  A    between atoms: C_4  and  C_6
REMARK    5  A    between atoms: C_9  and  N_10
REMARK    6  A    between atoms: C_11  and  C_13
REMARK    7  A    between atoms: C_13  and  C_14
REMARK    8  A    between atoms: C_14  and  O_15
REMARK    9  A    between atoms: O_15  and  C_16
REMARK   10  A    between atoms: C_19  and  C_20
REMARK                            x       y       z     vdW  Elec       q    Type
REMARK                         _______ _______ _______ _____ _____    ______ ____
ROOT
ATOM      1  N   UNL     1       2.603   5.621  20.599  0.00  0.00    +0.000 N 
ATOM      2  C   UNL     1       1.901   4.429  20.688  0.00  0.00    +0.000 C 
ATOM      3  O   UNL     1       0.722   4.279  20.368  0.00  0.00    +0.000 OA
ATOM      4  H   UNL     1       3.572   5.640  20.887  0.00  0.00    +0.000 HD
ENDROOT
BRANCH   1   8
ATOM      5  C   UNL     1       1.203   9.391  19.340  0.00  0.00    +0.000 A 
ATOM      6  C   UNL     1       1.925   8.593  18.451  0.00  0.00    +0.000 A 
ATOM      7  C   UNL     1       2.396   7.340  18.841  0.00  0.00    +0.000 A 
ATOM      8  C   UNL     1       2.145   6.865  20.126  0.00  0.00    +0.000 A 
ATOM      9  C   UNL     1       1.404   7.657  21.017  0.00  0.00    +0.000 A 
ATOM     10  C   UNL     1       0.935   8.916  20.631  0.00  0.00    +0.000 A 
BRANCH   5  11
ATOM     11  C   UNL     1       0.828  10.754  18.891  0.00  0.00    +0.000 C 
ATOM     12  O   UNL     1      -0.157  10.988  18.210  0.00  0.00    +0.000 OA
BRANCH  11  13
ATOM     13  O   UNL     1       1.803  11.635  19.219  0.00  0.00    +0.000 OA
BRANCH  13  15
ATOM     14  C   UNL     1       1.595  13.943  18.664  0.00  0.00    +0.000 C 
ATOM     15  C   UNL     1       2.112  12.592  18.199  0.00  0.00    +0.000 C 
ENDBRANCH  13  15
ENDBRANCH  11  13
ENDBRANCH   5  11
ENDBRANCH   1   8
BRANCH   2  16
ATOM     16  C   UNL     1       2.664   3.222  21.229  0.00  0.00    +0.000 C 
BRANCH  16  17
ATOM     17  C   UNL     1       3.479   2.491  20.185  0.00  0.00    +0.000 C 
BRANCH  17  18
ATOM     18  O   UNL     1       4.776   3.051  20.014  0.00  0.00    +0.000 OA
BRANCH  18  19
ATOM     19  C   UNL     1       4.857   3.848  18.896  0.00  0.00    +0.000 A 
ATOM     20  C   UNL     1       5.630   5.000  19.022  0.00  0.00    +0.000 A 
ATOM     21  C   UNL     1       5.759   5.881  17.943  0.00  0.00    +0.000 A 
ATOM     22  C   UNL     1       5.124   5.610  16.725  0.00  0.00    +0.000 A 
ATOM     23  C   UNL     1       5.261   6.529  15.549  0.00  0.00    +0.000 C 
ATOM     24  C   UNL     1       4.364   4.446  16.598  0.00  0.00    +0.000 A 
ATOM     25  C   UNL     1       4.238   3.568  17.673  0.00  0.00    +0.000 A 
ENDBRANCH  18  19
ENDBRANCH  17  18
ENDBRANCH  16  17
ENDBRANCH   2  16
TORSDOF 8
ENDMDL
MODEL 8
REMARK VINA RESULT:      -7.3      5.089      8.483
REMARK  Name = 
REMARK  10 active torsions:
REMARK  status: ('A' for Active; 'I' for Inactive)
REMARK    1  A    between atoms: C_1  and  C_2
REMARK    2  A    between atoms: C_2  and  O_3
REMARK    3  A    between atoms: O_3  and  C_4
REMARK    4  A    between atoms: C_4  and  C_6
REMARK    5  A    between atoms: C_9  and  N_10
REMARK    6  A    between atoms: C_11  and  C_13
REMARK    7  A    between atoms: C_13  and  C_14
REMARK    8  A    between atoms: C_14  and  O_15
REMARK    9  A    between atoms: O_15  and  C_16
REMARK   10  A    between atoms: C_19  and  C_20
REMARK                            x       y       z     vdW  Elec       q    Type
REMARK                         _______ _______ _______ _____ _____    ______ ____
ROOT
ATOM      1  N   UNL     1       3.507   6.368  17.477  0.00  0.00    +0.000 N 
ATOM      2  C   UNL     1       4.833   6.488  17.092  0.00  0.00    +0.000 C 
ATOM      3  O   UNL     1       5.563   7.440  17.365  0.00  0.00    +0.000 OA
ATOM      4  H   UNL     1       2.992   5.543  17.203  0.00  0.00    +0.000 HD
ENDROOT
BRANCH   1   8
ATOM      5  C   UNL     1       1.264   8.967  19.922  0.00  0.00    +0.000 A 
ATOM      6  C   UNL     1       1.532   9.326  18.599  0.00  0.00    +0.000 A 
ATOM      7  C   UNL     1       2.268   8.482  17.768  0.00  0.00    +0.000 A 
ATOM      8  C   UNL     1       2.742   7.263  18.248  0.00  0.00    +0.000 A 
ATOM      9  C   UNL     1       2.459   6.891  19.571  0.00  0.00    +0.000 A 
ATOM     10  C   UNL     1       1.726   7.737  20.409  0.00  0.00    +0.000 A 
BRANCH   5  11
ATOM     11  C   UNL     1       0.569   9.961  20.776  0.00  0.00    +0.000 C 
ATOM     12  O   UNL     1       0.017   9.674  21.825  0.00  0.00    +0.000 OA
BRANCH  11  13
ATOM     13  O   UNL     1       0.521  11.160  20.146  0.00  0.00    +0.000 OA
BRANCH  13  15
ATOM     14  C   UNL     1      -1.575  11.348  19.030  0.00  0.00    +0.000 C 
ATOM     15  C   UNL     1      -0.748  11.819  20.214  0.00  0.00    +0.000 C 
ENDBRANCH  13  15
ENDBRANCH  11  13
ENDBRANCH   5  11
ENDBRANCH   1   8
BRANCH   2  16
ATOM     16  C   UNL     1       5.414   5.344  16.266  0.00  0.00    +0.000 C 
BRANCH  16  17
ATOM     17  C   UNL     1       5.358   3.997  16.954  0.00  0.00    +0.000 C 
BRANCH  17  18
ATOM     18  O   UNL     1       4.128   3.318  16.727  0.00  0.00    +0.000 OA
BRANCH  18  19
ATOM     19  C   UNL     1       3.392   3.174  17.879  0.00  0.00    +0.000 A 
ATOM     20  C   UNL     1       4.122   3.023  19.056  0.00  0.00    +0.000 A 
ATOM     21  C   UNL     1       3.460   2.854  20.276  0.00  0.00    +0.000 A 
ATOM     22  C   UNL     1       2.061   2.845  20.331  0.00  0.00    +0.000 A 
ATOM     23  C   UNL     1       1.329   2.682  21.629  0.00  0.00    +0.000 C 
ATOM     24  C   UNL     1       1.333   3.012  19.152  0.00  0.00    +0.000 A 
ATOM     25  C   UNL     1       1.993   3.183  17.936  0.00  0.00    +0.000 A 
ENDBRANCH  18  19
ENDBRANCH  17  18
ENDBRANCH  16  17
ENDBRANCH   2  16
TORSDOF 8
ENDMDL
MODEL 9
REMARK VINA RESULT:      -7.3      4.104      6.415
REMARK  Name = 
REMARK  10 active torsions:
REMARK  status: ('A' for Active; 'I' for Inactive)
REMARK    1  A    between atoms: C_1  and  C_2
REMARK    2  A    between atoms: C_2  and  O_3
REMARK    3  A    between atoms: O_3  and  C_4
REMARK    4  A    between atoms: C_4  and  C_6
REMARK    5  A    between atoms: C_9  and  N_10
REMARK    6  A    between atoms: C_11  and  C_13
REMARK    7  A    between atoms: C_13  and  C_14
REMARK    8  A    between atoms: C_14  and  O_15
REMARK    9  A    between atoms: O_15  and  C_16
REMARK   10  A    between atoms: C_19  and  C_20
REMARK                            x       y       z     vdW  Elec       q    Type
REMARK                         _______ _______ _______ _____ _____    ______ ____
ROOT
ATOM      1  N   UNL     1       3.217   6.167  18.641  0.00  0.00    +0.000 N 
ATOM      2  C   UNL     1       2.763   4.962  18.130  0.00  0.00    +0.000 C 
ATOM      3  O   UNL     1       1.591   4.713  17.845  0.00  0.00    +0.000 OA
ATOM      4  H   UNL     1       4.203   6.272  18.840  0.00  0.00    +0.000 HD
ENDROOT
BRANCH   1   8
ATOM      5  C   UNL     1       0.976   9.673  19.304  0.00  0.00    +0.000 A 
ATOM      6  C   UNL     1       1.162   8.768  20.351  0.00  0.00    +0.000 A 
ATOM      7  C   UNL     1       1.904   7.602  20.159  0.00  0.00    +0.000 A 
ATOM      8  C   UNL     1       2.474   7.329  18.917  0.00  0.00    +0.000 A 
ATOM      9  C   UNL     1       2.303   8.246  17.868  0.00  0.00    +0.000 A 
ATOM     10  C   UNL     1       1.556   9.413  18.056  0.00  0.00    +0.000 A 
BRANCH   5  11
ATOM     11  C   UNL     1       0.088  10.836  19.552  0.00  0.00    +0.000 C 
ATOM     12  O   UNL     1       0.257  11.930  19.042  0.00  0.00    +0.000 OA
BRANCH  11  13
ATOM     13  O   UNL     1      -0.814  10.532  20.517  0.00  0.00    +0.000 OA
BRANCH  13  15
ATOM     14  C   UNL     1      -0.882  10.688  22.894  0.00  0.00    +0.000 C 
ATOM     15  C   UNL     1      -0.876  11.474  21.594  0.00  0.00    +0.000 C 
ENDBRANCH  13  15
ENDBRANCH  11  13
ENDBRANCH   5  11
ENDBRANCH   1   8
BRANCH   2  16
ATOM     16  C   UNL     1       3.807   3.870  17.913  0.00  0.00    +0.000 C 
BRANCH  16  17
ATOM     17  C   UNL     1       4.986   3.949  18.859  0.00  0.00    +0.000 C 
BRANCH  17  18
ATOM     18  O   UNL     1       6.233   3.996  18.174  0.00  0.00    +0.000 OA
BRANCH  18  19
ATOM     19  C   UNL     1       6.720   5.277  18.063  0.00  0.00    +0.000 A 
ATOM     20  C   UNL     1       7.720   5.629  18.965  0.00  0.00    +0.000 A 
ATOM     21  C   UNL     1       8.267   6.917  18.939  0.00  0.00    +0.000 A 
ATOM     22  C   UNL     1       7.823   7.858  18.003  0.00  0.00    +0.000 A 
ATOM     23  C   UNL     1       8.405   9.239  17.945  0.00  0.00    +0.000 C 
ATOM     24  C   UNL     1       6.831   7.496  17.091  0.00  0.00    +0.000 A 
ATOM     25  C   UNL     1       6.289   6.212  17.115  0.00  0.00    +0.000 A 
ENDBRANCH  18  19
ENDBRANCH  17  18
ENDBRANCH  16  17
ENDBRANCH   2  16
TORSDOF 8
ENDMDL
