MODEL 1
REMARK VINA RESULT:      -8.1      0.000      0.000
REMARK  Name = 
REMARK  4 active torsions:
REMARK  status: ('A' for Active; 'I' for Inactive)
REMARK    1  A    between atoms: C_1  and  C_2
REMARK    2  A    between atoms: C_10  and  C_11
REMARK    3  A    between atoms: C_11  and  N_12
REMARK    4  A    between atoms: N_16  and  C_17
REMARK                            x       y       z     vdW  Elec       q    Type
REMARK                         _______ _______ _______ _____ _____    ______ ____
ROOT
ATOM      1  N   UNL     1       6.053   5.882  17.610  0.00  0.00    +0.000 N 
ATOM      2  C   UNL     1       7.056   5.023  17.924  0.00  0.00    +0.000 C 
ATOM      3  O   UNL     1       7.444   4.742  19.060  0.00  0.00    +0.000 OA
ATOM      4  C   UNL     1       7.640   4.432  16.658  0.00  0.00    +0.000 C 
ATOM      5  N   UNL     1       6.822   5.080  15.664  0.00  0.00    +0.000 N 
ATOM      6  C   UNL     1       5.888   5.942  16.259  0.00  0.00    +0.000 C 
ATOM      7  O   UNL     1       5.020   6.600  15.693  0.00  0.00    +0.000 OA
ENDROOT
BRANCH   5   8
ATOM      8  C   UNL     1       6.841   4.761  14.291  0.00  0.00    +0.000 A 
ATOM      9  C   UNL     1       5.968   3.780  13.811  0.00  0.00    +0.000 A 
ATOM     10  C   UNL     1       6.008   3.352  12.494  0.00  0.00    +0.000 A 
ATOM     11  C   UNL     1       6.898   3.948  11.612  0.00  0.00    +0.000 A 
ATOM     12  C   UNL     1       7.748   4.962  12.053  0.00  0.00    +0.000 A 
ATOM     13  C   UNL     1       7.731   5.362  13.393  0.00  0.00    +0.000 A 
ENDBRANCH   5   8
BRANCH   1  14
ATOM     14  C   UNL     1       5.136   6.466  18.568  0.00  0.00    +0.000 C 
BRANCH  14  24
ATOM     15  C   UNL     1       2.370   7.916  17.913  0.00  0.00    +0.000 C 
ATOM     16  C   UNL     1       2.589   6.477  18.199  0.00  0.00    +0.000 A 
ATOM     17  N   UNL     1       1.555   5.577  18.118  0.00  0.00    +0.000 NA
ATOM     18  C   UNL     1       2.083   4.402  18.392  0.00  0.00    +0.000 A 
ATOM     19  C   UNL     1       1.491   3.102  18.426  0.00  0.00    +0.000 A 
ATOM     20  C   UNL     1       2.235   2.021  18.734  0.00  0.00    +0.000 A 
ATOM     21  C   UNL     1       3.640   2.162  19.058  0.00  0.00    +0.000 A 
ATOM     22  C   UNL     1       4.187   3.375  19.073  0.00  0.00    +0.000 A 
ATOM     23  N   UNL     1       3.442   4.508  18.707  0.00  0.00    +0.000 N 
ATOM     24  C   UNL     1       3.779   5.851  18.539  0.00  0.00    +0.000 A 
ENDBRANCH  14  24
ENDBRANCH   1  14
TORSDOF 3
ENDMDL
MODEL 2
REMARK VINA RESULT:      -7.5      1.572      3.117
REMARK  Name = 
REMARK  4 active torsions:
REMARK  status: ('A' for Active; 'I' for Inactive)
REMARK    1  A    between atoms: C_1  and  C_2
REMARK    2  A    between atoms: C_10  and  C_11
REMARK    3  A    between atoms: C_11  and  N_12
REMARK    4  A    between atoms: N_16  and  C_17
REMARK                            x       y       z     vdW  Elec       q    Type
REMARK                         _______ _______ _______ _____ _____    ______ ____
ROOT
ATOM      1  N   UNL     1       5.180   4.273  18.082  0.00  0.00    +0.000 N 
ATOM      2  C   UNL     1       6.394   4.793  18.392  0.00  0.00    +0.000 C 
ATOM      3  O   UNL     1       6.815   5.031  19.526  0.00  0.00    +0.000 OA
ATOM      4  C   UNL     1       7.186   5.036  17.125  0.00  0.00    +0.000 C 
ATOM      5  N   UNL     1       6.245   4.578  16.135  0.00  0.00    +0.000 N 
ATOM      6  C   UNL     1       5.056   4.132  16.733  0.00  0.00    +0.000 C 
ATOM      7  O   UNL     1       4.082   3.640  16.171  0.00  0.00    +0.000 OA
ENDROOT
BRANCH   5   8
ATOM      8  C   UNL     1       6.542   4.433  14.764  0.00  0.00    +0.000 A 
ATOM      9  C   UNL     1       7.541   5.232  14.200  0.00  0.00    +0.000 A 
ATOM     10  C   UNL     1       7.809   5.208  12.840  0.00  0.00    +0.000 A 
ATOM     11  C   UNL     1       7.109   4.332  12.023  0.00  0.00    +0.000 A 
ATOM     12  C   UNL     1       6.139   3.491  12.568  0.00  0.00    +0.000 A 
ATOM     13  C   UNL     1       5.845   3.547  13.935  0.00  0.00    +0.000 A 
ENDBRANCH   5   8
BRANCH   1  14
ATOM     14  C   UNL     1       4.246   3.724  19.046  0.00  0.00    +0.000 C 
BRANCH  14  24
ATOM     15  C   UNL     1       2.322   3.458  21.577  0.00  0.00    +0.000 C 
ATOM     16  C   UNL     1       2.442   4.612  20.652  0.00  0.00    +0.000 A 
ATOM     17  N   UNL     1       1.742   5.771  20.876  0.00  0.00    +0.000 NA
ATOM     18  C   UNL     1       2.093   6.593  19.909  0.00  0.00    +0.000 A 
ATOM     19  C   UNL     1       1.707   7.944  19.651  0.00  0.00    +0.000 A 
ATOM     20  C   UNL     1       2.202   8.603  18.585  0.00  0.00    +0.000 A 
ATOM     21  C   UNL     1       3.113   7.946  17.670  0.00  0.00    +0.000 A 
ATOM     22  C   UNL     1       3.440   6.674  17.878  0.00  0.00    +0.000 A 
ATOM     23  N   UNL     1       2.976   5.983  19.010  0.00  0.00    +0.000 N 
ATOM     24  C   UNL     1       3.235   4.711  19.518  0.00  0.00    +0.000 A 
ENDBRANCH  14  24
ENDBRANCH   1  14
TORSDOF 3
ENDMDL
MODEL 3
REMARK VINA RESULT:      -7.4      1.533      2.926
REMARK  Name = 
REMARK  4 active torsions:
REMARK  status: ('A' for Active; 'I' for Inactive)
REMARK    1  A    between atoms: C_1  and  C_2
REMARK    2  A    between atoms: C_10  and  C_11
REMARK    3  A    between atoms: C_11  and  N_12
REMARK    4  A    between atoms: N_16  and  C_17
REMARK                            x       y       z     vdW  Elec       q    Type
REMARK                         _______ _______ _______ _____ _____    ______ ____
ROOT
ATOM      1  N   UNL     1       5.253   4.208  17.984  0.00  0.00    +0.000 N 
ATOM      2  C   UNL     1       6.460   4.743  18.301  0.00  0.00    +0.000 C 
ATOM      3  O   UNL     1       6.893   4.938  19.438  0.00  0.00    +0.000 OA
ATOM      4  C   UNL     1       7.226   5.064  17.035  0.00  0.00    +0.000 C 
ATOM      5  N   UNL     1       6.280   4.631  16.038  0.00  0.00    +0.000 N 
ATOM      6  C   UNL     1       5.112   4.128  16.632  0.00  0.00    +0.000 C 
ATOM      7  O   UNL     1       4.141   3.640  16.061  0.00  0.00    +0.000 OA
ENDROOT
BRANCH   5   8
ATOM      8  C   UNL     1       6.559   4.559  14.658  0.00  0.00    +0.000 A 
ATOM      9  C   UNL     1       5.848   3.649  13.870  0.00  0.00    +0.000 A 
ATOM     10  C   UNL     1       6.145   3.461  12.530  0.00  0.00    +0.000 A 
ATOM     11  C   UNL     1       7.137   4.230  11.938  0.00  0.00    +0.000 A 
ATOM     12  C   UNL     1       7.831   5.177  12.690  0.00  0.00    +0.000 A 
ATOM     13  C   UNL     1       7.553   5.336  14.052  0.00  0.00    +0.000 A 
ENDBRANCH   5   8
BRANCH   1  14
ATOM     14  C   UNL     1       4.348   3.592  18.934  0.00  0.00    +0.000 C 
BRANCH  14  24
ATOM     15  C   UNL     1       2.482   3.164  21.487  0.00  0.00    +0.000 C 
ATOM     16  C   UNL     1       2.555   4.361  20.613  0.00  0.00    +0.000 A 
ATOM     17  N   UNL     1       1.833   5.491  20.903  0.00  0.00    +0.000 NA
ATOM     18  C   UNL     1       2.144   6.364  19.967  0.00  0.00    +0.000 A 
ATOM     19  C   UNL     1       1.721   7.716  19.779  0.00  0.00    +0.000 A 
ATOM     20  C   UNL     1       2.178   8.434  18.735  0.00  0.00    +0.000 A 
ATOM     21  C   UNL     1       3.087   7.842  17.773  0.00  0.00    +0.000 A 
ATOM     22  C   UNL     1       3.448   6.570  17.917  0.00  0.00    +0.000 A 
ATOM     23  N   UNL     1       3.023   5.818  19.025  0.00  0.00    +0.000 N 
ATOM     24  C   UNL     1       3.323   4.530  19.470  0.00  0.00    +0.000 A 
ENDBRANCH  14  24
ENDBRANCH   1  14
TORSDOF 3
ENDMDL
MODEL 4
REMARK VINA RESULT:      -7.2      3.406      8.056
REMARK  Name = 
REMARK  4 active torsions:
REMARK  status: ('A' for Active; 'I' for Inactive)
REMARK    1  A    between atoms: C_1  and  C_2
REMARK    2  A    between atoms: C_10  and  C_11
REMARK    3  A    between atoms: C_11  and  N_12
REMARK    4  A    between atoms: N_16  and  C_17
REMARK                            x       y       z     vdW  Elec       q    Type
REMARK                         _______ _______ _______ _____ _____    ______ ____
ROOT
ATOM      1  N   UNL     1       2.233   7.260  18.738  0.00  0.00    +0.000 N 
ATOM      2  C   UNL     1       2.242   8.400  18.001  0.00  0.00    +0.000 C 
ATOM      3  O   UNL     1       2.674   8.520  16.853  0.00  0.00    +0.000 OA
ATOM      4  C   UNL     1       1.624   9.529  18.798  0.00  0.00    +0.000 C 
ATOM      5  N   UNL     1       1.294   8.840  20.019  0.00  0.00    +0.000 N 
ATOM      6  C   UNL     1       1.671   7.489  19.957  0.00  0.00    +0.000 C 
ATOM      7  O   UNL     1       1.486   6.628  20.812  0.00  0.00    +0.000 OA
ENDROOT
BRANCH   5   8
ATOM      8  C   UNL     1       0.537   9.401  21.068  0.00  0.00    +0.000 A 
ATOM      9  C   UNL     1      -0.352  10.442  20.780  0.00  0.00    +0.000 A 
ATOM     10  C   UNL     1      -1.048  11.100  21.781  0.00  0.00    +0.000 A 
ATOM     11  C   UNL     1      -0.904  10.685  23.097  0.00  0.00    +0.000 A 
ATOM     12  C   UNL     1      -0.059   9.619  23.406  0.00  0.00    +0.000 A 
ATOM     13  C   UNL     1       0.671   8.983  22.397  0.00  0.00    +0.000 A 
ENDBRANCH   5   8
BRANCH   1  14
ATOM     14  C   UNL     1       2.550   5.942  18.224  0.00  0.00    +0.000 C 
BRANCH  14  24
ATOM     15  C   UNL     1       3.168   3.391  20.039  0.00  0.00    +0.000 C 
ATOM     16  C   UNL     1       4.148   4.302  19.399  0.00  0.00    +0.000 A 
ATOM     17  N   UNL     1       5.496   4.054  19.475  0.00  0.00    +0.000 NA
ATOM     18  C   UNL     1       6.076   5.014  18.785  0.00  0.00    +0.000 A 
ATOM     19  C   UNL     1       7.456   5.248  18.496  0.00  0.00    +0.000 A 
ATOM     20  C   UNL     1       7.827   6.311  17.756  0.00  0.00    +0.000 A 
ATOM     21  C   UNL     1       6.836   7.246  17.260  0.00  0.00    +0.000 A 
ATOM     22  C   UNL     1       5.555   7.059  17.564  0.00  0.00    +0.000 A 
ATOM     23  N   UNL     1       5.141   5.931  18.293  0.00  0.00    +0.000 N 
ATOM     24  C   UNL     1       3.886   5.444  18.655  0.00  0.00    +0.000 A 
ENDBRANCH  14  24
ENDBRANCH   1  14
TORSDOF 3
ENDMDL
MODEL 5
REMARK VINA RESULT:      -7.1      4.807      7.686
REMARK  Name = 
REMARK  4 active torsions:
REMARK  status: ('A' for Active; 'I' for Inactive)
REMARK    1  A    between atoms: C_1  and  C_2
REMARK    2  A    between atoms: C_10  and  C_11
REMARK    3  A    between atoms: C_11  and  N_12
REMARK    4  A    between atoms: N_16  and  C_17
REMARK                            x       y       z     vdW  Elec       q    Type
REMARK                         _______ _______ _______ _____ _____    ______ ____
ROOT
ATOM      1  N   UNL     1       1.010   9.306  19.590  0.00  0.00    +0.000 N 
ATOM      2  C   UNL     1       1.115   8.514  20.687  0.00  0.00    +0.000 C 
ATOM      3  O   UNL     1       0.563   8.700  21.773  0.00  0.00    +0.000 OA
ATOM      4  C   UNL     1       2.015   7.335  20.384  0.00  0.00    +0.000 C 
ATOM      5  N   UNL     1       2.354   7.609  19.011  0.00  0.00    +0.000 N 
ATOM      6  C   UNL     1       1.744   8.792  18.564  0.00  0.00    +0.000 C 
ATOM      7  O   UNL     1       1.795   9.272  17.436  0.00  0.00    +0.000 OA
ENDROOT
BRANCH   5   8
ATOM      8  C   UNL     1       3.061   6.720  18.175  0.00  0.00    +0.000 A 
ATOM      9  C   UNL     1       2.665   5.381  18.122  0.00  0.00    +0.000 A 
ATOM     10  C   UNL     1       3.380   4.440  17.399  0.00  0.00    +0.000 A 
ATOM     11  C   UNL     1       4.486   4.842  16.664  0.00  0.00    +0.000 A 
ATOM     12  C   UNL     1       4.875   6.181  16.663  0.00  0.00    +0.000 A 
ATOM     13  C   UNL     1       4.174   7.120  17.426  0.00  0.00    +0.000 A 
ENDBRANCH   5   8
BRANCH   1  14
ATOM     14  C   UNL     1       0.070  10.400  19.448  0.00  0.00    +0.000 C 
BRANCH  14  24
ATOM     15  C   UNL     1      -0.794  11.648  22.255  0.00  0.00    +0.000 C 
ATOM     16  C   UNL     1       0.210  12.181  21.301  0.00  0.00    +0.000 A 
ATOM     17  N   UNL     1       0.959  13.289  21.611  0.00  0.00    +0.000 NA
ATOM     18  C   UNL     1       1.764  13.474  20.586  0.00  0.00    +0.000 A 
ATOM     19  C   UNL     1       2.781  14.454  20.367  0.00  0.00    +0.000 A 
ATOM     20  C   UNL     1       3.496  14.452  19.225  0.00  0.00    +0.000 A 
ATOM     21  C   UNL     1       3.230  13.473  18.190  0.00  0.00    +0.000 A 
ATOM     22  C   UNL     1       2.253  12.587  18.368  0.00  0.00    +0.000 A 
ATOM     23  N   UNL     1       1.530  12.539  19.571  0.00  0.00    +0.000 N 
ATOM     24  C   UNL     1       0.549  11.673  20.055  0.00  0.00    +0.000 A 
ENDBRANCH  14  24
ENDBRANCH   1  14
TORSDOF 3
ENDMDL
MODEL 6
REMARK VINA RESULT:      -7.1      1.800      6.707
REMARK  Name = 
REMARK  4 active torsions:
REMARK  status: ('A' for Active; 'I' for Inactive)
REMARK    1  A    between atoms: C_1  and  C_2
REMARK    2  A    between atoms: C_10  and  C_11
REMARK    3  A    between atoms: C_11  and  N_12
REMARK    4  A    between atoms: N_16  and  C_17
REMARK                            x       y       z     vdW  Elec       q    Type
REMARK                         _______ _______ _______ _____ _____    ______ ____
ROOT
ATOM      1  N   UNL     1       3.886   4.510  17.339  0.00  0.00    +0.000 N 
ATOM      2  C   UNL     1       2.660   3.931  17.383  0.00  0.00    +0.000 C 
ATOM      3  O   UNL     1       2.396   2.764  17.089  0.00  0.00    +0.000 OA
ATOM      4  C   UNL     1       1.636   4.936  17.867  0.00  0.00    +0.000 C 
ATOM      5  N   UNL     1       2.475   6.089  18.069  0.00  0.00    +0.000 N 
ATOM      6  C   UNL     1       3.811   5.808  17.744  0.00  0.00    +0.000 C 
ATOM      7  O   UNL     1       4.774   6.561  17.852  0.00  0.00    +0.000 OA
ENDROOT
BRANCH   5   8
ATOM      8  C   UNL     1       2.045   7.287  18.678  0.00  0.00    +0.000 A 
ATOM      9  C   UNL     1       1.860   7.314  20.063  0.00  0.00    +0.000 A 
ATOM     10  C   UNL     1       1.344   8.428  20.705  0.00  0.00    +0.000 A 
ATOM     11  C   UNL     1       1.053   9.566  19.967  0.00  0.00    +0.000 A 
ATOM     12  C   UNL     1       1.272   9.582  18.590  0.00  0.00    +0.000 A 
ATOM     13  C   UNL     1       1.756   8.441  17.940  0.00  0.00    +0.000 A 
ENDBRANCH   5   8
BRANCH   1  14
ATOM     14  C   UNL     1       5.130   3.796  17.127  0.00  0.00    +0.000 C 
BRANCH  14  24
ATOM     15  C   UNL     1       7.550   5.799  17.686  0.00  0.00    +0.000 C 
ATOM     16  C   UNL     1       7.103   5.267  16.375  0.00  0.00    +0.000 A 
ATOM     17  N   UNL     1       7.797   5.551  15.225  0.00  0.00    +0.000 NA
ATOM     18  C   UNL     1       7.170   4.909  14.262  0.00  0.00    +0.000 A 
ATOM     19  C   UNL     1       7.459   4.814  12.866  0.00  0.00    +0.000 A 
ATOM     20  C   UNL     1       6.669   4.086  12.053  0.00  0.00    +0.000 A 
ATOM     21  C   UNL     1       5.500   3.408  12.575  0.00  0.00    +0.000 A 
ATOM     22  C   UNL     1       5.198   3.530  13.865  0.00  0.00    +0.000 A 
ATOM     23  N   UNL     1       6.036   4.243  14.740  0.00  0.00    +0.000 N 
ATOM     24  C   UNL     1       6.018   4.441  16.120  0.00  0.00    +0.000 A 
ENDBRANCH  14  24
ENDBRANCH   1  14
TORSDOF 3
ENDMDL
MODEL 7
REMARK VINA RESULT:      -7.1      1.043      1.448
REMARK  Name = 
REMARK  4 active torsions:
REMARK  status: ('A' for Active; 'I' for Inactive)
REMARK    1  A    between atoms: C_1  and  C_2
REMARK    2  A    between atoms: C_10  and  C_11
REMARK    3  A    between atoms: C_11  and  N_12
REMARK    4  A    between atoms: N_16  and  C_17
REMARK                            x       y       z     vdW  Elec       q    Type
REMARK                         _______ _______ _______ _____ _____    ______ ____
ROOT
ATOM      1  N   UNL     1       5.466   6.044  17.935  0.00  0.00    +0.000 N 
ATOM      2  C   UNL     1       6.454   5.249  18.419  0.00  0.00    +0.000 C 
ATOM      3  O   UNL     1       6.711   5.050  19.608  0.00  0.00    +0.000 OA
ATOM      4  C   UNL     1       7.209   4.614  17.270  0.00  0.00    +0.000 C 
ATOM      5  N   UNL     1       6.495   5.168  16.148  0.00  0.00    +0.000 N 
ATOM      6  C   UNL     1       5.464   6.019  16.573  0.00  0.00    +0.000 C 
ATOM      7  O   UNL     1       4.648   6.605  15.868  0.00  0.00    +0.000 OA
ENDROOT
BRANCH   5   8
ATOM      8  C   UNL     1       6.693   4.773  14.809  0.00  0.00    +0.000 A 
ATOM      9  C   UNL     1       7.677   5.415  14.051  0.00  0.00    +0.000 A 
ATOM     10  C   UNL     1       7.850   5.142  12.704  0.00  0.00    +0.000 A 
ATOM     11  C   UNL     1       7.066   4.170  12.100  0.00  0.00    +0.000 A 
ATOM     12  C   UNL     1       6.107   3.482  12.844  0.00  0.00    +0.000 A 
ATOM     13  C   UNL     1       5.910   3.789  14.194  0.00  0.00    +0.000 A 
ENDBRANCH   5   8
BRANCH   1  14
ATOM     14  C   UNL     1       4.418   6.639  18.739  0.00  0.00    +0.000 C 
BRANCH  14  24
ATOM     15  C   UNL     1       1.910   7.198  20.631  0.00  0.00    +0.000 C 
ATOM     16  C   UNL     1       2.248   5.935  19.931  0.00  0.00    +0.000 A 
ATOM     17  N   UNL     1       1.404   4.853  19.980  0.00  0.00    +0.000 NA
ATOM     18  C   UNL     1       1.971   3.924  19.239  0.00  0.00    +0.000 A 
ATOM     19  C   UNL     1       1.532   2.606  18.905  0.00  0.00    +0.000 A 
ATOM     20  C   UNL     1       2.286   1.816  18.115  0.00  0.00    +0.000 A 
ATOM     21  C   UNL     1       3.563   2.280  17.612  0.00  0.00    +0.000 A 
ATOM     22  C   UNL     1       3.999   3.489  17.957  0.00  0.00    +0.000 A 
ATOM     23  N   UNL     1       3.207   4.347  18.738  0.00  0.00    +0.000 N 
ATOM     24  C   UNL     1       3.366   5.669  19.153  0.00  0.00    +0.000 A 
ENDBRANCH  14  24
ENDBRANCH   1  14
TORSDOF 3
ENDMDL
MODEL 8
REMARK VINA RESULT:      -7.0      5.108      7.836
REMARK  Name = 
REMARK  4 active torsions:
REMARK  status: ('A' for Active; 'I' for Inactive)
REMARK    1  A    between atoms: C_1  and  C_2
REMARK    2  A    between atoms: C_10  and  C_11
REMARK    3  A    between atoms: C_11  and  N_12
REMARK    4  A    between atoms: N_16  and  C_17
REMARK                            x       y       z     vdW  Elec       q    Type
REMARK                         _______ _______ _______ _____ _____    ______ ____
ROOT
ATOM      1  N   UNL     1       1.062   9.362  19.423  0.00  0.00    +0.000 N 
ATOM      2  C   UNL     1       1.128   8.646  20.574  0.00  0.00    +0.000 C 
ATOM      3  O   UNL     1       0.572   8.926  21.638  0.00  0.00    +0.000 OA
ATOM      4  C   UNL     1       1.990   7.419  20.365  0.00  0.00    +0.000 C 
ATOM      5  N   UNL     1       2.352   7.585  18.981  0.00  0.00    +0.000 N 
ATOM      6  C   UNL     1       1.788   8.753  18.445  0.00  0.00    +0.000 C 
ATOM      7  O   UNL     1       1.868   9.151  17.287  0.00  0.00    +0.000 OA
ENDROOT
BRANCH   5   8
ATOM      8  C   UNL     1       3.035   6.616  18.217  0.00  0.00    +0.000 A 
ATOM      9  C   UNL     1       2.467   5.347  18.066  0.00  0.00    +0.000 A 
ATOM     10  C   UNL     1       3.135   4.324  17.414  0.00  0.00    +0.000 A 
ATOM     11  C   UNL     1       4.377   4.575  16.848  0.00  0.00    +0.000 A 
ATOM     12  C   UNL     1       4.947   5.844  16.944  0.00  0.00    +0.000 A 
ATOM     13  C   UNL     1       4.285   6.863  17.637  0.00  0.00    +0.000 A 
ENDBRANCH   5   8
BRANCH   1  14
ATOM     14  C   UNL     1       0.164  10.476  19.194  0.00  0.00    +0.000 C 
BRANCH  14  24
ATOM     15  C   UNL     1       2.448  12.490  18.241  0.00  0.00    +0.000 C 
ATOM     16  C   UNL     1       1.553  12.632  19.415  0.00  0.00    +0.000 A 
ATOM     17  N   UNL     1       1.584  13.762  20.193  0.00  0.00    +0.000 NA
ATOM     18  C   UNL     1       0.658  13.588  21.113  0.00  0.00    +0.000 A 
ATOM     19  C   UNL     1       0.226  14.446  22.171  0.00  0.00    +0.000 A 
ATOM     20  C   UNL     1      -0.757  14.057  23.006  0.00  0.00    +0.000 A 
ATOM     21  C   UNL     1      -1.373  12.753  22.863  0.00  0.00    +0.000 A 
ATOM     22  C   UNL     1      -0.943  11.931  21.909  0.00  0.00    +0.000 A 
ATOM     23  N   UNL     1       0.045  12.336  20.996  0.00  0.00    +0.000 N 
ATOM     24  C   UNL     1       0.596  11.734  19.866  0.00  0.00    +0.000 A 
ENDBRANCH  14  24
ENDBRANCH   1  14
TORSDOF 3
ENDMDL
MODEL 9
REMARK VINA RESULT:      -7.0      4.548      7.311
REMARK  Name = 
REMARK  4 active torsions:
REMARK  status: ('A' for Active; 'I' for Inactive)
REMARK    1  A    between atoms: C_1  and  C_2
REMARK    2  A    between atoms: C_10  and  C_11
REMARK    3  A    between atoms: C_11  and  N_12
REMARK    4  A    between atoms: N_16  and  C_17
REMARK                            x       y       z     vdW  Elec       q    Type
REMARK                         _______ _______ _______ _____ _____    ______ ____
ROOT
ATOM      1  N   UNL     1       1.587   9.642  19.180  0.00  0.00    +0.000 N 
ATOM      2  C   UNL     1       1.323   9.040  20.367  0.00  0.00    +0.000 C 
ATOM      3  O   UNL     1       0.826   9.576  21.360  0.00  0.00    +0.000 OA
ATOM      4  C   UNL     1       1.721   7.581  20.300  0.00  0.00    +0.000 C 
ATOM      5  N   UNL     1       2.212   7.504  18.949  0.00  0.00    +0.000 N 
ATOM      6  C   UNL     1       2.124   8.748  18.305  0.00  0.00    +0.000 C 
ATOM      7  O   UNL     1       2.415   9.002  17.140  0.00  0.00    +0.000 OA
ENDROOT
BRANCH   5   8
ATOM      8  C   UNL     1       2.570   6.303  18.301  0.00  0.00    +0.000 A 
ATOM      9  C   UNL     1       1.616   5.289  18.178  0.00  0.00    +0.000 A 
ATOM     10  C   UNL     1       1.936   4.051  17.643  0.00  0.00    +0.000 A 
ATOM     11  C   UNL     1       3.219   3.826  17.168  0.00  0.00    +0.000 A 
ATOM     12  C   UNL     1       4.178   4.837  17.236  0.00  0.00    +0.000 A 
ATOM     13  C   UNL     1       3.861   6.071  17.813  0.00  0.00    +0.000 A 
ENDBRANCH   5   8
BRANCH   1  14
ATOM     14  C   UNL     1       1.145  10.974  18.813  0.00  0.00    +0.000 C 
BRANCH  14  24
ATOM     15  C   UNL     1      -0.213  12.742  21.096  0.00  0.00    +0.000 C 
ATOM     16  C   UNL     1      -0.891  12.011  19.997  0.00  0.00    +0.000 A 
ATOM     17  N   UNL     1      -2.248  12.112  19.814  0.00  0.00    +0.000 NA
ATOM     18  C   UNL     1      -2.521  11.383  18.752  0.00  0.00    +0.000 A 
ATOM     19  C   UNL     1      -3.760  11.144  18.082  0.00  0.00    +0.000 A 
ATOM     20  C   UNL     1      -3.804  10.352  16.993  0.00  0.00    +0.000 A 
ATOM     21  C   UNL     1      -2.603   9.711  16.498  0.00  0.00    +0.000 A 
ATOM     22  C   UNL     1      -1.455   9.892  17.145  0.00  0.00    +0.000 A 
ATOM     23  N   UNL     1      -1.376  10.753  18.252  0.00  0.00    +0.000 N 
ATOM     24  C   UNL     1      -0.311  11.196  19.036  0.00  0.00    +0.000 A 
ENDBRANCH  14  24
ENDBRANCH   1  14
TORSDOF 3
ENDMDL
