MODEL 1
REMARK VINA RESULT:      -6.2      0.000      0.000
REMARK  Name = 
REMARK  18 active torsions:
REMARK  status: ('A' for Active; 'I' for Inactive)
REMARK    1  A    between atoms: C_2  and  C_3
REMARK    2  A    between atoms: C_2  and  C_7
REMARK    3  A    between atoms: C_3  and  C_4
REMARK    4  A    between atoms: C_4  and  C_5
REMARK    5  A    between atoms: C_5  and  O_6
REMARK    6  A    between atoms: C_7  and  C_8
REMARK    7  A    between atoms: C_8  and  C_9
REMARK    8  A    between atoms: C_9  and  C_10
REMARK    9  A    between atoms: C_10  and  C_11
REMARK   10  A    between atoms: C_11  and  C_12
REMARK   11  A    between atoms: C_12  and  C_13
REMARK   12  A    between atoms: C_13  and  C_14
REMARK   13  A    between atoms: C_14  and  C_15
REMARK   14  A    between atoms: C_15  and  C_16
REMARK   15  A    between atoms: CA_18  and  C_19
REMARK   16  A    between atoms: C_19  and  O_20
REMARK   17  A    between atoms: C_21  and  O_22
REMARK   18  A    between atoms: C_23  and  O_24
REMARK                            x       y       z     vdW  Elec       q    Type
REMARK                         _______ _______ _______ _____ _____    ______ ____
ROOT
ATOM      1  C   UNL     1       4.912   5.038  16.621  0.00  0.00    +0.000 C 
ENDROOT
BRANCH   1   2
ATOM      2  C   UNL     1       4.121   3.743  16.795  0.00  0.00    +0.000 C 
BRANCH   2   3
ATOM      3  C   UNL     1       3.531   3.645  18.203  0.00  0.00    +0.000 C 
ATOM      4  N   UNL     1       3.053   4.948  18.710  0.00  0.00    +0.000 NA
ATOM      5  CA  UNL     1       1.857   4.666  19.548  0.00  0.00    +0.000 C 
ATOM      6  C   UNL     1       1.672   3.148  19.587  0.00  0.00    +0.000 C 
ATOM      7  C   UNL     1       2.330   2.701  18.279  0.00  0.00    +0.000 C 
ATOM      8  H   UNL     1       2.761   5.535  17.925  0.00  0.00    +0.000 HD
BRANCH   7   9
ATOM      9  O   UNL     1       2.718   1.331  18.298  0.00  0.00    +0.000 OA
ATOM     10  H   UNL     1       3.602   1.266  18.695  0.00  0.00    +0.000 HD
ENDBRANCH   7   9
BRANCH   6  11
ATOM     11  O   UNL     1       0.302   2.773  19.662  0.00  0.00    +0.000 OA
ATOM     12  H   UNL     1       0.115   2.457  20.562  0.00  0.00    +0.000 HD
ENDBRANCH   6  11
BRANCH   5  13
ATOM     13  C   UNL     1       2.037   5.269  20.944  0.00  0.00    +0.000 C 
BRANCH  13  14
ATOM     14  O   UNL     1       1.844   6.685  20.886  0.00  0.00    +0.000 OA
ATOM     15  H   UNL     1       2.504   6.998  20.236  0.00  0.00    +0.000 HD
ENDBRANCH  13  14
ENDBRANCH   5  13
ENDBRANCH   2   3
ENDBRANCH   1   2
BRANCH   1  16
ATOM     16  C   UNL     1       6.196   4.806  15.837  0.00  0.00    +0.000 C 
BRANCH  16  17
ATOM     17  C   UNL     1       7.400   4.962  16.757  0.00  0.00    +0.000 C 
BRANCH  17  18
ATOM     18  C   UNL     1       6.967   5.452  18.131  0.00  0.00    +0.000 C 
BRANCH  18  19
ATOM     19  C   UNL     1       7.737   6.708  18.515  0.00  0.00    +0.000 C 
BRANCH  19  20
ATOM     20  C   UNL     1       7.772   7.689  17.350  0.00  0.00    +0.000 C 
BRANCH  20  21
ATOM     21  C   UNL     1       7.867   9.121  17.863  0.00  0.00    +0.000 C 
BRANCH  21  22
ATOM     22  C   UNL     1       8.929   9.246  18.945  0.00  0.00    +0.000 C 
BRANCH  22  24
ATOM     23  O   UNL     1       9.426  11.338  20.049  0.00  0.00    +0.000 OA
ATOM     24  C   UNL     1       9.483  10.654  19.024  0.00  0.00    +0.000 C 
BRANCH  24  25
ATOM     25  C   UNL     1      10.085  11.224  17.762  0.00  0.00    +0.000 C 
BRANCH  25  26
ATOM     26  C   UNL     1      11.023  12.385  18.056  0.00  0.00    +0.000 C 
BRANCH  26  27
ATOM     27  C   UNL     1      10.602  13.686  17.381  0.00  0.00    +0.000 C 
BRANCH  27  28
ATOM     28  O   UNL     1      11.253  13.790  16.122  0.00  0.00    +0.000 OA
ATOM     29  H   UNL     1      10.794  14.475  15.609  0.00  0.00    +0.000 HD
ENDBRANCH  27  28
ENDBRANCH  26  27
ENDBRANCH  25  26
ENDBRANCH  24  25
ENDBRANCH  22  24
ENDBRANCH  21  22
ENDBRANCH  20  21
ENDBRANCH  19  20
ENDBRANCH  18  19
ENDBRANCH  17  18
ENDBRANCH  16  17
ENDBRANCH   1  16
TORSDOF 18
ENDMDL
MODEL 2
REMARK VINA RESULT:      -6.0      5.258      8.914
REMARK  Name = 
REMARK  18 active torsions:
REMARK  status: ('A' for Active; 'I' for Inactive)
REMARK    1  A    between atoms: C_2  and  C_3
REMARK    2  A    between atoms: C_2  and  C_7
REMARK    3  A    between atoms: C_3  and  C_4
REMARK    4  A    between atoms: C_4  and  C_5
REMARK    5  A    between atoms: C_5  and  O_6
REMARK    6  A    between atoms: C_7  and  C_8
REMARK    7  A    between atoms: C_8  and  C_9
REMARK    8  A    between atoms: C_9  and  C_10
REMARK    9  A    between atoms: C_10  and  C_11
REMARK   10  A    between atoms: C_11  and  C_12
REMARK   11  A    between atoms: C_12  and  C_13
REMARK   12  A    between atoms: C_13  and  C_14
REMARK   13  A    between atoms: C_14  and  C_15
REMARK   14  A    between atoms: C_15  and  C_16
REMARK   15  A    between atoms: CA_18  and  C_19
REMARK   16  A    between atoms: C_19  and  O_20
REMARK   17  A    between atoms: C_21  and  O_22
REMARK   18  A    between atoms: C_23  and  O_24
REMARK                            x       y       z     vdW  Elec       q    Type
REMARK                         _______ _______ _______ _____ _____    ______ ____
ROOT
ATOM      1  C   UNL     1       1.996   8.624  17.967  0.00  0.00    +0.000 C 
ENDROOT
BRANCH   1   2
ATOM      2  C   UNL     1       1.354   8.747  19.348  0.00  0.00    +0.000 C 
BRANCH   2   3
ATOM      3  C   UNL     1       0.830  10.164  19.585  0.00  0.00    +0.000 C 
ATOM      4  N   UNL     1      -0.248  10.536  18.646  0.00  0.00    +0.000 NA
ATOM      5  CA  UNL     1      -1.184  11.413  19.399  0.00  0.00    +0.000 C 
ATOM      6  C   UNL     1      -0.600  11.614  20.798  0.00  0.00    +0.000 C 
ATOM      7  C   UNL     1       0.248  10.353  20.988  0.00  0.00    +0.000 C 
ATOM      8  H   UNL     1      -0.758   9.696  18.361  0.00  0.00    +0.000 HD
BRANCH   7   9
ATOM      9  O   UNL     1       1.259  10.513  21.977  0.00  0.00    +0.000 OA
ATOM     10  H   UNL     1       2.114  10.265  21.588  0.00  0.00    +0.000 HD
ENDBRANCH   7   9
BRANCH   6  11
ATOM     11  O   UNL     1      -1.609  11.745  21.791  0.00  0.00    +0.000 OA
ATOM     12  H   UNL     1      -2.451  11.955  21.353  0.00  0.00    +0.000 HD
ENDBRANCH   6  11
BRANCH   5  13
ATOM     13  C   UNL     1      -1.384  12.735  18.653  0.00  0.00    +0.000 C 
BRANCH  13  14
ATOM     14  O   UNL     1      -1.219  12.526  17.248  0.00  0.00    +0.000 OA
ATOM     15  H   UNL     1      -1.504  13.367  16.837  0.00  0.00    +0.000 HD
ENDBRANCH  13  14
ENDBRANCH   5  13
ENDBRANCH   2   3
ENDBRANCH   1   2
BRANCH   1  16
ATOM     16  C   UNL     1       3.021   7.499  17.926  0.00  0.00    +0.000 C 
BRANCH  16  17
ATOM     17  C   UNL     1       2.749   6.508  19.051  0.00  0.00    +0.000 C 
BRANCH  17  18
ATOM     18  C   UNL     1       3.988   5.674  19.344  0.00  0.00    +0.000 C 
BRANCH  18  19
ATOM     19  C   UNL     1       4.952   5.723  18.168  0.00  0.00    +0.000 C 
BRANCH  19  20
ATOM     20  C   UNL     1       5.182   4.324  17.607  0.00  0.00    +0.000 C 
BRANCH  20  21
ATOM     21  C   UNL     1       3.935   3.829  16.884  0.00  0.00    +0.000 C 
BRANCH  21  22
ATOM     22  C   UNL     1       3.351   2.605  17.574  0.00  0.00    +0.000 C 
BRANCH  22  24
ATOM     23  O   UNL     1       1.162   3.628  17.598  0.00  0.00    +0.000 OA
ATOM     24  C   UNL     1       1.981   2.892  18.153  0.00  0.00    +0.000 C 
BRANCH  24  25
ATOM     25  C   UNL     1       1.657   2.263  19.488  0.00  0.00    +0.000 C 
BRANCH  25  26
ATOM     26  C   UNL     1       1.104   3.281  20.473  0.00  0.00    +0.000 C 
BRANCH  26  27
ATOM     27  C   UNL     1       2.062   3.593  21.618  0.00  0.00    +0.000 C 
BRANCH  27  28
ATOM     28  O   UNL     1       2.810   2.425  21.932  0.00  0.00    +0.000 OA
ATOM     29  H   UNL     1       2.780   2.307  22.895  0.00  0.00    +0.000 HD
ENDBRANCH  27  28
ENDBRANCH  26  27
ENDBRANCH  25  26
ENDBRANCH  24  25
ENDBRANCH  22  24
ENDBRANCH  21  22
ENDBRANCH  20  21
ENDBRANCH  19  20
ENDBRANCH  18  19
ENDBRANCH  17  18
ENDBRANCH  16  17
ENDBRANCH   1  16
TORSDOF 18
ENDMDL
MODEL 3
REMARK VINA RESULT:      -6.0      1.924      3.500
REMARK  Name = 
REMARK  18 active torsions:
REMARK  status: ('A' for Active; 'I' for Inactive)
REMARK    1  A    between atoms: C_2  and  C_3
REMARK    2  A    between atoms: C_2  and  C_7
REMARK    3  A    between atoms: C_3  and  C_4
REMARK    4  A    between atoms: C_4  and  C_5
REMARK    5  A    between atoms: C_5  and  O_6
REMARK    6  A    between atoms: C_7  and  C_8
REMARK    7  A    between atoms: C_8  and  C_9
REMARK    8  A    between atoms: C_9  and  C_10
REMARK    9  A    between atoms: C_10  and  C_11
REMARK   10  A    between atoms: C_11  and  C_12
REMARK   11  A    between atoms: C_12  and  C_13
REMARK   12  A    between atoms: C_13  and  C_14
REMARK   13  A    between atoms: C_14  and  C_15
REMARK   14  A    between atoms: C_15  and  C_16
REMARK   15  A    between atoms: CA_18  and  C_19
REMARK   16  A    between atoms: C_19  and  O_20
REMARK   17  A    between atoms: C_21  and  O_22
REMARK   18  A    between atoms: C_23  and  O_24
REMARK                            x       y       z     vdW  Elec       q    Type
REMARK                         _______ _______ _______ _____ _____    ______ ____
ROOT
ATOM      1  C   UNL     1       7.582   5.546  18.357  0.00  0.00    +0.000 C 
ENDROOT
BRANCH   1   2
ATOM      2  C   UNL     1       6.425   5.346  19.334  0.00  0.00    +0.000 C 
BRANCH   2   3
ATOM      3  C   UNL     1       5.254   4.631  18.659  0.00  0.00    +0.000 C 
ATOM      4  N   UNL     1       5.131   3.220  19.078  0.00  0.00    +0.000 NA
ATOM      5  CA  UNL     1       3.678   2.907  19.101  0.00  0.00    +0.000 C 
ATOM      6  C   UNL     1       2.933   4.151  18.614  0.00  0.00    +0.000 C 
ATOM      7  C   UNL     1       3.904   5.280  18.972  0.00  0.00    +0.000 C 
ATOM      8  H   UNL     1       5.495   3.113  20.028  0.00  0.00    +0.000 HD
BRANCH   7   9
ATOM      9  O   UNL     1       3.679   6.461  18.211  0.00  0.00    +0.000 OA
ATOM     10  H   UNL     1       3.727   7.227  18.807  0.00  0.00    +0.000 HD
ENDBRANCH   7   9
BRANCH   6  11
ATOM     11  O   UNL     1       1.667   4.303  19.244  0.00  0.00    +0.000 OA
ATOM     12  H   UNL     1       1.045   4.686  18.603  0.00  0.00    +0.000 HD
ENDBRANCH   6  11
BRANCH   5  13
ATOM     13  C   UNL     1       3.390   1.677  18.235  0.00  0.00    +0.000 C 
BRANCH  13  14
ATOM     14  O   UNL     1       4.322   0.638  18.548  0.00  0.00    +0.000 OA
ATOM     15  H   UNL     1       5.081   1.101  18.955  0.00  0.00    +0.000 HD
ENDBRANCH  13  14
ENDBRANCH   5  13
ENDBRANCH   2   3
ENDBRANCH   1   2
BRANCH   1  16
ATOM     16  C   UNL     1       7.113   6.196  17.062  0.00  0.00    +0.000 C 
BRANCH  16  17
ATOM     17  C   UNL     1       7.169   7.713  17.194  0.00  0.00    +0.000 C 
BRANCH  17  18
ATOM     18  C   UNL     1       8.229   8.126  18.205  0.00  0.00    +0.000 C 
BRANCH  18  19
ATOM     19  C   UNL     1       8.512   9.617  18.100  0.00  0.00    +0.000 C 
BRANCH  19  20
ATOM     20  C   UNL     1       9.349  10.086  19.284  0.00  0.00    +0.000 C 
BRANCH  20  21
ATOM     21  C   UNL     1       9.725  11.554  19.122  0.00  0.00    +0.000 C 
BRANCH  21  22
ATOM     22  C   UNL     1      11.210  11.771  19.375  0.00  0.00    +0.000 C 
BRANCH  22  24
ATOM     23  O   UNL     1      12.333  13.414  18.004  0.00  0.00    +0.000 OA
ATOM     24  C   UNL     1      11.642  13.173  18.996  0.00  0.00    +0.000 C 
BRANCH  24  25
ATOM     25  C   UNL     1      11.222  14.291  19.921  0.00  0.00    +0.000 C 
BRANCH  25  26
ATOM     26  C   UNL     1      10.271  15.263  19.239  0.00  0.00    +0.000 C 
BRANCH  26  27
ATOM     27  C   UNL     1      10.965  16.513  18.709  0.00  0.00    +0.000 C 
BRANCH  27  28
ATOM     28  O   UNL     1      11.415  16.270  17.382  0.00  0.00    +0.000 OA
ATOM     29  H   UNL     1      11.485  17.128  16.933  0.00  0.00    +0.000 HD
ENDBRANCH  27  28
ENDBRANCH  26  27
ENDBRANCH  25  26
ENDBRANCH  24  25
ENDBRANCH  22  24
ENDBRANCH  21  22
ENDBRANCH  20  21
ENDBRANCH  19  20
ENDBRANCH  18  19
ENDBRANCH  17  18
ENDBRANCH  16  17
ENDBRANCH   1  16
TORSDOF 18
ENDMDL
MODEL 4
REMARK VINA RESULT:      -5.9      4.356      7.503
REMARK  Name = 
REMARK  18 active torsions:
REMARK  status: ('A' for Active; 'I' for Inactive)
REMARK    1  A    between atoms: C_2  and  C_3
REMARK    2  A    between atoms: C_2  and  C_7
REMARK    3  A    between atoms: C_3  and  C_4
REMARK    4  A    between atoms: C_4  and  C_5
REMARK    5  A    between atoms: C_5  and  O_6
REMARK    6  A    between atoms: C_7  and  C_8
REMARK    7  A    between atoms: C_8  and  C_9
REMARK    8  A    between atoms: C_9  and  C_10
REMARK    9  A    between atoms: C_10  and  C_11
REMARK   10  A    between atoms: C_11  and  C_12
REMARK   11  A    between atoms: C_12  and  C_13
REMARK   12  A    between atoms: C_13  and  C_14
REMARK   13  A    between atoms: C_14  and  C_15
REMARK   14  A    between atoms: C_15  and  C_16
REMARK   15  A    between atoms: CA_18  and  C_19
REMARK   16  A    between atoms: C_19  and  O_20
REMARK   17  A    between atoms: C_21  and  O_22
REMARK   18  A    between atoms: C_23  and  O_24
REMARK                            x       y       z     vdW  Elec       q    Type
REMARK                         _______ _______ _______ _____ _____    ______ ____
ROOT
ATOM      1  C   UNL     1       3.414   3.035  18.498  0.00  0.00    +0.000 C 
ENDROOT
BRANCH   1   2
ATOM      2  C   UNL     1       4.620   3.527  19.296  0.00  0.00    +0.000 C 
BRANCH   2   3
ATOM      3  C   UNL     1       5.747   3.978  18.365  0.00  0.00    +0.000 C 
ATOM      4  N   UNL     1       5.353   3.947  16.941  0.00  0.00    +0.000 NA
ATOM      5  CA  UNL     1       6.051   5.083  16.282  0.00  0.00    +0.000 C 
ATOM      6  C   UNL     1       6.931   5.755  17.337  0.00  0.00    +0.000 C 
ATOM      7  C   UNL     1       6.206   5.411  18.641  0.00  0.00    +0.000 C 
ATOM      8  H   UNL     1       4.345   4.102  16.861  0.00  0.00    +0.000 HD
BRANCH   7   9
ATOM      9  O   UNL     1       7.054   5.498  19.781  0.00  0.00    +0.000 OA
ATOM     10  H   UNL     1       7.645   4.727  19.787  0.00  0.00    +0.000 HD
ENDBRANCH   7   9
BRANCH   6  11
ATOM     11  O   UNL     1       7.043   7.158  17.132  0.00  0.00    +0.000 OA
ATOM     12  H   UNL     1       6.545   7.397  16.331  0.00  0.00    +0.000 HD
ENDBRANCH   6  11
BRANCH   5  13
ATOM     13  C   UNL     1       6.858   4.582  15.081  0.00  0.00    +0.000 C 
BRANCH  13  14
ATOM     14  O   UNL     1       7.797   5.583  14.678  0.00  0.00    +0.000 OA
ATOM     15  H   UNL     1       7.290   6.420  14.698  0.00  0.00    +0.000 HD
ENDBRANCH  13  14
ENDBRANCH   5  13
ENDBRANCH   2   3
ENDBRANCH   1   2
BRANCH   1  16
ATOM     16  C   UNL     1       2.457   2.234  19.370  0.00  0.00    +0.000 C 
BRANCH  16  17
ATOM     17  C   UNL     1       1.393   3.155  19.953  0.00  0.00    +0.000 C 
BRANCH  17  18
ATOM     18  C   UNL     1       1.442   4.522  19.286  0.00  0.00    +0.000 C 
BRANCH  18  19
ATOM     19  C   UNL     1       1.822   5.594  20.298  0.00  0.00    +0.000 C 
BRANCH  19  20
ATOM     20  C   UNL     1       2.754   6.620  19.664  0.00  0.00    +0.000 C 
BRANCH  20  21
ATOM     21  C   UNL     1       2.217   7.059  18.307  0.00  0.00    +0.000 C 
BRANCH  21  22
ATOM     22  C   UNL     1       2.336   8.567  18.133  0.00  0.00    +0.000 C 
BRANCH  22  24
ATOM     23  O   UNL     1       1.106   9.391  20.043  0.00  0.00    +0.000 OA
ATOM     24  C   UNL     1       1.199   9.298  18.817  0.00  0.00    +0.000 C 
BRANCH  24  25
ATOM     25  C   UNL     1       0.132   9.890  17.927  0.00  0.00    +0.000 C 
BRANCH  25  26
ATOM     26  C   UNL     1      -0.519  11.111  18.558  0.00  0.00    +0.000 C 
BRANCH  26  27
ATOM     27  C   UNL     1      -1.935  11.368  18.053  0.00  0.00    +0.000 C 
BRANCH  27  28
ATOM     28  O   UNL     1      -1.885  11.674  16.665  0.00  0.00    +0.000 OA
ATOM     29  H   UNL     1      -1.208  11.105  16.263  0.00  0.00    +0.000 HD
ENDBRANCH  27  28
ENDBRANCH  26  27
ENDBRANCH  25  26
ENDBRANCH  24  25
ENDBRANCH  22  24
ENDBRANCH  21  22
ENDBRANCH  20  21
ENDBRANCH  19  20
ENDBRANCH  18  19
ENDBRANCH  17  18
ENDBRANCH  16  17
ENDBRANCH   1  16
TORSDOF 18
ENDMDL
MODEL 5
REMARK VINA RESULT:      -5.9      1.440      1.601
REMARK  Name = 
REMARK  18 active torsions:
REMARK  status: ('A' for Active; 'I' for Inactive)
REMARK    1  A    between atoms: C_2  and  C_3
REMARK    2  A    between atoms: C_2  and  C_7
REMARK    3  A    between atoms: C_3  and  C_4
REMARK    4  A    between atoms: C_4  and  C_5
REMARK    5  A    between atoms: C_5  and  O_6
REMARK    6  A    between atoms: C_7  and  C_8
REMARK    7  A    between atoms: C_8  and  C_9
REMARK    8  A    between atoms: C_9  and  C_10
REMARK    9  A    between atoms: C_10  and  C_11
REMARK   10  A    between atoms: C_11  and  C_12
REMARK   11  A    between atoms: C_12  and  C_13
REMARK   12  A    between atoms: C_13  and  C_14
REMARK   13  A    between atoms: C_14  and  C_15
REMARK   14  A    between atoms: C_15  and  C_16
REMARK   15  A    between atoms: CA_18  and  C_19
REMARK   16  A    between atoms: C_19  and  O_20
REMARK   17  A    between atoms: C_21  and  O_22
REMARK   18  A    between atoms: C_23  and  O_24
REMARK                            x       y       z     vdW  Elec       q    Type
REMARK                         _______ _______ _______ _____ _____    ______ ____
ROOT
ATOM      1  C   UNL     1       4.894   5.302  16.376  0.00  0.00    +0.000 C 
ENDROOT
BRANCH   1   2
ATOM      2  C   UNL     1       4.882   3.814  16.717  0.00  0.00    +0.000 C 
BRANCH   2   3
ATOM      3  C   UNL     1       4.030   3.542  17.958  0.00  0.00    +0.000 C 
ATOM      4  N   UNL     1       3.010   4.586  18.186  0.00  0.00    +0.000 NA
ATOM      5  CA  UNL     1       1.821   3.902  18.760  0.00  0.00    +0.000 C 
ATOM      6  C   UNL     1       2.182   2.426  18.936  0.00  0.00    +0.000 C 
ATOM      7  C   UNL     1       3.264   2.220  17.873  0.00  0.00    +0.000 C 
ATOM      8  H   UNL     1       2.738   5.000  17.291  0.00  0.00    +0.000 HD
BRANCH   7   9
ATOM      9  O   UNL     1       4.093   1.095  18.141  0.00  0.00    +0.000 OA
ATOM     10  H   UNL     1       5.017   1.346  17.978  0.00  0.00    +0.000 HD
ENDBRANCH   7   9
BRANCH   6  11
ATOM     11  O   UNL     1       1.062   1.570  18.745  0.00  0.00    +0.000 OA
ATOM     12  H   UNL     1       0.297   1.950  19.211  0.00  0.00    +0.000 HD
ENDBRANCH   6  11
BRANCH   5  13
ATOM     13  C   UNL     1       1.416   4.566  20.079  0.00  0.00    +0.000 C 
BRANCH  13  14
ATOM     14  O   UNL     1       1.325   3.577  21.109  0.00  0.00    +0.000 OA
ATOM     15  H   UNL     1       1.085   4.079  21.913  0.00  0.00    +0.000 HD
ENDBRANCH  13  14
ENDBRANCH   5  13
ENDBRANCH   2   3
ENDBRANCH   1   2
BRANCH   1  16
ATOM     16  C   UNL     1       6.314   5.850  16.315  0.00  0.00    +0.000 C 
BRANCH  16  17
ATOM     17  C   UNL     1       6.491   6.947  17.357  0.00  0.00    +0.000 C 
BRANCH  17  18
ATOM     18  C   UNL     1       7.691   6.654  18.247  0.00  0.00    +0.000 C 
BRANCH  18  19
ATOM     19  C   UNL     1       8.418   7.943  18.601  0.00  0.00    +0.000 C 
BRANCH  19  20
ATOM     20  C   UNL     1       8.073   9.042  17.605  0.00  0.00    +0.000 C 
BRANCH  20  21
ATOM     21  C   UNL     1       8.313  10.415  18.222  0.00  0.00    +0.000 C 
BRANCH  21  22
ATOM     22  C   UNL     1       9.464  10.374  19.216  0.00  0.00    +0.000 C 
BRANCH  22  24
ATOM     23  O   UNL     1      11.674  11.336  19.400  0.00  0.00    +0.000 OA
ATOM     24  C   UNL     1      10.609  11.265  18.781  0.00  0.00    +0.000 C 
BRANCH  24  25
ATOM     25  C   UNL     1      10.384  12.119  17.555  0.00  0.00    +0.000 C 
BRANCH  25  26
ATOM     26  C   UNL     1      11.181  13.413  17.613  0.00  0.00    +0.000 C 
BRANCH  26  27
ATOM     27  C   UNL     1      10.483  14.516  18.401  0.00  0.00    +0.000 C 
BRANCH  27  28
ATOM     28  O   UNL     1      11.276  14.853  19.533  0.00  0.00    +0.000 OA
ATOM     29  H   UNL     1      12.133  14.408  19.434  0.00  0.00    +0.000 HD
ENDBRANCH  27  28
ENDBRANCH  26  27
ENDBRANCH  25  26
ENDBRANCH  24  25
ENDBRANCH  22  24
ENDBRANCH  21  22
ENDBRANCH  20  21
ENDBRANCH  19  20
ENDBRANCH  18  19
ENDBRANCH  17  18
ENDBRANCH  16  17
ENDBRANCH   1  16
TORSDOF 18
ENDMDL
MODEL 6
REMARK VINA RESULT:      -5.9      1.605      2.306
REMARK  Name = 
REMARK  18 active torsions:
REMARK  status: ('A' for Active; 'I' for Inactive)
REMARK    1  A    between atoms: C_2  and  C_3
REMARK    2  A    between atoms: C_2  and  C_7
REMARK    3  A    between atoms: C_3  and  C_4
REMARK    4  A    between atoms: C_4  and  C_5
REMARK    5  A    between atoms: C_5  and  O_6
REMARK    6  A    between atoms: C_7  and  C_8
REMARK    7  A    between atoms: C_8  and  C_9
REMARK    8  A    between atoms: C_9  and  C_10
REMARK    9  A    between atoms: C_10  and  C_11
REMARK   10  A    between atoms: C_11  and  C_12
REMARK   11  A    between atoms: C_12  and  C_13
REMARK   12  A    between atoms: C_13  and  C_14
REMARK   13  A    between atoms: C_14  and  C_15
REMARK   14  A    between atoms: C_15  and  C_16
REMARK   15  A    between atoms: CA_18  and  C_19
REMARK   16  A    between atoms: C_19  and  O_20
REMARK   17  A    between atoms: C_21  and  O_22
REMARK   18  A    between atoms: C_23  and  O_24
REMARK                            x       y       z     vdW  Elec       q    Type
REMARK                         _______ _______ _______ _____ _____    ______ ____
ROOT
ATOM      1  C   UNL     1       4.710   5.670  16.796  0.00  0.00    +0.000 C 
ENDROOT
BRANCH   1   2
ATOM      2  C   UNL     1       3.570   5.993  17.760  0.00  0.00    +0.000 C 
BRANCH   2   3
ATOM      3  C   UNL     1       3.424   4.902  18.823  0.00  0.00    +0.000 C 
ATOM      4  N   UNL     1       2.045   4.798  19.344  0.00  0.00    +0.000 NA
ATOM      5  CA  UNL     1       1.807   3.359  19.632  0.00  0.00    +0.000 C 
ATOM      6  C   UNL     1       3.107   2.610  19.336  0.00  0.00    +0.000 C 
ATOM      7  C   UNL     1       3.778   3.510  18.295  0.00  0.00    +0.000 C 
ATOM      8  H   UNL     1       1.383   5.092  18.621  0.00  0.00    +0.000 HD
BRANCH   7   9
ATOM      9  O   UNL     1       5.184   3.304  18.213  0.00  0.00    +0.000 OA
ATOM     10  H   UNL     1       5.596   4.114  17.869  0.00  0.00    +0.000 HD
ENDBRANCH   7   9
BRANCH   6  11
ATOM     11  O   UNL     1       2.874   1.295  18.848  0.00  0.00    +0.000 OA
ATOM     12  H   UNL     1       3.531   0.696  19.241  0.00  0.00    +0.000 HD
ENDBRANCH   6  11
BRANCH   5  13
ATOM     13  C   UNL     1       1.347   3.181  21.082  0.00  0.00    +0.000 C 
BRANCH  13  14
ATOM     14  O   UNL     1       2.357   2.496  21.828  0.00  0.00    +0.000 OA
ATOM     15  H   UNL     1       3.057   2.300  21.174  0.00  0.00    +0.000 HD
ENDBRANCH  13  14
ENDBRANCH   5  13
ENDBRANCH   2   3
ENDBRANCH   1   2
BRANCH   1  16
ATOM     16  C   UNL     1       5.780   6.753  16.813  0.00  0.00    +0.000 C 
BRANCH  16  17
ATOM     17  C   UNL     1       7.137   6.135  17.126  0.00  0.00    +0.000 C 
BRANCH  17  18
ATOM     18  C   UNL     1       7.913   7.011  18.100  0.00  0.00    +0.000 C 
BRANCH  18  19
ATOM     19  C   UNL     1       7.691   8.483  17.785  0.00  0.00    +0.000 C 
BRANCH  19  20
ATOM     20  C   UNL     1       8.698   9.347  18.535  0.00  0.00    +0.000 C 
BRANCH  20  21
ATOM     21  C   UNL     1       8.701  10.766  17.978  0.00  0.00    +0.000 C 
BRANCH  21  22
ATOM     22  C   UNL     1      10.050  11.436  18.195  0.00  0.00    +0.000 C 
BRANCH  22  24
ATOM     23  O   UNL     1       9.487  13.225  19.719  0.00  0.00    +0.000 OA
ATOM     24  C   UNL     1       9.892  12.886  18.605  0.00  0.00    +0.000 C 
BRANCH  24  25
ATOM     25  C   UNL     1      10.217  13.931  17.563  0.00  0.00    +0.000 C 
BRANCH  25  26
ATOM     26  C   UNL     1       9.726  15.311  17.973  0.00  0.00    +0.000 C 
BRANCH  26  27
ATOM     27  C   UNL     1      10.320  16.436  17.133  0.00  0.00    +0.000 C 
BRANCH  27  28
ATOM     28  O   UNL     1      10.844  15.892  15.928  0.00  0.00    +0.000 OA
ATOM     29  H   UNL     1      10.226  16.113  15.213  0.00  0.00    +0.000 HD
ENDBRANCH  27  28
ENDBRANCH  26  27
ENDBRANCH  25  26
ENDBRANCH  24  25
ENDBRANCH  22  24
ENDBRANCH  21  22
ENDBRANCH  20  21
ENDBRANCH  19  20
ENDBRANCH  18  19
ENDBRANCH  17  18
ENDBRANCH  16  17
ENDBRANCH   1  16
TORSDOF 18
ENDMDL
MODEL 7
REMARK VINA RESULT:      -5.9      3.899      6.811
REMARK  Name = 
REMARK  18 active torsions:
REMARK  status: ('A' for Active; 'I' for Inactive)
REMARK    1  A    between atoms: C_2  and  C_3
REMARK    2  A    between atoms: C_2  and  C_7
REMARK    3  A    between atoms: C_3  and  C_4
REMARK    4  A    between atoms: C_4  and  C_5
REMARK    5  A    between atoms: C_5  and  O_6
REMARK    6  A    between atoms: C_7  and  C_8
REMARK    7  A    between atoms: C_8  and  C_9
REMARK    8  A    between atoms: C_9  and  C_10
REMARK    9  A    between atoms: C_10  and  C_11
REMARK   10  A    between atoms: C_11  and  C_12
REMARK   11  A    between atoms: C_12  and  C_13
REMARK   12  A    between atoms: C_13  and  C_14
REMARK   13  A    between atoms: C_14  and  C_15
REMARK   14  A    between atoms: C_15  and  C_16
REMARK   15  A    between atoms: CA_18  and  C_19
REMARK   16  A    between atoms: C_19  and  O_20
REMARK   17  A    between atoms: C_21  and  O_22
REMARK   18  A    between atoms: C_23  and  O_24
REMARK                            x       y       z     vdW  Elec       q    Type
REMARK                         _______ _______ _______ _____ _____    ______ ____
ROOT
ATOM      1  C   UNL     1       2.411   5.667  20.471  0.00  0.00    +0.000 C 
ENDROOT
BRANCH   1   2
ATOM      2  C   UNL     1       2.321   6.987  19.710  0.00  0.00    +0.000 C 
BRANCH   2   3
ATOM      3  C   UNL     1       1.308   7.930  20.363  0.00  0.00    +0.000 C 
ATOM      4  N   UNL     1       1.535   8.089  21.815  0.00  0.00    +0.000 NA
ATOM      5  CA  UNL     1       1.169   9.490  22.151  0.00  0.00    +0.000 C 
ATOM      6  C   UNL     1       0.647  10.148  20.873  0.00  0.00    +0.000 C 
ATOM      7  C   UNL     1       1.348   9.342  19.776  0.00  0.00    +0.000 C 
ATOM      8  H   UNL     1       2.529   7.961  22.021  0.00  0.00    +0.000 HD
BRANCH   7   9
ATOM      9  O   UNL     1       0.683   9.426  18.520  0.00  0.00    +0.000 OA
ATOM     10  H   UNL     1       0.496   8.524  18.208  0.00  0.00    +0.000 HD
ENDBRANCH   7   9
BRANCH   6  11
ATOM     11  O   UNL     1       0.960  11.534  20.812  0.00  0.00    +0.000 OA
ATOM     12  H   UNL     1       1.566  11.748  21.542  0.00  0.00    +0.000 HD
ENDBRANCH   6  11
BRANCH   5  13
ATOM     13  C   UNL     1       0.135   9.508  23.281  0.00  0.00    +0.000 C 
BRANCH  13  14
ATOM     14  O   UNL     1      -0.637  10.711  23.210  0.00  0.00    +0.000 OA
ATOM     15  H   UNL     1      -1.561  10.406  23.115  0.00  0.00    +0.000 HD
ENDBRANCH  13  14
ENDBRANCH   5  13
ENDBRANCH   2   3
ENDBRANCH   1   2
BRANCH   1  16
ATOM     16  C   UNL     1       1.095   4.903  20.422  0.00  0.00    +0.000 C 
BRANCH  16  17
ATOM     17  C   UNL     1       1.366   3.403  20.408  0.00  0.00    +0.000 C 
BRANCH  17  18
ATOM     18  C   UNL     1       0.809   2.769  19.142  0.00  0.00    +0.000 C 
BRANCH  18  19
ATOM     19  C   UNL     1       1.847   1.856  18.504  0.00  0.00    +0.000 C 
BRANCH  19  20
ATOM     20  C   UNL     1       3.250   2.404  18.730  0.00  0.00    +0.000 C 
BRANCH  20  21
ATOM     21  C   UNL     1       3.671   3.290  17.563  0.00  0.00    +0.000 C 
BRANCH  21  22
ATOM     22  C   UNL     1       4.878   4.141  17.930  0.00  0.00    +0.000 C 
BRANCH  22  24
ATOM     23  O   UNL     1       5.178   4.960  15.676  0.00  0.00    +0.000 OA
ATOM     24  C   UNL     1       5.149   5.204  16.884  0.00  0.00    +0.000 C 
BRANCH  24  25
ATOM     25  C   UNL     1       5.432   6.600  17.385  0.00  0.00    +0.000 C 
BRANCH  25  26
ATOM     26  C   UNL     1       6.910   6.948  17.286  0.00  0.00    +0.000 C 
BRANCH  26  27
ATOM     27  C   UNL     1       7.731   6.431  18.462  0.00  0.00    +0.000 C 
BRANCH  27  28
ATOM     28  O   UNL     1       8.565   7.477  18.944  0.00  0.00    +0.000 OA
ATOM     29  H   UNL     1       8.216   7.757  19.806  0.00  0.00    +0.000 HD
ENDBRANCH  27  28
ENDBRANCH  26  27
ENDBRANCH  25  26
ENDBRANCH  24  25
ENDBRANCH  22  24
ENDBRANCH  21  22
ENDBRANCH  20  21
ENDBRANCH  19  20
ENDBRANCH  18  19
ENDBRANCH  17  18
ENDBRANCH  16  17
ENDBRANCH   1  16
TORSDOF 18
ENDMDL
MODEL 8
REMARK VINA RESULT:      -5.8      4.789      8.886
REMARK  Name = 
REMARK  18 active torsions:
REMARK  status: ('A' for Active; 'I' for Inactive)
REMARK    1  A    between atoms: C_2  and  C_3
REMARK    2  A    between atoms: C_2  and  C_7
REMARK    3  A    between atoms: C_3  and  C_4
REMARK    4  A    between atoms: C_4  and  C_5
REMARK    5  A    between atoms: C_5  and  O_6
REMARK    6  A    between atoms: C_7  and  C_8
REMARK    7  A    between atoms: C_8  and  C_9
REMARK    8  A    between atoms: C_9  and  C_10
REMARK    9  A    between atoms: C_10  and  C_11
REMARK   10  A    between atoms: C_11  and  C_12
REMARK   11  A    between atoms: C_12  and  C_13
REMARK   12  A    between atoms: C_13  and  C_14
REMARK   13  A    between atoms: C_14  and  C_15
REMARK   14  A    between atoms: C_15  and  C_16
REMARK   15  A    between atoms: CA_18  and  C_19
REMARK   16  A    between atoms: C_19  and  O_20
REMARK   17  A    between atoms: C_21  and  O_22
REMARK   18  A    between atoms: C_23  and  O_24
REMARK                            x       y       z     vdW  Elec       q    Type
REMARK                         _______ _______ _______ _____ _____    ______ ____
ROOT
ATOM      1  C   UNL     1       2.667   8.711  18.241  0.00  0.00    +0.000 C 
ENDROOT
BRANCH   1   2
ATOM      2  C   UNL     1       1.216   9.015  17.870  0.00  0.00    +0.000 C 
BRANCH   2   3
ATOM      3  C   UNL     1       0.597  10.014  18.850  0.00  0.00    +0.000 C 
ATOM      4  N   UNL     1       0.379   9.433  20.191  0.00  0.00    +0.000 NA
ATOM      5  CA  UNL     1       0.608  10.528  21.171  0.00  0.00    +0.000 C 
ATOM      6  C   UNL     1       0.901  11.801  20.376  0.00  0.00    +0.000 C 
ATOM      7  C   UNL     1       1.472  11.250  19.066  0.00  0.00    +0.000 C 
ATOM      8  H   UNL     1       1.072   8.701  20.363  0.00  0.00    +0.000 HD
BRANCH   7   9
ATOM      9  O   UNL     1       1.375  12.178  17.991  0.00  0.00    +0.000 OA
ATOM     10  H   UNL     1       0.958  11.732  17.235  0.00  0.00    +0.000 HD
ENDBRANCH   7   9
BRANCH   6  11
ATOM     11  O   UNL     1       1.815  12.659  21.049  0.00  0.00    +0.000 OA
ATOM     12  H   UNL     1       1.735  13.553  20.675  0.00  0.00    +0.000 HD
ENDBRANCH   6  11
BRANCH   5  13
ATOM     13  C   UNL     1      -0.610  10.678  22.088  0.00  0.00    +0.000 C 
BRANCH  13  14
ATOM     14  O   UNL     1      -0.392  11.753  23.006  0.00  0.00    +0.000 OA
ATOM     15  H   UNL     1      -1.123  11.680  23.651  0.00  0.00    +0.000 HD
ENDBRANCH  13  14
ENDBRANCH   5  13
ENDBRANCH   2   3
ENDBRANCH   1   2
BRANCH   1  16
ATOM     16  C   UNL     1       3.005   7.244  18.013  0.00  0.00    +0.000 C 
BRANCH  16  17
ATOM     17  C   UNL     1       4.315   7.128  17.244  0.00  0.00    +0.000 C 
BRANCH  17  18
ATOM     18  C   UNL     1       5.226   6.092  17.887  0.00  0.00    +0.000 C 
BRANCH  18  19
ATOM     19  C   UNL     1       4.408   4.937  18.445  0.00  0.00    +0.000 C 
BRANCH  19  20
ATOM     20  C   UNL     1       4.440   3.750  17.490  0.00  0.00    +0.000 C 
BRANCH  20  21
ATOM     21  C   UNL     1       3.025   3.353  17.085  0.00  0.00    +0.000 C 
BRANCH  21  22
ATOM     22  C   UNL     1       2.470   2.282  18.013  0.00  0.00    +0.000 C 
BRANCH  22  24
ATOM     23  O   UNL     1       0.243   2.003  18.908  0.00  0.00    +0.000 OA
ATOM     24  C   UNL     1       1.207   2.746  18.709  0.00  0.00    +0.000 C 
BRANCH  24  25
ATOM     25  C   UNL     1       1.149   4.197  19.124  0.00  0.00    +0.000 C 
BRANCH  25  26
ATOM     26  C   UNL     1       1.290   4.361  20.629  0.00  0.00    +0.000 C 
BRANCH  26  27
ATOM     27  C   UNL     1       2.311   3.411  21.246  0.00  0.00    +0.000 C 
BRANCH  27  28
ATOM     28  O   UNL     1       1.631   2.456  22.051  0.00  0.00    +0.000 OA
ATOM     29  H   UNL     1       2.293   1.829  22.385  0.00  0.00    +0.000 HD
ENDBRANCH  27  28
ENDBRANCH  26  27
ENDBRANCH  25  26
ENDBRANCH  24  25
ENDBRANCH  22  24
ENDBRANCH  21  22
ENDBRANCH  20  21
ENDBRANCH  19  20
ENDBRANCH  18  19
ENDBRANCH  17  18
ENDBRANCH  16  17
ENDBRANCH   1  16
TORSDOF 18
ENDMDL
MODEL 9
REMARK VINA RESULT:      -5.8      3.497      6.091
REMARK  Name = 
REMARK  18 active torsions:
REMARK  status: ('A' for Active; 'I' for Inactive)
REMARK    1  A    between atoms: C_2  and  C_3
REMARK    2  A    between atoms: C_2  and  C_7
REMARK    3  A    between atoms: C_3  and  C_4
REMARK    4  A    between atoms: C_4  and  C_5
REMARK    5  A    between atoms: C_5  and  O_6
REMARK    6  A    between atoms: C_7  and  C_8
REMARK    7  A    between atoms: C_8  and  C_9
REMARK    8  A    between atoms: C_9  and  C_10
REMARK    9  A    between atoms: C_10  and  C_11
REMARK   10  A    between atoms: C_11  and  C_12
REMARK   11  A    between atoms: C_12  and  C_13
REMARK   12  A    between atoms: C_13  and  C_14
REMARK   13  A    between atoms: C_14  and  C_15
REMARK   14  A    between atoms: C_15  and  C_16
REMARK   15  A    between atoms: CA_18  and  C_19
REMARK   16  A    between atoms: C_19  and  O_20
REMARK   17  A    between atoms: C_21  and  O_22
REMARK   18  A    between atoms: C_23  and  O_24
REMARK                            x       y       z     vdW  Elec       q    Type
REMARK                         _______ _______ _______ _____ _____    ______ ____
ROOT
ATOM      1  C   UNL     1       2.582   4.776  20.400  0.00  0.00    +0.000 C 
ENDROOT
BRANCH   1   2
ATOM      2  C   UNL     1       3.013   6.144  19.873  0.00  0.00    +0.000 C 
BRANCH   2   3
ATOM      3  C   UNL     1       1.850   7.137  19.910  0.00  0.00    +0.000 C 
ATOM      4  N   UNL     1       1.665   7.745  21.244  0.00  0.00    +0.000 NA
ATOM      5  CA  UNL     1       1.206   9.141  21.015  0.00  0.00    +0.000 C 
ATOM      6  C   UNL     1       1.053   9.332  19.505  0.00  0.00    +0.000 C 
ATOM      7  C   UNL     1       2.038   8.305  18.940  0.00  0.00    +0.000 C 
ATOM      8  H   UNL     1       2.564   7.781  21.731  0.00  0.00    +0.000 HD
BRANCH   7   9
ATOM      9  O   UNL     1       1.745   7.945  17.594  0.00  0.00    +0.000 OA
ATOM     10  H   UNL     1       2.094   8.636  17.006  0.00  0.00    +0.000 HD
ENDBRANCH   7   9
BRANCH   6  11
ATOM     11  O   UNL     1       1.357  10.659  19.095  0.00  0.00    +0.000 OA
ATOM     12  H   UNL     1       0.574  11.217  19.241  0.00  0.00    +0.000 HD
ENDBRANCH   6  11
BRANCH   5  13
ATOM     13  C   UNL     1      -0.100   9.398  21.772  0.00  0.00    +0.000 C 
BRANCH  13  14
ATOM     14  O   UNL     1      -0.812   8.168  21.938  0.00  0.00    +0.000 OA
ATOM     15  H   UNL     1      -0.133   7.473  21.827  0.00  0.00    +0.000 HD
ENDBRANCH  13  14
ENDBRANCH   5  13
ENDBRANCH   2   3
ENDBRANCH   1   2
BRANCH   1  16
ATOM     16  C   UNL     1       1.130   4.477  20.054  0.00  0.00    +0.000 C 
BRANCH  16  17
ATOM     17  C   UNL     1       1.052   3.242  19.165  0.00  0.00    +0.000 C 
BRANCH  17  18
ATOM     18  C   UNL     1       1.826   3.462  17.872  0.00  0.00    +0.000 C 
BRANCH  18  19
ATOM     19  C   UNL     1       2.903   2.400  17.710  0.00  0.00    +0.000 C 
BRANCH  19  20
ATOM     20  C   UNL     1       4.280   3.046  17.619  0.00  0.00    +0.000 C 
BRANCH  20  21
ATOM     21  C   UNL     1       4.215   4.324  16.792  0.00  0.00    +0.000 C 
BRANCH  21  22
ATOM     22  C   UNL     1       5.202   4.279  15.635  0.00  0.00    +0.000 C 
BRANCH  22  24
ATOM     23  O   UNL     1       7.567   4.759  15.497  0.00  0.00    +0.000 OA
ATOM     24  C   UNL     1       6.458   5.068  15.942  0.00  0.00    +0.000 C 
BRANCH  24  25
ATOM     25  C   UNL     1       6.313   6.252  16.868  0.00  0.00    +0.000 C 
BRANCH  25  26
ATOM     26  C   UNL     1       7.256   6.159  18.058  0.00  0.00    +0.000 C 
BRANCH  26  27
ATOM     27  C   UNL     1       8.019   7.452  18.326  0.00  0.00    +0.000 C 
BRANCH  27  28
ATOM     28  O   UNL     1       7.934   8.289  17.179  0.00  0.00    +0.000 OA
ATOM     29  H   UNL     1       8.812   8.680  17.035  0.00  0.00    +0.000 HD
ENDBRANCH  27  28
ENDBRANCH  26  27
ENDBRANCH  25  26
ENDBRANCH  24  25
ENDBRANCH  22  24
ENDBRANCH  21  22
ENDBRANCH  20  21
ENDBRANCH  19  20
ENDBRANCH  18  19
ENDBRANCH  17  18
ENDBRANCH  16  17
ENDBRANCH   1  16
TORSDOF 18
ENDMDL
