MODEL 1
REMARK VINA RESULT:      -7.7      0.000      0.000
REMARK  Name = 
REMARK  7 active torsions:
REMARK  status: ('A' for Active; 'I' for Inactive)
REMARK    1  A    between atoms: C_1  and  C_2
REMARK    2  A    between atoms: N_4  and  C_5
REMARK    3  A    between atoms: N_13  and  S_14
REMARK    4  A    between atoms: S_14  and  C_17
REMARK    5  A    between atoms: C_19  and  C_20
REMARK    6  A    between atoms: C_20  and  O_22
REMARK    7  A    between atoms: C_24  and  C_25
REMARK                            x       y       z     vdW  Elec       q    Type
REMARK                         _______ _______ _______ _____ _____    ______ ____
ROOT
ATOM      1  C   UNL     1       6.889   5.399  19.487  0.00  0.00    +0.000 C 
ATOM      2  C   UNL     1       6.398   5.447  18.092  0.00  0.00    +0.000 A 
ATOM      3  C   UNL     1       6.956   4.829  16.995  0.00  0.00    +0.000 A 
ATOM      4  N   UNL     1       6.215   5.187  15.889  0.00  0.00    +0.000 N 
ATOM      5  N   UNL     1       5.242   6.082  16.228  0.00  0.00    +0.000 NA
ATOM      6  C   UNL     1       5.308   6.160  17.556  0.00  0.00    +0.000 A 
ATOM      7  N   UNL     1       4.467   7.010  18.255  0.00  0.00    +0.000 N 
ATOM      8  H   UNL     1       4.278   7.873  17.755  0.00  0.00    +0.000 HD
ENDROOT
BRANCH   4   9
ATOM      9  C   UNL     1       6.393   4.731  14.556  0.00  0.00    +0.000 A 
ATOM     10  C   UNL     1       5.500   3.816  13.983  0.00  0.00    +0.000 A 
ATOM     11  C   UNL     1       5.670   3.391  12.662  0.00  0.00    +0.000 A 
ATOM     12  C   UNL     1       6.736   3.869  11.905  0.00  0.00    +0.000 A 
ATOM     13  C   UNL     1       7.634   4.776  12.468  0.00  0.00    +0.000 A 
ATOM     14  C   UNL     1       7.468   5.202  13.788  0.00  0.00    +0.000 A 
ENDBRANCH   4   9
BRANCH   7  15
ATOM     15  S   UNL     1       2.994   6.400  18.809  0.00  0.00    +0.000 S 
ATOM     16  O   UNL     1       2.218   5.921  17.686  0.00  0.00    +0.000 OA
ATOM     17  O   UNL     1       3.304   5.545  19.936  0.00  0.00    +0.000 OA
BRANCH  15  18
ATOM     18  C   UNL     1       2.010   7.654  19.531  0.00  0.00    +0.000 A 
ATOM     19  C   UNL     1       1.566   7.611  20.894  0.00  0.00    +0.000 A 
ATOM     20  C   UNL     1       0.861   8.741  21.268  0.00  0.00    +0.000 A 
ATOM     21  S   UNL     1       0.725   9.834  19.963  0.00  0.00    +0.000 S 
ATOM     22  C   UNL     1       1.630   8.832  18.907  0.00  0.00    +0.000 A 
ATOM     23  C   UNL     1       1.914   9.315  17.525  0.00  0.00    +0.000 C 
BRANCH  20  24
ATOM     24  C   UNL     1       0.294   9.027  22.577  0.00  0.00    +0.000 C 
ATOM     25  O   UNL     1       0.817   9.723  23.435  0.00  0.00    +0.000 OA
BRANCH  24  26
ATOM     26  O   UNL     1      -0.915   8.439  22.778  0.00  0.00    +0.000 OA
ATOM     27  H   UNL     1      -0.829   7.477  22.920  0.00  0.00    +0.000 HD
ENDBRANCH  24  26
ENDBRANCH  20  24
ENDBRANCH  15  18
ENDBRANCH   7  15
TORSDOF 5
ENDMDL
MODEL 2
REMARK VINA RESULT:      -7.4      0.257      1.182
REMARK  Name = 
REMARK  7 active torsions:
REMARK  status: ('A' for Active; 'I' for Inactive)
REMARK    1  A    between atoms: C_1  and  C_2
REMARK    2  A    between atoms: N_4  and  C_5
REMARK    3  A    between atoms: N_13  and  S_14
REMARK    4  A    between atoms: S_14  and  C_17
REMARK    5  A    between atoms: C_19  and  C_20
REMARK    6  A    between atoms: C_20  and  O_22
REMARK    7  A    between atoms: C_24  and  C_25
REMARK                            x       y       z     vdW  Elec       q    Type
REMARK                         _______ _______ _______ _____ _____    ______ ____
ROOT
ATOM      1  C   UNL     1       7.206   5.669  19.218  0.00  0.00    +0.000 C 
ATOM      2  C   UNL     1       6.613   5.606  17.863  0.00  0.00    +0.000 A 
ATOM      3  C   UNL     1       7.133   4.969  16.759  0.00  0.00    +0.000 A 
ATOM      4  N   UNL     1       6.288   5.213  15.697  0.00  0.00    +0.000 N 
ATOM      5  N   UNL     1       5.280   6.055  16.065  0.00  0.00    +0.000 NA
ATOM      6  C   UNL     1       5.436   6.211  17.378  0.00  0.00    +0.000 A 
ATOM      7  N   UNL     1       4.590   7.038  18.097  0.00  0.00    +0.000 N 
ATOM      8  H   UNL     1       4.302   7.857  17.571  0.00  0.00    +0.000 HD
ENDROOT
BRANCH   4   9
ATOM      9  C   UNL     1       6.401   4.697  14.378  0.00  0.00    +0.000 A 
ATOM     10  C   UNL     1       7.489   5.034  13.564  0.00  0.00    +0.000 A 
ATOM     11  C   UNL     1       7.603   4.503  12.275  0.00  0.00    +0.000 A 
ATOM     12  C   UNL     1       6.629   3.637  11.787  0.00  0.00    +0.000 A 
ATOM     13  C   UNL     1       5.538   3.299  12.588  0.00  0.00    +0.000 A 
ATOM     14  C   UNL     1       5.420   3.829  13.876  0.00  0.00    +0.000 A 
ENDBRANCH   4   9
BRANCH   7  15
ATOM     15  S   UNL     1       3.209   6.359  18.792  0.00  0.00    +0.000 S 
ATOM     16  O   UNL     1       2.425   5.706  17.767  0.00  0.00    +0.000 OA
ATOM     17  O   UNL     1       3.654   5.648  19.973  0.00  0.00    +0.000 OA
BRANCH  15  18
ATOM     18  C   UNL     1       2.152   7.586  19.453  0.00  0.00    +0.000 A 
ATOM     19  C   UNL     1       1.617   7.524  20.781  0.00  0.00    +0.000 A 
ATOM     20  C   UNL     1       0.863   8.636  21.113  0.00  0.00    +0.000 A 
ATOM     21  S   UNL     1       0.794   9.736  19.807  0.00  0.00    +0.000 S 
ATOM     22  C   UNL     1       1.790   8.760  18.811  0.00  0.00    +0.000 A 
ATOM     23  C   UNL     1       2.157   9.259  17.454  0.00  0.00    +0.000 C 
BRANCH  20  24
ATOM     24  C   UNL     1       0.203   8.901  22.382  0.00  0.00    +0.000 C 
ATOM     25  O   UNL     1      -0.925   8.535  22.679  0.00  0.00    +0.000 OA
BRANCH  24  26
ATOM     26  O   UNL     1       0.971   9.612  23.249  0.00  0.00    +0.000 OA
ATOM     27  H   UNL     1       1.877   9.739  22.907  0.00  0.00    +0.000 HD
ENDBRANCH  24  26
ENDBRANCH  20  24
ENDBRANCH  15  18
ENDBRANCH   7  15
TORSDOF 5
ENDMDL
MODEL 3
REMARK VINA RESULT:      -7.3      3.726      7.744
REMARK  Name = 
REMARK  7 active torsions:
REMARK  status: ('A' for Active; 'I' for Inactive)
REMARK    1  A    between atoms: C_1  and  C_2
REMARK    2  A    between atoms: N_4  and  C_5
REMARK    3  A    between atoms: N_13  and  S_14
REMARK    4  A    between atoms: S_14  and  C_17
REMARK    5  A    between atoms: C_19  and  C_20
REMARK    6  A    between atoms: C_20  and  O_22
REMARK    7  A    between atoms: C_24  and  C_25
REMARK                            x       y       z     vdW  Elec       q    Type
REMARK                         _______ _______ _______ _____ _____    ______ ____
ROOT
ATOM      1  C   UNL     1       1.612   3.225  21.642  0.00  0.00    +0.000 C 
ATOM      2  C   UNL     1       1.818   4.290  20.635  0.00  0.00    +0.000 A 
ATOM      3  C   UNL     1       1.557   5.634  20.786  0.00  0.00    +0.000 A 
ATOM      4  N   UNL     1       1.837   6.253  19.586  0.00  0.00    +0.000 N 
ATOM      5  N   UNL     1       2.196   5.336  18.641  0.00  0.00    +0.000 NA
ATOM      6  C   UNL     1       2.264   4.183  19.303  0.00  0.00    +0.000 A 
ATOM      7  N   UNL     1       2.583   3.007  18.644  0.00  0.00    +0.000 N 
ATOM      8  H   UNL     1       2.205   2.972  17.702  0.00  0.00    +0.000 HD
ENDROOT
BRANCH   4   9
ATOM      9  C   UNL     1       1.773   7.644  19.305  0.00  0.00    +0.000 A 
ATOM     10  C   UNL     1       2.228   8.153  18.082  0.00  0.00    +0.000 A 
ATOM     11  C   UNL     1       2.139   9.521  17.805  0.00  0.00    +0.000 A 
ATOM     12  C   UNL     1       1.602  10.392  18.750  0.00  0.00    +0.000 A 
ATOM     13  C   UNL     1       1.151   9.896  19.973  0.00  0.00    +0.000 A 
ATOM     14  C   UNL     1       1.240   8.530  20.254  0.00  0.00    +0.000 A 
ENDBRANCH   4   9
BRANCH   7  15
ATOM     15  S   UNL     1       4.205   2.547  18.568  0.00  0.00    +0.000 S 
ATOM     16  O   UNL     1       4.791   2.628  19.887  0.00  0.00    +0.000 OA
ATOM     17  O   UNL     1       4.246   1.324  17.793  0.00  0.00    +0.000 OA
BRANCH  15  18
ATOM     18  C   UNL     1       5.142   3.657  17.592  0.00  0.00    +0.000 A 
ATOM     19  C   UNL     1       5.424   3.431  16.204  0.00  0.00    +0.000 A 
ATOM     20  C   UNL     1       6.121   4.472  15.618  0.00  0.00    +0.000 A 
ATOM     21  S   UNL     1       6.445   5.704  16.756  0.00  0.00    +0.000 S 
ATOM     22  C   UNL     1       5.634   4.880  18.020  0.00  0.00    +0.000 A 
ATOM     23  C   UNL     1       5.530   5.537  19.356  0.00  0.00    +0.000 C 
BRANCH  20  24
ATOM     24  C   UNL     1       6.542   4.573  14.229  0.00  0.00    +0.000 C 
ATOM     25  O   UNL     1       6.015   3.997  13.289  0.00  0.00    +0.000 OA
BRANCH  24  26
ATOM     26  O   UNL     1       7.609   5.396  14.050  0.00  0.00    +0.000 OA
ATOM     27  H   UNL     1       7.576   6.164  14.653  0.00  0.00    +0.000 HD
ENDBRANCH  24  26
ENDBRANCH  20  24
ENDBRANCH  15  18
ENDBRANCH   7  15
TORSDOF 5
ENDMDL
MODEL 4
REMARK VINA RESULT:      -7.3      3.325      8.894
REMARK  Name = 
REMARK  7 active torsions:
REMARK  status: ('A' for Active; 'I' for Inactive)
REMARK    1  A    between atoms: C_1  and  C_2
REMARK    2  A    between atoms: N_4  and  C_5
REMARK    3  A    between atoms: N_13  and  S_14
REMARK    4  A    between atoms: S_14  and  C_17
REMARK    5  A    between atoms: C_19  and  C_20
REMARK    6  A    between atoms: C_20  and  O_22
REMARK    7  A    between atoms: C_24  and  C_25
REMARK                            x       y       z     vdW  Elec       q    Type
REMARK                         _______ _______ _______ _____ _____    ______ ____
ROOT
ATOM      1  C   UNL     1       2.544   8.192  17.666  0.00  0.00    +0.000 C 
ATOM      2  C   UNL     1       1.845   8.498  18.934  0.00  0.00    +0.000 A 
ATOM      3  C   UNL     1       0.996   9.555  19.179  0.00  0.00    +0.000 A 
ATOM      4  N   UNL     1       0.617   9.492  20.503  0.00  0.00    +0.000 N 
ATOM      5  N   UNL     1       1.260   8.471  21.141  0.00  0.00    +0.000 NA
ATOM      6  C   UNL     1       1.920   7.835  20.175  0.00  0.00    +0.000 A 
ATOM      7  N   UNL     1       2.717   6.741  20.466  0.00  0.00    +0.000 N 
ATOM      8  H   UNL     1       3.188   6.826  21.361  0.00  0.00    +0.000 HD
ENDROOT
BRANCH   4   9
ATOM      9  C   UNL     1      -0.301  10.344  21.172  0.00  0.00    +0.000 A 
ATOM     10  C   UNL     1      -0.540  10.208  22.545  0.00  0.00    +0.000 A 
ATOM     11  C   UNL     1      -1.428  11.067  23.200  0.00  0.00    +0.000 A 
ATOM     12  C   UNL     1      -2.091  12.063  22.487  0.00  0.00    +0.000 A 
ATOM     13  C   UNL     1      -1.864  12.203  21.118  0.00  0.00    +0.000 A 
ATOM     14  C   UNL     1      -0.978  11.346  20.460  0.00  0.00    +0.000 A 
ENDBRANCH   4   9
BRANCH   7  15
ATOM     15  S   UNL     1       2.023   5.203  20.392  0.00  0.00    +0.000 S 
ATOM     16  O   UNL     1       2.411   4.443  21.560  0.00  0.00    +0.000 OA
ATOM     17  O   UNL     1       0.631   5.401  20.045  0.00  0.00    +0.000 OA
BRANCH  15  18
ATOM     18  C   UNL     1       2.636   4.286  19.035  0.00  0.00    +0.000 A 
ATOM     19  C   UNL     1       3.753   4.713  18.244  0.00  0.00    +0.000 A 
ATOM     20  C   UNL     1       4.106   3.798  17.268  0.00  0.00    +0.000 A 
ATOM     21  S   UNL     1       3.070   2.440  17.304  0.00  0.00    +0.000 S 
ATOM     22  C   UNL     1       2.173   3.043  18.634  0.00  0.00    +0.000 A 
ATOM     23  C   UNL     1       1.075   2.205  19.199  0.00  0.00    +0.000 C 
BRANCH  20  24
ATOM     24  C   UNL     1       5.200   3.909  16.317  0.00  0.00    +0.000 C 
ATOM     25  O   UNL     1       5.075   4.112  15.118  0.00  0.00    +0.000 OA
BRANCH  24  26
ATOM     26  O   UNL     1       6.426   3.769  16.890  0.00  0.00    +0.000 OA
ATOM     27  H   UNL     1       6.468   2.976  17.457  0.00  0.00    +0.000 HD
ENDBRANCH  24  26
ENDBRANCH  20  24
ENDBRANCH  15  18
ENDBRANCH   7  15
TORSDOF 5
ENDMDL
MODEL 5
REMARK VINA RESULT:      -7.2      3.721      7.680
REMARK  Name = 
REMARK  7 active torsions:
REMARK  status: ('A' for Active; 'I' for Inactive)
REMARK    1  A    between atoms: C_1  and  C_2
REMARK    2  A    between atoms: N_4  and  C_5
REMARK    3  A    between atoms: N_13  and  S_14
REMARK    4  A    between atoms: S_14  and  C_17
REMARK    5  A    between atoms: C_19  and  C_20
REMARK    6  A    between atoms: C_20  and  O_22
REMARK    7  A    between atoms: C_24  and  C_25
REMARK                            x       y       z     vdW  Elec       q    Type
REMARK                         _______ _______ _______ _____ _____    ______ ____
ROOT
ATOM      1  C   UNL     1       1.647   3.260  21.669  0.00  0.00    +0.000 C 
ATOM      2  C   UNL     1       1.834   4.318  20.651  0.00  0.00    +0.000 A 
ATOM      3  C   UNL     1       1.569   5.662  20.794  0.00  0.00    +0.000 A 
ATOM      4  N   UNL     1       1.830   6.272  19.586  0.00  0.00    +0.000 N 
ATOM      5  N   UNL     1       2.180   5.349  18.644  0.00  0.00    +0.000 NA
ATOM      6  C   UNL     1       2.263   4.202  19.314  0.00  0.00    +0.000 A 
ATOM      7  N   UNL     1       2.577   3.023  18.660  0.00  0.00    +0.000 N 
ATOM      8  H   UNL     1       2.187   2.978  17.724  0.00  0.00    +0.000 HD
ENDROOT
BRANCH   4   9
ATOM      9  C   UNL     1       1.756   7.661  19.295  0.00  0.00    +0.000 A 
ATOM     10  C   UNL     1       1.260   8.569  20.239  0.00  0.00    +0.000 A 
ATOM     11  C   UNL     1       1.213   9.936  19.952  0.00  0.00    +0.000 A 
ATOM     12  C   UNL     1       1.653  10.407  18.718  0.00  0.00    +0.000 A 
ATOM     13  C   UNL     1       2.143   9.511  17.768  0.00  0.00    +0.000 A 
ATOM     14  C   UNL     1       2.191   8.143  18.051  0.00  0.00    +0.000 A 
ENDBRANCH   4   9
BRANCH   7  15
ATOM     15  S   UNL     1       4.201   2.569  18.565  0.00  0.00    +0.000 S 
ATOM     16  O   UNL     1       4.802   2.653  19.878  0.00  0.00    +0.000 OA
ATOM     17  O   UNL     1       4.238   1.346  17.790  0.00  0.00    +0.000 OA
BRANCH  15  18
ATOM     18  C   UNL     1       5.122   3.682  17.578  0.00  0.00    +0.000 A 
ATOM     19  C   UNL     1       5.366   3.471  16.181  0.00  0.00    +0.000 A 
ATOM     20  C   UNL     1       6.056   4.513  15.589  0.00  0.00    +0.000 A 
ATOM     21  S   UNL     1       6.421   5.729  16.732  0.00  0.00    +0.000 S 
ATOM     22  C   UNL     1       5.636   4.896  18.008  0.00  0.00    +0.000 A 
ATOM     23  C   UNL     1       5.572   5.538  19.353  0.00  0.00    +0.000 C 
BRANCH  20  24
ATOM     24  C   UNL     1       6.442   4.627  14.191  0.00  0.00    +0.000 C 
ATOM     25  O   UNL     1       7.353   5.321  13.765  0.00  0.00    +0.000 OA
BRANCH  24  26
ATOM     26  O   UNL     1       5.681   3.865  13.361  0.00  0.00    +0.000 OA
ATOM     27  H   UNL     1       5.414   4.360  12.562  0.00  0.00    +0.000 HD
ENDBRANCH  24  26
ENDBRANCH  20  24
ENDBRANCH  15  18
ENDBRANCH   7  15
TORSDOF 5
ENDMDL
MODEL 6
REMARK VINA RESULT:      -7.2      4.064      7.135
REMARK  Name = 
REMARK  7 active torsions:
REMARK  status: ('A' for Active; 'I' for Inactive)
REMARK    1  A    between atoms: C_1  and  C_2
REMARK    2  A    between atoms: N_4  and  C_5
REMARK    3  A    between atoms: N_13  and  S_14
REMARK    4  A    between atoms: S_14  and  C_17
REMARK    5  A    between atoms: C_19  and  C_20
REMARK    6  A    between atoms: C_20  and  O_22
REMARK    7  A    between atoms: C_24  and  C_25
REMARK                            x       y       z     vdW  Elec       q    Type
REMARK                         _______ _______ _______ _____ _____    ______ ____
ROOT
ATOM      1  C   UNL     1       1.637   3.291  21.765  0.00  0.00    +0.000 C 
ATOM      2  C   UNL     1       1.799   4.331  20.725  0.00  0.00    +0.000 A 
ATOM      3  C   UNL     1       1.580   5.683  20.863  0.00  0.00    +0.000 A 
ATOM      4  N   UNL     1       1.792   6.272  19.635  0.00  0.00    +0.000 N 
ATOM      5  N   UNL     1       2.066   5.327  18.688  0.00  0.00    +0.000 NA
ATOM      6  C   UNL     1       2.152   4.186  19.368  0.00  0.00    +0.000 A 
ATOM      7  N   UNL     1       2.398   2.991  18.714  0.00  0.00    +0.000 N 
ATOM      8  H   UNL     1       1.957   2.946  17.801  0.00  0.00    +0.000 HD
ENDROOT
BRANCH   4   9
ATOM      9  C   UNL     1       1.742   7.658  19.329  0.00  0.00    +0.000 A 
ATOM     10  C   UNL     1       2.183   8.139  18.090  0.00  0.00    +0.000 A 
ATOM     11  C   UNL     1       2.107   9.502  17.790  0.00  0.00    +0.000 A 
ATOM     12  C   UNL     1       1.597  10.397  18.726  0.00  0.00    +0.000 A 
ATOM     13  C   UNL     1       1.160   9.929  19.966  0.00  0.00    +0.000 A 
ATOM     14  C   UNL     1       1.235   8.568  20.270  0.00  0.00    +0.000 A 
ENDBRANCH   4   9
BRANCH   7  15
ATOM     15  S   UNL     1       4.001   2.490  18.539  0.00  0.00    +0.000 S 
ATOM     16  O   UNL     1       4.486   1.979  19.802  0.00  0.00    +0.000 OA
ATOM     17  O   UNL     1       4.050   1.695  17.330  0.00  0.00    +0.000 OA
BRANCH  15  18
ATOM     18  C   UNL     1       5.056   3.834  18.163  0.00  0.00    +0.000 A 
ATOM     19  C   UNL     1       5.998   4.374  19.101  0.00  0.00    +0.000 A 
ATOM     20  C   UNL     1       6.774   5.385  18.564  0.00  0.00    +0.000 A 
ATOM     21  S   UNL     1       6.344   5.687  16.939  0.00  0.00    +0.000 S 
ATOM     22  C   UNL     1       5.152   4.455  16.928  0.00  0.00    +0.000 A 
ATOM     23  C   UNL     1       4.410   4.184  15.662  0.00  0.00    +0.000 C 
BRANCH  20  24
ATOM     24  C   UNL     1       7.833   6.125  19.233  0.00  0.00    +0.000 C 
ATOM     25  O   UNL     1       8.369   7.135  18.801  0.00  0.00    +0.000 OA
BRANCH  24  26
ATOM     26  O   UNL     1       8.193   5.586  20.428  0.00  0.00    +0.000 OA
ATOM     27  H   UNL     1       7.607   5.885  21.148  0.00  0.00    +0.000 HD
ENDBRANCH  24  26
ENDBRANCH  20  24
ENDBRANCH  15  18
ENDBRANCH   7  15
TORSDOF 5
ENDMDL
MODEL 7
REMARK VINA RESULT:      -7.1      3.168      4.875
REMARK  Name = 
REMARK  7 active torsions:
REMARK  status: ('A' for Active; 'I' for Inactive)
REMARK    1  A    between atoms: C_1  and  C_2
REMARK    2  A    between atoms: N_4  and  C_5
REMARK    3  A    between atoms: N_13  and  S_14
REMARK    4  A    between atoms: S_14  and  C_17
REMARK    5  A    between atoms: C_19  and  C_20
REMARK    6  A    between atoms: C_20  and  O_22
REMARK    7  A    between atoms: C_24  and  C_25
REMARK                            x       y       z     vdW  Elec       q    Type
REMARK                         _______ _______ _______ _____ _____    ______ ____
ROOT
ATOM      1  C   UNL     1       7.283   5.667  19.104  0.00  0.00    +0.000 C 
ATOM      2  C   UNL     1       6.654   5.543  17.770  0.00  0.00    +0.000 A 
ATOM      3  C   UNL     1       7.218   5.005  16.635  0.00  0.00    +0.000 A 
ATOM      4  N   UNL     1       6.309   5.145  15.607  0.00  0.00    +0.000 N 
ATOM      5  N   UNL     1       5.206   5.829  16.028  0.00  0.00    +0.000 NA
ATOM      6  C   UNL     1       5.387   5.984  17.338  0.00  0.00    +0.000 A 
ATOM      7  N   UNL     1       4.460   6.670  18.104  0.00  0.00    +0.000 N 
ATOM      8  H   UNL     1       4.040   7.449  17.606  0.00  0.00    +0.000 HD
ENDROOT
BRANCH   4   9
ATOM      9  C   UNL     1       6.445   4.673  14.274  0.00  0.00    +0.000 A 
ATOM     10  C   UNL     1       7.481   5.130  13.451  0.00  0.00    +0.000 A 
ATOM     11  C   UNL     1       7.620   4.643  12.148  0.00  0.00    +0.000 A 
ATOM     12  C   UNL     1       6.722   3.700  11.654  0.00  0.00    +0.000 A 
ATOM     13  C   UNL     1       5.683   3.242  12.465  0.00  0.00    +0.000 A 
ATOM     14  C   UNL     1       5.540   3.728  13.767  0.00  0.00    +0.000 A 
ENDBRANCH   4   9
BRANCH   7  15
ATOM     15  S   UNL     1       3.215   5.790  18.830  0.00  0.00    +0.000 S 
ATOM     16  O   UNL     1       3.110   6.165  20.223  0.00  0.00    +0.000 OA
ATOM     17  O   UNL     1       2.080   5.874  17.935  0.00  0.00    +0.000 OA
BRANCH  15  18
ATOM     18  C   UNL     1       3.567   4.076  18.852  0.00  0.00    +0.000 A 
ATOM     19  C   UNL     1       4.352   3.453  19.877  0.00  0.00    +0.000 A 
ATOM     20  C   UNL     1       4.442   2.080  19.729  0.00  0.00    +0.000 A 
ATOM     21  S   UNL     1       3.592   1.561  18.341  0.00  0.00    +0.000 S 
ATOM     22  C   UNL     1       3.074   3.147  17.950  0.00  0.00    +0.000 A 
ATOM     23  C   UNL     1       2.182   3.341  16.769  0.00  0.00    +0.000 C 
BRANCH  20  24
ATOM     24  C   UNL     1       5.138   1.148  20.602  0.00  0.00    +0.000 C 
ATOM     25  O   UNL     1       5.389   1.341  21.782  0.00  0.00    +0.000 OA
BRANCH  24  26
ATOM     26  O   UNL     1       5.497  -0.005  19.979  0.00  0.00    +0.000 OA
ATOM     27  H   UNL     1       5.508  -0.760  20.598  0.00  0.00    +0.000 HD
ENDBRANCH  24  26
ENDBRANCH  20  24
ENDBRANCH  15  18
ENDBRANCH   7  15
TORSDOF 5
ENDMDL
MODEL 8
REMARK VINA RESULT:      -7.1      4.595      8.489
REMARK  Name = 
REMARK  7 active torsions:
REMARK  status: ('A' for Active; 'I' for Inactive)
REMARK    1  A    between atoms: C_1  and  C_2
REMARK    2  A    between atoms: N_4  and  C_5
REMARK    3  A    between atoms: N_13  and  S_14
REMARK    4  A    between atoms: S_14  and  C_17
REMARK    5  A    between atoms: C_19  and  C_20
REMARK    6  A    between atoms: C_20  and  O_22
REMARK    7  A    between atoms: C_24  and  C_25
REMARK                            x       y       z     vdW  Elec       q    Type
REMARK                         _______ _______ _______ _____ _____    ______ ____
ROOT
ATOM      1  C   UNL     1       7.514   5.742  19.508  0.00  0.00    +0.000 C 
ATOM      2  C   UNL     1       6.289   5.046  19.055  0.00  0.00    +0.000 A 
ATOM      3  C   UNL     1       5.151   4.808  19.792  0.00  0.00    +0.000 A 
ATOM      4  N   UNL     1       4.284   4.081  19.004  0.00  0.00    +0.000 N 
ATOM      5  N   UNL     1       4.862   3.776  17.806  0.00  0.00    +0.000 NA
ATOM      6  C   UNL     1       6.021   4.430  17.816  0.00  0.00    +0.000 A 
ATOM      7  N   UNL     1       6.900   4.329  16.751  0.00  0.00    +0.000 N 
ATOM      8  H   UNL     1       6.901   3.405  16.330  0.00  0.00    +0.000 HD
ENDROOT
BRANCH   4   9
ATOM      9  C   UNL     1       2.966   3.669  19.335  0.00  0.00    +0.000 A 
ATOM     10  C   UNL     1       2.061   3.282  18.339  0.00  0.00    +0.000 A 
ATOM     11  C   UNL     1       0.773   2.856  18.677  0.00  0.00    +0.000 A 
ATOM     12  C   UNL     1       0.376   2.821  20.011  0.00  0.00    +0.000 A 
ATOM     13  C   UNL     1       1.267   3.210  21.010  0.00  0.00    +0.000 A 
ATOM     14  C   UNL     1       2.555   3.637  20.677  0.00  0.00    +0.000 A 
ENDBRANCH   4   9
BRANCH   7  15
ATOM     15  S   UNL     1       6.781   5.463  15.505  0.00  0.00    +0.000 S 
ATOM     16  O   UNL     1       5.499   6.128  15.582  0.00  0.00    +0.000 OA
ATOM     17  O   UNL     1       8.023   6.207  15.511  0.00  0.00    +0.000 OA
BRANCH  15  18
ATOM     18  C   UNL     1       6.795   4.695  13.934  0.00  0.00    +0.000 A 
ATOM     19  C   UNL     1       5.829   3.712  13.535  0.00  0.00    +0.000 A 
ATOM     20  C   UNL     1       5.993   3.294  12.227  0.00  0.00    +0.000 A 
ATOM     21  S   UNL     1       7.325   4.077  11.499  0.00  0.00    +0.000 S 
ATOM     22  C   UNL     1       7.668   5.000  12.902  0.00  0.00    +0.000 A 
ATOM     23  C   UNL     1       8.785   5.988  12.856  0.00  0.00    +0.000 C 
BRANCH  20  24
ATOM     24  C   UNL     1       5.174   2.331  11.506  0.00  0.00    +0.000 C 
ATOM     25  O   UNL     1       4.042   2.536  11.095  0.00  0.00    +0.000 OA
BRANCH  24  26
ATOM     26  O   UNL     1       5.796   1.137  11.312  0.00  0.00    +0.000 OA
ATOM     27  H   UNL     1       6.426   1.177  10.567  0.00  0.00    +0.000 HD
ENDBRANCH  24  26
ENDBRANCH  20  24
ENDBRANCH  15  18
ENDBRANCH   7  15
TORSDOF 5
ENDMDL
MODEL 9
REMARK VINA RESULT:      -6.9      2.608      3.841
REMARK  Name = 
REMARK  7 active torsions:
REMARK  status: ('A' for Active; 'I' for Inactive)
REMARK    1  A    between atoms: C_1  and  C_2
REMARK    2  A    between atoms: N_4  and  C_5
REMARK    3  A    between atoms: N_13  and  S_14
REMARK    4  A    between atoms: S_14  and  C_17
REMARK    5  A    between atoms: C_19  and  C_20
REMARK    6  A    between atoms: C_20  and  O_22
REMARK    7  A    between atoms: C_24  and  C_25
REMARK                            x       y       z     vdW  Elec       q    Type
REMARK                         _______ _______ _______ _____ _____    ______ ____
ROOT
ATOM      1  C   UNL     1       6.475   5.224  19.468  0.00  0.00    +0.000 C 
ATOM      2  C   UNL     1       6.130   5.377  18.037  0.00  0.00    +0.000 A 
ATOM      3  C   UNL     1       6.717   4.736  16.969  0.00  0.00    +0.000 A 
ATOM      4  N   UNL     1       6.132   5.216  15.817  0.00  0.00    +0.000 N 
ATOM      5  N   UNL     1       5.239   6.206  16.106  0.00  0.00    +0.000 NA
ATOM      6  C   UNL     1       5.185   6.232  17.435  0.00  0.00    +0.000 A 
ATOM      7  N   UNL     1       4.383   7.150  18.093  0.00  0.00    +0.000 N 
ATOM      8  H   UNL     1       4.343   8.046  17.617  0.00  0.00    +0.000 HD
ENDROOT
BRANCH   4   9
ATOM      9  C   UNL     1       6.384   4.787  14.486  0.00  0.00    +0.000 A 
ATOM     10  C   UNL     1       7.473   5.290  13.763  0.00  0.00    +0.000 A 
ATOM     11  C   UNL     1       7.726   4.845  12.462  0.00  0.00    +0.000 A 
ATOM     12  C   UNL     1       6.892   3.900  11.870  0.00  0.00    +0.000 A 
ATOM     13  C   UNL     1       5.802   3.398  12.581  0.00  0.00    +0.000 A 
ATOM     14  C   UNL     1       5.544   3.841  13.880  0.00  0.00    +0.000 A 
ENDBRANCH   4   9
BRANCH   7  15
ATOM     15  S   UNL     1       2.803   6.699  18.481  0.00  0.00    +0.000 S 
ATOM     16  O   UNL     1       2.354   7.458  19.628  0.00  0.00    +0.000 OA
ATOM     17  O   UNL     1       2.062   6.698  17.236  0.00  0.00    +0.000 OA
BRANCH  15  18
ATOM     18  C   UNL     1       2.717   5.027  18.986  0.00  0.00    +0.000 A 
ATOM     19  C   UNL     1       2.569   4.632  20.357  0.00  0.00    +0.000 A 
ATOM     20  C   UNL     1       2.454   3.262  20.514  0.00  0.00    +0.000 A 
ATOM     21  S   UNL     1       2.547   2.466  19.006  0.00  0.00    +0.000 S 
ATOM     22  C   UNL     1       2.704   3.933  18.135  0.00  0.00    +0.000 A 
ATOM     23  C   UNL     1       2.780   3.881  16.646  0.00  0.00    +0.000 C 
BRANCH  20  24
ATOM     24  C   UNL     1       2.268   2.536  21.761  0.00  0.00    +0.000 C 
ATOM     25  O   UNL     1       1.238   2.516  22.419  0.00  0.00    +0.000 OA
BRANCH  24  26
ATOM     26  O   UNL     1       3.374   1.848  22.151  0.00  0.00    +0.000 OA
ATOM     27  H   UNL     1       3.484   1.865  23.121  0.00  0.00    +0.000 HD
ENDBRANCH  24  26
ENDBRANCH  20  24
ENDBRANCH  15  18
ENDBRANCH   7  15
TORSDOF 5
ENDMDL
