MODEL 1
REMARK VINA RESULT:      -8.1      0.000      0.000
REMARK  Name = 
REMARK  3 active torsions:
REMARK  status: ('A' for Active; 'I' for Inactive)
REMARK    1  A    between atoms: C_1  and  C_2
REMARK    2  A    between atoms: C_11  and  C_12
REMARK    3  A    between atoms: C_16  and  C_17
REMARK                            x       y       z     vdW  Elec       q    Type
REMARK                         _______ _______ _______ _____ _____    ______ ____
ROOT
ATOM      1  C   UNL     1      -1.288  11.736  20.794  0.00  0.00    +0.000 C 
ATOM      2  C   UNL     1      -0.253  10.688  20.981  0.00  0.00    +0.000 A 
ATOM      3  C   UNL     1       0.182  10.185  22.189  0.00  0.00    +0.000 A 
ATOM      4  S   UNL     1       1.297   8.923  21.926  0.00  0.00    +0.000 S 
ATOM      5  C   UNL     1       1.127   9.116  20.226  0.00  0.00    +0.000 A 
ATOM      6  N   UNL     1       1.847   8.310  19.360  0.00  0.00    +0.000 N 
ATOM      7  C   UNL     1       2.095   8.708  18.074  0.00  0.00    +0.000 C 
ATOM      8  N   UNL     1       1.720   9.783  17.475  0.00  0.00    +0.000 NA
ATOM      9  S   UNL     1       3.094   7.539  17.241  0.00  0.00    +0.000 S 
ATOM     10  C   UNL     1       3.040   6.453  18.568  0.00  0.00    +0.000 C 
ATOM     11  C   UNL     1       3.569   5.226  18.670  0.00  0.00    +0.000 C 
ATOM     12  C   UNL     1       2.279   7.044  19.701  0.00  0.00    +0.000 C 
ATOM     13  O   UNL     1       2.066   6.401  20.721  0.00  0.00    +0.000 OA
ATOM     14  N   UNL     1       0.352  10.122  19.865  0.00  0.00    +0.000 NA
ATOM     15  H   UNL     1       1.136  10.339  18.120  0.00  0.00    +0.000 HD
ENDROOT
BRANCH  11  16
ATOM     16  C   UNL     1       4.383   4.572  17.709  0.00  0.00    +0.000 A 
ATOM     17  C   UNL     1       4.014   3.449  17.013  0.00  0.00    +0.000 A 
ATOM     18  N   UNL     1       5.072   3.160  16.207  0.00  0.00    +0.000 N 
ATOM     19  N   UNL     1       6.106   4.004  16.347  0.00  0.00    +0.000 NA
ATOM     20  C   UNL     1       5.712   4.880  17.291  0.00  0.00    +0.000 A 
ATOM     21  H   UNL     1       5.160   2.402  15.539  0.00  0.00    +0.000 HD
BRANCH  20  22
ATOM     22  C   UNL     1       6.607   5.956  17.737  0.00  0.00    +0.000 A 
ATOM     23  C   UNL     1       7.449   5.755  18.845  0.00  0.00    +0.000 A 
ATOM     24  C   UNL     1       8.303   6.770  19.287  0.00  0.00    +0.000 A 
ATOM     25  C   UNL     1       8.320   7.990  18.622  0.00  0.00    +0.000 A 
ATOM     26  F   UNL     1       9.132   8.966  19.049  0.00  0.00    +0.000 F 
ATOM     27  C   UNL     1       7.494   8.217  17.530  0.00  0.00    +0.000 A 
ATOM     28  C   UNL     1       6.635   7.204  17.092  0.00  0.00    +0.000 A 
ENDBRANCH  20  22
ENDBRANCH  11  16
TORSDOF 2
ENDMDL
MODEL 2
REMARK VINA RESULT:      -8.1      1.948      2.469
REMARK  Name = 
REMARK  3 active torsions:
REMARK  status: ('A' for Active; 'I' for Inactive)
REMARK    1  A    between atoms: C_1  and  C_2
REMARK    2  A    between atoms: C_11  and  C_12
REMARK    3  A    between atoms: C_16  and  C_17
REMARK                            x       y       z     vdW  Elec       q    Type
REMARK                         _______ _______ _______ _____ _____    ______ ____
ROOT
ATOM      1  C   UNL     1       0.151  13.550  21.950  0.00  0.00    +0.000 C 
ATOM      2  C   UNL     1       0.077  12.515  20.887  0.00  0.00    +0.000 A 
ATOM      3  C   UNL     1      -0.527  12.659  19.655  0.00  0.00    +0.000 A 
ATOM      4  S   UNL     1      -0.274  11.259  18.717  0.00  0.00    +0.000 S 
ATOM      5  C   UNL     1       0.628  10.553  19.998  0.00  0.00    +0.000 A 
ATOM      6  N   UNL     1       1.163   9.283  19.855  0.00  0.00    +0.000 N 
ATOM      7  C   UNL     1       1.473   8.524  20.950  0.00  0.00    +0.000 C 
ATOM      8  N   UNL     1       1.367   8.824  22.196  0.00  0.00    +0.000 NA
ATOM      9  S   UNL     1       2.046   6.942  20.471  0.00  0.00    +0.000 S 
ATOM     10  C   UNL     1       2.016   7.365  18.809  0.00  0.00    +0.000 C 
ATOM     11  C   UNL     1       2.392   6.635  17.750  0.00  0.00    +0.000 C 
ATOM     12  C   UNL     1       1.491   8.744  18.626  0.00  0.00    +0.000 C 
ATOM     13  O   UNL     1       1.452   9.262  17.517  0.00  0.00    +0.000 OA
ATOM     14  N   UNL     1       0.668  11.276  21.102  0.00  0.00    +0.000 NA
ATOM     15  H   UNL     1       1.023   9.794  22.279  0.00  0.00    +0.000 HD
ENDROOT
BRANCH  11  16
ATOM     16  C   UNL     1       2.831   5.285  17.766  0.00  0.00    +0.000 A 
ATOM     17  C   UNL     1       2.003   4.197  17.653  0.00  0.00    +0.000 A 
ATOM     18  N   UNL     1       2.822   3.112  17.710  0.00  0.00    +0.000 N 
ATOM     19  N   UNL     1       4.119   3.420  17.873  0.00  0.00    +0.000 NA
ATOM     20  C   UNL     1       4.150   4.765  17.931  0.00  0.00    +0.000 A 
ATOM     21  H   UNL     1       2.568   2.132  17.650  0.00  0.00    +0.000 HD
BRANCH  20  22
ATOM     22  C   UNL     1       5.418   5.479  18.134  0.00  0.00    +0.000 A 
ATOM     23  C   UNL     1       6.221   5.182  19.248  0.00  0.00    +0.000 A 
ATOM     24  C   UNL     1       7.428   5.855  19.460  0.00  0.00    +0.000 A 
ATOM     25  C   UNL     1       7.837   6.828  18.557  0.00  0.00    +0.000 A 
ATOM     26  F   UNL     1       8.990   7.479  18.762  0.00  0.00    +0.000 F 
ATOM     27  C   UNL     1       7.060   7.145  17.452  0.00  0.00    +0.000 A 
ATOM     28  C   UNL     1       5.850   6.477  17.244  0.00  0.00    +0.000 A 
ENDBRANCH  20  22
ENDBRANCH  11  16
TORSDOF 2
ENDMDL
MODEL 3
REMARK VINA RESULT:      -7.5      2.586      3.384
REMARK  Name = 
REMARK  3 active torsions:
REMARK  status: ('A' for Active; 'I' for Inactive)
REMARK    1  A    between atoms: C_1  and  C_2
REMARK    2  A    between atoms: C_11  and  C_12
REMARK    3  A    between atoms: C_16  and  C_17
REMARK                            x       y       z     vdW  Elec       q    Type
REMARK                         _______ _______ _______ _____ _____    ______ ____
ROOT
ATOM      1  C   UNL     1       0.558  13.328  21.358  0.00  0.00    +0.000 C 
ATOM      2  C   UNL     1       0.546  12.237  20.350  0.00  0.00    +0.000 A 
ATOM      3  C   UNL     1       0.162  12.355  19.031  0.00  0.00    +0.000 A 
ATOM      4  S   UNL     1       0.415  10.879  18.217  0.00  0.00    +0.000 S 
ATOM      5  C   UNL     1       1.027  10.177  19.662  0.00  0.00    +0.000 A 
ATOM      6  N   UNL     1       1.444   8.857  19.671  0.00  0.00    +0.000 N 
ATOM      7  C   UNL     1       1.498   8.145  20.838  0.00  0.00    +0.000 C 
ATOM      8  N   UNL     1       1.228   8.536  22.034  0.00  0.00    +0.000 NA
ATOM      9  S   UNL     1       1.975   6.489  20.539  0.00  0.00    +0.000 S 
ATOM     10  C   UNL     1       2.250   6.803  18.875  0.00  0.00    +0.000 C 
ATOM     11  C   UNL     1       2.712   5.973  17.929  0.00  0.00    +0.000 C 
ATOM     12  C   UNL     1       1.905   8.211  18.540  0.00  0.00    +0.000 C 
ATOM     13  O   UNL     1       2.094   8.656  17.415  0.00  0.00    +0.000 OA
ATOM     14  N   UNL     1       0.967  10.965  20.720  0.00  0.00    +0.000 NA
ATOM     15  H   UNL     1       0.978   9.537  22.011  0.00  0.00    +0.000 HD
ENDROOT
BRANCH  11  16
ATOM     16  C   UNL     1       3.002   4.592  18.083  0.00  0.00    +0.000 A 
ATOM     17  C   UNL     1       2.322   3.744  18.919  0.00  0.00    +0.000 A 
ATOM     18  N   UNL     1       2.913   2.529  18.759  0.00  0.00    +0.000 N 
ATOM     19  N   UNL     1       3.939   2.535  17.894  0.00  0.00    +0.000 NA
ATOM     20  C   UNL     1       4.030   3.811  17.474  0.00  0.00    +0.000 A 
ATOM     21  H   UNL     1       2.673   1.651  19.209  0.00  0.00    +0.000 HD
BRANCH  20  22
ATOM     22  C   UNL     1       5.073   4.217  16.523  0.00  0.00    +0.000 A 
ATOM     23  C   UNL     1       4.958   3.872  15.165  0.00  0.00    +0.000 A 
ATOM     24  C   UNL     1       5.943   4.245  14.247  0.00  0.00    +0.000 A 
ATOM     25  C   UNL     1       7.048   4.966  14.681  0.00  0.00    +0.000 A 
ATOM     26  F   UNL     1       7.997   5.318  13.804  0.00  0.00    +0.000 F 
ATOM     27  C   UNL     1       7.190   5.314  16.017  0.00  0.00    +0.000 A 
ATOM     28  C   UNL     1       6.208   4.935  16.937  0.00  0.00    +0.000 A 
ENDBRANCH  20  22
ENDBRANCH  11  16
TORSDOF 2
ENDMDL
MODEL 4
REMARK VINA RESULT:      -7.5      3.834      8.883
REMARK  Name = 
REMARK  3 active torsions:
REMARK  status: ('A' for Active; 'I' for Inactive)
REMARK    1  A    between atoms: C_1  and  C_2
REMARK    2  A    between atoms: C_11  and  C_12
REMARK    3  A    between atoms: C_16  and  C_17
REMARK                            x       y       z     vdW  Elec       q    Type
REMARK                         _______ _______ _______ _____ _____    ______ ____
ROOT
ATOM      1  C   UNL     1       4.041   2.688  17.779  0.00  0.00    +0.000 C 
ATOM      2  C   UNL     1       4.030   4.173  17.742  0.00  0.00    +0.000 A 
ATOM      3  C   UNL     1       4.757   4.968  16.881  0.00  0.00    +0.000 A 
ATOM      4  S   UNL     1       4.351   6.606  17.119  0.00  0.00    +0.000 S 
ATOM      5  C   UNL     1       3.229   6.158  18.343  0.00  0.00    +0.000 A 
ATOM      6  N   UNL     1       2.499   7.131  19.005  0.00  0.00    +0.000 N 
ATOM      7  C   UNL     1       1.966   6.888  20.242  0.00  0.00    +0.000 C 
ATOM      8  N   UNL     1       2.011   5.810  20.942  0.00  0.00    +0.000 NA
ATOM      9  S   UNL     1       1.173   8.315  20.871  0.00  0.00    +0.000 S 
ATOM     10  C   UNL     1       1.424   9.176  19.409  0.00  0.00    +0.000 C 
ATOM     11  C   UNL     1       1.024  10.413  19.084  0.00  0.00    +0.000 C 
ATOM     12  C   UNL     1       2.194   8.353  18.438  0.00  0.00    +0.000 C 
ATOM     13  O   UNL     1       2.420   8.761  17.306  0.00  0.00    +0.000 OA
ATOM     14  N   UNL     1       3.216   4.869  18.627  0.00  0.00    +0.000 NA
ATOM     15  H   UNL     1       2.508   5.082  20.404  0.00  0.00    +0.000 HD
ENDROOT
BRANCH  11  16
ATOM     16  C   UNL     1       0.359  11.337  19.932  0.00  0.00    +0.000 A 
ATOM     17  C   UNL     1       0.898  11.871  21.075  0.00  0.00    +0.000 A 
ATOM     18  N   UNL     1      -0.059  12.700  21.572  0.00  0.00    +0.000 N 
ATOM     19  N   UNL     1      -1.186  12.726  20.844  0.00  0.00    +0.000 NA
ATOM     20  C   UNL     1      -0.961  11.871  19.829  0.00  0.00    +0.000 A 
ATOM     21  H   UNL     1      -0.015  13.278  22.406  0.00  0.00    +0.000 HD
BRANCH  20  22
ATOM     22  C   UNL     1      -1.998  11.612  18.821  0.00  0.00    +0.000 A 
ATOM     23  C   UNL     1      -1.649  11.039  17.586  0.00  0.00    +0.000 A 
ATOM     24  C   UNL     1      -2.622  10.791  16.613  0.00  0.00    +0.000 A 
ATOM     25  C   UNL     1      -3.948  11.114  16.871  0.00  0.00    +0.000 A 
ATOM     26  F   UNL     1      -4.880  10.884  15.937  0.00  0.00    +0.000 F 
ATOM     27  C   UNL     1      -4.318  11.687  18.079  0.00  0.00    +0.000 A 
ATOM     28  C   UNL     1      -3.345  11.941  19.049  0.00  0.00    +0.000 A 
ENDBRANCH  20  22
ENDBRANCH  11  16
TORSDOF 2
ENDMDL
MODEL 5
REMARK VINA RESULT:      -7.4      4.004      8.684
REMARK  Name = 
REMARK  3 active torsions:
REMARK  status: ('A' for Active; 'I' for Inactive)
REMARK    1  A    between atoms: C_1  and  C_2
REMARK    2  A    between atoms: C_11  and  C_12
REMARK    3  A    between atoms: C_16  and  C_17
REMARK                            x       y       z     vdW  Elec       q    Type
REMARK                         _______ _______ _______ _____ _____    ______ ____
ROOT
ATOM      1  C   UNL     1       3.653   1.834  18.176  0.00  0.00    +0.000 C 
ATOM      2  C   UNL     1       3.780   3.309  18.052  0.00  0.00    +0.000 A 
ATOM      3  C   UNL     1       4.598   3.981  17.169  0.00  0.00    +0.000 A 
ATOM      4  S   UNL     1       4.339   5.661  17.299  0.00  0.00    +0.000 S 
ATOM      5  C   UNL     1       3.151   5.392  18.513  0.00  0.00    +0.000 A 
ATOM      6  N   UNL     1       2.498   6.465  19.096  0.00  0.00    +0.000 N 
ATOM      7  C   UNL     1       1.915   6.347  20.328  0.00  0.00    +0.000 C 
ATOM      8  N   UNL     1       1.842   5.313  21.091  0.00  0.00    +0.000 NA
ATOM      9  S   UNL     1       1.242   7.874  20.849  0.00  0.00    +0.000 S 
ATOM     10  C   UNL     1       1.607   8.619  19.348  0.00  0.00    +0.000 C 
ATOM     11  C   UNL     1       1.330   9.865  18.940  0.00  0.00    +0.000 C 
ATOM     12  C   UNL     1       2.321   7.673  18.450  0.00  0.00    +0.000 C 
ATOM     13  O   UNL     1       2.612   7.989  17.304  0.00  0.00    +0.000 OA
ATOM     14  N   UNL     1       3.013   4.129  18.871  0.00  0.00    +0.000 NA
ATOM     15  H   UNL     1       2.283   4.512  20.611  0.00  0.00    +0.000 HD
ENDROOT
BRANCH  11  16
ATOM     16  C   UNL     1       0.733  10.896  19.712  0.00  0.00    +0.000 A 
ATOM     17  C   UNL     1       1.318  11.490  20.801  0.00  0.00    +0.000 A 
ATOM     18  N   UNL     1       0.419  12.414  21.235  0.00  0.00    +0.000 N 
ATOM     19  N   UNL     1      -0.715  12.447  20.518  0.00  0.00    +0.000 NA
ATOM     20  C   UNL     1      -0.555  11.497  19.576  0.00  0.00    +0.000 A 
ATOM     21  H   UNL     1       0.508  13.056  22.017  0.00  0.00    +0.000 HD
BRANCH  20  22
ATOM     22  C   UNL     1      -1.619  11.217  18.603  0.00  0.00    +0.000 A 
ATOM     23  C   UNL     1      -2.883  11.814  18.754  0.00  0.00    +0.000 A 
ATOM     24  C   UNL     1      -3.909  11.555  17.840  0.00  0.00    +0.000 A 
ATOM     25  C   UNL     1      -3.675  10.698  16.771  0.00  0.00    +0.000 A 
ATOM     26  F   UNL     1      -4.660  10.443  15.899  0.00  0.00    +0.000 F 
ATOM     27  C   UNL     1      -2.439  10.090  16.604  0.00  0.00    +0.000 A 
ATOM     28  C   UNL     1      -1.415  10.344  17.521  0.00  0.00    +0.000 A 
ENDBRANCH  20  22
ENDBRANCH  11  16
TORSDOF 2
ENDMDL
MODEL 6
REMARK VINA RESULT:      -7.2      3.029      4.430
REMARK  Name = 
REMARK  3 active torsions:
REMARK  status: ('A' for Active; 'I' for Inactive)
REMARK    1  A    between atoms: C_1  and  C_2
REMARK    2  A    between atoms: C_11  and  C_12
REMARK    3  A    between atoms: C_16  and  C_17
REMARK                            x       y       z     vdW  Elec       q    Type
REMARK                         _______ _______ _______ _____ _____    ______ ____
ROOT
ATOM      1  C   UNL     1      -1.286  11.772  21.833  0.00  0.00    +0.000 C 
ATOM      2  C   UNL     1      -0.823  11.044  20.624  0.00  0.00    +0.000 A 
ATOM      3  C   UNL     1      -1.258  11.258  19.333  0.00  0.00    +0.000 A 
ATOM      4  S   UNL     1      -0.378  10.277  18.252  0.00  0.00    +0.000 S 
ATOM      5  C   UNL     1       0.532   9.636  19.562  0.00  0.00    +0.000 A 
ATOM      6  N   UNL     1       1.511   8.685  19.329  0.00  0.00    +0.000 N 
ATOM      7  C   UNL     1       1.923   7.842  20.324  0.00  0.00    +0.000 C 
ATOM      8  N   UNL     1       1.540   7.795  21.552  0.00  0.00    +0.000 NA
ATOM      9  S   UNL     1       3.100   6.695  19.725  0.00  0.00    +0.000 S 
ATOM     10  C   UNL     1       3.149   7.454  18.188  0.00  0.00    +0.000 C 
ATOM     11  C   UNL     1       3.913   7.154  17.128  0.00  0.00    +0.000 C 
ATOM     12  C   UNL     1       2.183   8.583  18.127  0.00  0.00    +0.000 C 
ATOM     13  O   UNL     1       2.112   9.299  17.135  0.00  0.00    +0.000 OA
ATOM     14  N   UNL     1       0.148  10.058  20.753  0.00  0.00    +0.000 NA
ATOM     15  H   UNL     1       0.855   8.550  21.718  0.00  0.00    +0.000 HD
ENDROOT
BRANCH  11  16
ATOM     16  C   UNL     1       4.811   6.061  17.014  0.00  0.00    +0.000 A 
ATOM     17  C   UNL     1       6.079   6.148  16.496  0.00  0.00    +0.000 A 
ATOM     18  N   UNL     1       6.589   4.889  16.575  0.00  0.00    +0.000 N 
ATOM     19  N   UNL     1       5.735   3.990  17.089  0.00  0.00    +0.000 NA
ATOM     20  C   UNL     1       4.614   4.688  17.350  0.00  0.00    +0.000 A 
ATOM     21  H   UNL     1       7.510   4.568  16.296  0.00  0.00    +0.000 HD
BRANCH  20  22
ATOM     22  C   UNL     1       3.427   4.024  17.907  0.00  0.00    +0.000 A 
ATOM     23  C   UNL     1       3.559   3.154  19.003  0.00  0.00    +0.000 A 
ATOM     24  C   UNL     1       2.442   2.509  19.542  0.00  0.00    +0.000 A 
ATOM     25  C   UNL     1       1.188   2.732  18.987  0.00  0.00    +0.000 A 
ATOM     26  F   UNL     1       0.117   2.109  19.497  0.00  0.00    +0.000 F 
ATOM     27  C   UNL     1       1.031   3.580  17.900  0.00  0.00    +0.000 A 
ATOM     28  C   UNL     1       2.149   4.220  17.357  0.00  0.00    +0.000 A 
ENDBRANCH  20  22
ENDBRANCH  11  16
TORSDOF 2
ENDMDL
MODEL 7
REMARK VINA RESULT:      -7.1      2.526      3.849
REMARK  Name = 
REMARK  3 active torsions:
REMARK  status: ('A' for Active; 'I' for Inactive)
REMARK    1  A    between atoms: C_1  and  C_2
REMARK    2  A    between atoms: C_11  and  C_12
REMARK    3  A    between atoms: C_16  and  C_17
REMARK                            x       y       z     vdW  Elec       q    Type
REMARK                         _______ _______ _______ _____ _____    ______ ____
ROOT
ATOM      1  C   UNL     1      -0.493  15.092  21.130  0.00  0.00    +0.000 C 
ATOM      2  C   UNL     1      -0.378  13.835  20.347  0.00  0.00    +0.000 A 
ATOM      3  C   UNL     1      -0.606  13.698  18.994  0.00  0.00    +0.000 A 
ATOM      4  S   UNL     1      -0.248  12.107  18.501  0.00  0.00    +0.000 S 
ATOM      5  C   UNL     1       0.195  11.699  20.111  0.00  0.00    +0.000 A 
ATOM      6  N   UNL     1       0.618  10.415  20.412  0.00  0.00    +0.000 N 
ATOM      7  C   UNL     1       0.540   9.931  21.689  0.00  0.00    +0.000 C 
ATOM      8  N   UNL     1       0.129  10.526  22.754  0.00  0.00    +0.000 NA
ATOM      9  S   UNL     1       1.060   8.263  21.758  0.00  0.00    +0.000 S 
ATOM     10  C   UNL     1       1.526   8.275  20.108  0.00  0.00    +0.000 C 
ATOM     11  C   UNL     1       2.101   7.299  19.391  0.00  0.00    +0.000 C 
ATOM     12  C   UNL     1       1.212   9.586  19.481  0.00  0.00    +0.000 C 
ATOM     13  O   UNL     1       1.529   9.823  18.322  0.00  0.00    +0.000 OA
ATOM     14  N   UNL     1       0.005  12.665  20.991  0.00  0.00    +0.000 NA
ATOM     15  H   UNL     1      -0.125  11.498  22.517  0.00  0.00    +0.000 HD
ENDROOT
BRANCH  11  16
ATOM     16  C   UNL     1       2.382   5.978  19.830  0.00  0.00    +0.000 A 
ATOM     17  C   UNL     1       1.639   5.294  20.758  0.00  0.00    +0.000 A 
ATOM     18  N   UNL     1       2.244   4.081  20.881  0.00  0.00    +0.000 N 
ATOM     19  N   UNL     1       3.336   3.940  20.115  0.00  0.00    +0.000 NA
ATOM     20  C   UNL     1       3.457   5.114  19.466  0.00  0.00    +0.000 A 
ATOM     21  H   UNL     1       1.970   3.302  21.471  0.00  0.00    +0.000 HD
BRANCH  20  22
ATOM     22  C   UNL     1       4.573   5.349  18.539  0.00  0.00    +0.000 A 
ATOM     23  C   UNL     1       4.319   5.546  17.171  0.00  0.00    +0.000 A 
ATOM     24  C   UNL     1       5.369   5.766  16.274  0.00  0.00    +0.000 A 
ATOM     25  C   UNL     1       6.677   5.789  16.742  0.00  0.00    +0.000 A 
ATOM     26  F   UNL     1       7.685   5.991  15.882  0.00  0.00    +0.000 F 
ATOM     27  C   UNL     1       6.955   5.589  18.086  0.00  0.00    +0.000 A 
ATOM     28  C   UNL     1       5.906   5.364  18.982  0.00  0.00    +0.000 A 
ENDBRANCH  20  22
ENDBRANCH  11  16
TORSDOF 2
ENDMDL
MODEL 8
REMARK VINA RESULT:      -7.1      4.287      8.501
REMARK  Name = 
REMARK  3 active torsions:
REMARK  status: ('A' for Active; 'I' for Inactive)
REMARK    1  A    between atoms: C_1  and  C_2
REMARK    2  A    between atoms: C_11  and  C_12
REMARK    3  A    between atoms: C_16  and  C_17
REMARK                            x       y       z     vdW  Elec       q    Type
REMARK                         _______ _______ _______ _____ _____    ______ ____
ROOT
ATOM      1  C   UNL     1       4.373   2.565  19.638  0.00  0.00    +0.000 C 
ATOM      2  C   UNL     1       3.302   3.577  19.826  0.00  0.00    +0.000 A 
ATOM      3  C   UNL     1       2.157   3.416  20.578  0.00  0.00    +0.000 A 
ATOM      4  S   UNL     1       1.269   4.870  20.604  0.00  0.00    +0.000 S 
ATOM      5  C   UNL     1       2.462   5.626  19.623  0.00  0.00    +0.000 A 
ATOM      6  N   UNL     1       2.312   6.949  19.243  0.00  0.00    +0.000 N 
ATOM      7  C   UNL     1       2.955   7.440  18.139  0.00  0.00    +0.000 C 
ATOM      8  N   UNL     1       3.763   6.835  17.341  0.00  0.00    +0.000 NA
ATOM      9  S   UNL     1       2.516   9.108  17.850  0.00  0.00    +0.000 S 
ATOM     10  C   UNL     1       1.600   9.183  19.298  0.00  0.00    +0.000 C 
ATOM     11  C   UNL     1       0.951  10.230  19.828  0.00  0.00    +0.000 C 
ATOM     12  C   UNL     1       1.589   7.863  19.984  0.00  0.00    +0.000 C 
ATOM     13  O   UNL     1       1.045   7.722  21.072  0.00  0.00    +0.000 OA
ATOM     14  N   UNL     1       3.428   4.822  19.220  0.00  0.00    +0.000 NA
ATOM     15  H   UNL     1       3.906   5.870  17.678  0.00  0.00    +0.000 HD
ENDROOT
BRANCH  11  16
ATOM     16  C   UNL     1       0.807  11.517  19.249  0.00  0.00    +0.000 A 
ATOM     17  C   UNL     1       1.801  12.461  19.193  0.00  0.00    +0.000 A 
ATOM     18  N   UNL     1       1.248  13.532  18.562  0.00  0.00    +0.000 N 
ATOM     19  N   UNL     1      -0.039  13.356  18.224  0.00  0.00    +0.000 NA
ATOM     20  C   UNL     1      -0.345  12.119  18.658  0.00  0.00    +0.000 A 
ATOM     21  H   UNL     1       1.686  14.417  18.331  0.00  0.00    +0.000 HD
BRANCH  20  22
ATOM     22  C   UNL     1      -1.700  11.576  18.487  0.00  0.00    +0.000 A 
ATOM     23  C   UNL     1      -1.902  10.433  17.695  0.00  0.00    +0.000 A 
ATOM     24  C   UNL     1      -3.185   9.905  17.517  0.00  0.00    +0.000 A 
ATOM     25  C   UNL     1      -4.270  10.519  18.129  0.00  0.00    +0.000 A 
ATOM     26  F   UNL     1      -5.500  10.020  17.953  0.00  0.00    +0.000 F 
ATOM     27  C   UNL     1      -4.098  11.654  18.909  0.00  0.00    +0.000 A 
ATOM     28  C   UNL     1      -2.817  12.185  19.083  0.00  0.00    +0.000 A 
ENDBRANCH  20  22
ENDBRANCH  11  16
TORSDOF 2
ENDMDL
MODEL 9
REMARK VINA RESULT:      -7.1      1.465      2.035
REMARK  Name = 
REMARK  3 active torsions:
REMARK  status: ('A' for Active; 'I' for Inactive)
REMARK    1  A    between atoms: C_1  and  C_2
REMARK    2  A    between atoms: C_11  and  C_12
REMARK    3  A    between atoms: C_16  and  C_17
REMARK                            x       y       z     vdW  Elec       q    Type
REMARK                         _______ _______ _______ _____ _____    ______ ____
ROOT
ATOM      1  C   UNL     1      -0.112  12.573  19.861  0.00  0.00    +0.000 C 
ATOM      2  C   UNL     1       0.499  11.317  20.367  0.00  0.00    +0.000 A 
ATOM      3  C   UNL     1       0.711  10.995  21.692  0.00  0.00    +0.000 A 
ATOM      4  S   UNL     1       1.332   9.413  21.813  0.00  0.00    +0.000 S 
ATOM      5  C   UNL     1       1.272   9.249  20.103  0.00  0.00    +0.000 A 
ATOM      6  N   UNL     1       1.690   8.073  19.503  0.00  0.00    +0.000 N 
ATOM      7  C   UNL     1       2.085   8.055  18.193  0.00  0.00    +0.000 C 
ATOM      8  N   UNL     1       2.112   9.023  17.345  0.00  0.00    +0.000 NA
ATOM      9  S   UNL     1       2.639   6.463  17.729  0.00  0.00    +0.000 S 
ATOM     10  C   UNL     1       2.191   5.797  19.244  0.00  0.00    +0.000 C 
ATOM     11  C   UNL     1       2.266   4.524  19.657  0.00  0.00    +0.000 C 
ATOM     12  C   UNL     1       1.656   6.852  20.146  0.00  0.00    +0.000 C 
ATOM     13  O   UNL     1       1.216   6.571  21.254  0.00  0.00    +0.000 OA
ATOM     14  N   UNL     1       0.896  10.340  19.462  0.00  0.00    +0.000 NA
ATOM     15  H   UNL     1       1.741   9.874  17.797  0.00  0.00    +0.000 HD
ENDROOT
BRANCH  11  16
ATOM     16  C   UNL     1       2.827   3.433  18.942  0.00  0.00    +0.000 A 
ATOM     17  C   UNL     1       2.194   2.235  18.731  0.00  0.00    +0.000 A 
ATOM     18  N   UNL     1       3.071   1.486  18.009  0.00  0.00    +0.000 N 
ATOM     19  N   UNL     1       4.233   2.107  17.754  0.00  0.00    +0.000 NA
ATOM     20  C   UNL     1       4.116   3.313  18.342  0.00  0.00    +0.000 A 
ATOM     21  H   UNL     1       2.946   0.542  17.657  0.00  0.00    +0.000 HD
BRANCH  20  22
ATOM     22  C   UNL     1       5.221   4.280  18.298  0.00  0.00    +0.000 A 
ATOM     23  C   UNL     1       5.716   4.725  17.060  0.00  0.00    +0.000 A 
ATOM     24  C   UNL     1       6.771   5.641  16.999  0.00  0.00    +0.000 A 
ATOM     25  C   UNL     1       7.334   6.116  18.176  0.00  0.00    +0.000 A 
ATOM     26  F   UNL     1       8.350   6.988  18.120  0.00  0.00    +0.000 F 
ATOM     27  C   UNL     1       6.869   5.688  19.412  0.00  0.00    +0.000 A 
ATOM     28  C   UNL     1       5.819   4.767  19.472  0.00  0.00    +0.000 A 
ENDBRANCH  20  22
ENDBRANCH  11  16
TORSDOF 2
ENDMDL
