MODEL 1
REMARK VINA RESULT:      -8.1      0.000      0.000
REMARK  Name = 
REMARK  7 active torsions:
REMARK  status: ('A' for Active; 'I' for Inactive)
REMARK    1  A    between atoms: C_1  and  C_2
REMARK    2  A    between atoms: C_11  and  O_12
REMARK    3  A    between atoms: O_12  and  C_13
REMARK    4  A    between atoms: C_13  and  C_15
REMARK    5  A    between atoms: C_23  and  C_24
REMARK    6  A    between atoms: C_27  and  C_28
REMARK    7  A    between atoms: C_30  and  N_31
REMARK                            x       y       z     vdW  Elec       q    Type
REMARK                         _______ _______ _______ _____ _____    ______ ____
ROOT
ATOM      1  C   UNL     1      -2.485  13.083  20.286  0.00  0.00    +0.000 C 
ATOM      2  C   UNL     1      -1.101  13.489  20.839  0.00  0.00    +0.000 C 
ATOM      3  C   UNL     1      -0.088  13.711  19.703  0.00  0.00    +0.000 C 
ATOM      4  C   UNL     1       0.214  12.404  18.950  0.00  0.00    +0.000 C 
ATOM      5  C   UNL     1       0.632  11.223  19.865  0.00  0.00    +0.000 C 
ATOM      6  C   UNL     1      -0.301  11.058  21.106  0.00  0.00    +0.000 C 
ATOM      7  C   UNL     1       0.286  10.024  22.079  0.00  0.00    +0.000 C 
ATOM      8  C   UNL     1       0.862   8.818  21.401  0.00  0.00    +0.000 C 
ATOM      9  C   UNL     1       1.111   8.717  20.080  0.00  0.00    +0.000 C 
ATOM     10  C   UNL     1       1.689   7.434  19.506  0.00  0.00    +0.000 C 
ATOM     11  C   UNL     1       2.931   7.698  18.642  0.00  0.00    +0.000 C 
ATOM     12  C   UNL     1       2.591   8.715  17.541  0.00  0.00    +0.000 C 
ATOM     13  C   UNL     1       2.082  10.026  18.151  0.00  0.00    +0.000 C 
ATOM     14  C   UNL     1       0.849   9.861  19.093  0.00  0.00    +0.000 C 
ATOM     15  C   UNL     1      -0.388   9.478  18.249  0.00  0.00    +0.000 C 
ATOM     16  C   UNL     1      -0.460  12.430  21.776  0.00  0.00    +0.000 C 
ATOM     17  C   UNL     1      -1.210  12.580  23.100  0.00  0.00    +0.000 C 
ATOM     18  C   UNL     1      -1.381  14.078  23.098  0.00  0.00    +0.000 C 
ATOM     19  C   UNL     1      -1.280  14.604  21.860  0.00  0.00    +0.000 C 
ENDROOT
BRANCH  19  20
ATOM     20  N   UNL     1      -1.234  15.960  21.526  0.00  0.00    +0.000 N 
ATOM     21  C   UNL     1      -2.261  16.723  21.005  0.00  0.00    +0.000 A 
ATOM     22  N   UNL     1      -1.876  17.955  20.773  0.00  0.00    +0.000 NA
ATOM     23  C   UNL     1      -0.582  17.937  21.176  0.00  0.00    +0.000 A 
ATOM     24  N   UNL     1      -0.152  16.777  21.670  0.00  0.00    +0.000 NA
ENDBRANCH  19  20
BRANCH  18  25
ATOM     25  C   UNL     1      -1.645  14.840  24.331  0.00  0.00    +0.000 C 
ATOM     26  O   UNL     1      -0.742  15.319  25.007  0.00  0.00    +0.000 OA
ENDBRANCH  18  25
BRANCH  11  27
ATOM     27  O   UNL     1       3.397   6.469  18.009  0.00  0.00    +0.000 OA
BRANCH  27  28
ATOM     28  C   UNL     1       3.862   5.470  18.825  0.00  0.00    +0.000 C 
ATOM     29  O   UNL     1       4.975   5.423  19.305  0.00  0.00    +0.000 OA
BRANCH  28  30
ATOM     30  C   UNL     1       2.819   4.430  19.135  0.00  0.00    +0.000 A 
ATOM     31  C   UNL     1       2.582   4.116  20.490  0.00  0.00    +0.000 A 
ATOM     32  C   UNL     1       1.594   3.189  20.857  0.00  0.00    +0.000 A 
ATOM     33  C   UNL     1       0.815   2.584  19.881  0.00  0.00    +0.000 A 
ATOM     34  C   UNL     1       1.048   2.869  18.531  0.00  0.00    +0.000 A 
ATOM     35  C   UNL     1       2.059   3.770  18.159  0.00  0.00    +0.000 A 
ENDBRANCH  28  30
ENDBRANCH  27  28
ENDBRANCH  11  27
TORSDOF 5
ENDMDL
MODEL 2
REMARK VINA RESULT:      -8.0      3.058      4.268
REMARK  Name = 
REMARK  7 active torsions:
REMARK  status: ('A' for Active; 'I' for Inactive)
REMARK    1  A    between atoms: C_1  and  C_2
REMARK    2  A    between atoms: C_11  and  O_12
REMARK    3  A    between atoms: O_12  and  C_13
REMARK    4  A    between atoms: C_13  and  C_15
REMARK    5  A    between atoms: C_23  and  C_24
REMARK    6  A    between atoms: C_27  and  C_28
REMARK    7  A    between atoms: C_30  and  N_31
REMARK                            x       y       z     vdW  Elec       q    Type
REMARK                         _______ _______ _______ _____ _____    ______ ____
ROOT
ATOM      1  C   UNL     1      -2.870  14.639  21.010  0.00  0.00    +0.000 C 
ATOM      2  C   UNL     1      -3.714  13.366  21.244  0.00  0.00    +0.000 C 
ATOM      3  C   UNL     1      -3.214  12.580  22.468  0.00  0.00    +0.000 C 
ATOM      4  C   UNL     1      -1.801  12.017  22.242  0.00  0.00    +0.000 C 
ATOM      5  C   UNL     1      -1.644  11.198  20.934  0.00  0.00    +0.000 C 
ATOM      6  C   UNL     1      -2.266  11.911  19.693  0.00  0.00    +0.000 C 
ATOM      7  C   UNL     1      -2.274  10.963  18.483  0.00  0.00    +0.000 C 
ATOM      8  C   UNL     1      -1.019  10.157  18.341  0.00  0.00    +0.000 C 
ATOM      9  C   UNL     1      -0.066  10.035  19.287  0.00  0.00    +0.000 C 
ATOM     10  C   UNL     1       1.172   9.194  19.021  0.00  0.00    +0.000 C 
ATOM     11  C   UNL     1       1.426   8.172  20.138  0.00  0.00    +0.000 C 
ATOM     12  C   UNL     1       1.503   8.893  21.494  0.00  0.00    +0.000 C 
ATOM     13  C   UNL     1       0.212   9.671  21.771  0.00  0.00    +0.000 C 
ATOM     14  C   UNL     1      -0.167  10.703  20.663  0.00  0.00    +0.000 C 
ATOM     15  C   UNL     1       0.843  11.873  20.692  0.00  0.00    +0.000 C 
ATOM     16  C   UNL     1      -3.686  12.364  20.058  0.00  0.00    +0.000 C 
ATOM     17  C   UNL     1      -4.614  12.980  19.010  0.00  0.00    +0.000 C 
ATOM     18  C   UNL     1      -5.658  13.551  19.934  0.00  0.00    +0.000 C 
ATOM     19  C   UNL     1      -5.191  13.731  21.187  0.00  0.00    +0.000 C 
ENDROOT
BRANCH  19  20
ATOM     20  N   UNL     1      -5.933  14.092  22.315  0.00  0.00    +0.000 N 
ATOM     21  C   UNL     1      -6.751  13.272  23.068  0.00  0.00    +0.000 A 
ATOM     22  N   UNL     1      -7.330  13.932  24.042  0.00  0.00    +0.000 NA
ATOM     23  C   UNL     1      -6.837  15.184  23.878  0.00  0.00    +0.000 A 
ATOM     24  N   UNL     1      -5.968  15.331  22.880  0.00  0.00    +0.000 NA
ENDBRANCH  19  20
BRANCH  18  25
ATOM     25  C   UNL     1      -7.020  13.877  19.475  0.00  0.00    +0.000 C 
ATOM     26  O   UNL     1      -7.374  13.709  18.315  0.00  0.00    +0.000 OA
ENDBRANCH  18  25
BRANCH  11  27
ATOM     27  O   UNL     1       2.681   7.460  19.920  0.00  0.00    +0.000 OA
BRANCH  27  28
ATOM     28  C   UNL     1       2.722   6.544  18.900  0.00  0.00    +0.000 C 
ATOM     29  O   UNL     1       3.230   6.731  17.814  0.00  0.00    +0.000 OA
BRANCH  28  30
ATOM     30  C   UNL     1       2.115   5.219  19.276  0.00  0.00    +0.000 A 
ATOM     31  C   UNL     1       1.688   4.370  18.233  0.00  0.00    +0.000 A 
ATOM     32  C   UNL     1       1.153   3.101  18.506  0.00  0.00    +0.000 A 
ATOM     33  C   UNL     1       1.061   2.655  19.817  0.00  0.00    +0.000 A 
ATOM     34  C   UNL     1       1.462   3.491  20.865  0.00  0.00    +0.000 A 
ATOM     35  C   UNL     1       1.965   4.774  20.597  0.00  0.00    +0.000 A 
ENDBRANCH  28  30
ENDBRANCH  27  28
ENDBRANCH  11  27
TORSDOF 5
ENDMDL
MODEL 3
REMARK VINA RESULT:      -8.0      3.012      4.152
REMARK  Name = 
REMARK  7 active torsions:
REMARK  status: ('A' for Active; 'I' for Inactive)
REMARK    1  A    between atoms: C_1  and  C_2
REMARK    2  A    between atoms: C_11  and  O_12
REMARK    3  A    between atoms: O_12  and  C_13
REMARK    4  A    between atoms: C_13  and  C_15
REMARK    5  A    between atoms: C_23  and  C_24
REMARK    6  A    between atoms: C_27  and  C_28
REMARK    7  A    between atoms: C_30  and  N_31
REMARK                            x       y       z     vdW  Elec       q    Type
REMARK                         _______ _______ _______ _____ _____    ______ ____
ROOT
ATOM      1  C   UNL     1      -2.796  14.831  21.090  0.00  0.00    +0.000 C 
ATOM      2  C   UNL     1      -3.678  13.587  21.336  0.00  0.00    +0.000 C 
ATOM      3  C   UNL     1      -3.213  12.806  22.577  0.00  0.00    +0.000 C 
ATOM      4  C   UNL     1      -1.814  12.199  22.374  0.00  0.00    +0.000 C 
ATOM      5  C   UNL     1      -1.668  11.355  21.080  0.00  0.00    +0.000 C 
ATOM      6  C   UNL     1      -2.258  12.067  19.822  0.00  0.00    +0.000 C 
ATOM      7  C   UNL     1      -2.282  11.100  18.627  0.00  0.00    +0.000 C 
ATOM      8  C   UNL     1      -1.048  10.256  18.510  0.00  0.00    +0.000 C 
ATOM      9  C   UNL     1      -0.109  10.121  19.467  0.00  0.00    +0.000 C 
ATOM     10  C   UNL     1       1.107   9.242  19.227  0.00  0.00    +0.000 C 
ATOM     11  C   UNL     1       1.320   8.231  20.362  0.00  0.00    +0.000 C 
ATOM     12  C   UNL     1       1.405   8.970  21.707  0.00  0.00    +0.000 C 
ATOM     13  C   UNL     1       0.134   9.789  21.959  0.00  0.00    +0.000 C 
ATOM     14  C   UNL     1      -0.204  10.814  20.831  0.00  0.00    +0.000 C 
ATOM     15  C   UNL     1       0.839  11.955  20.853  0.00  0.00    +0.000 C 
ATOM     16  C   UNL     1      -3.668  12.565  20.166  0.00  0.00    +0.000 C 
ATOM     17  C   UNL     1      -4.567  13.191  19.099  0.00  0.00    +0.000 C 
ATOM     18  C   UNL     1      -5.603  13.806  20.004  0.00  0.00    +0.000 C 
ATOM     19  C   UNL     1      -5.143  13.993  21.258  0.00  0.00    +0.000 C 
ENDROOT
BRANCH  19  20
ATOM     20  N   UNL     1      -5.885  14.392  22.373  0.00  0.00    +0.000 N 
ATOM     21  C   UNL     1      -5.865  15.631  22.984  0.00  0.00    +0.000 A 
ATOM     22  N   UNL     1      -6.656  15.666  24.029  0.00  0.00    +0.000 NA
ATOM     23  C   UNL     1      -7.176  14.415  24.043  0.00  0.00    +0.000 A 
ATOM     24  N   UNL     1      -6.777  13.618  23.053  0.00  0.00    +0.000 NA
ENDBRANCH  19  20
BRANCH  18  25
ATOM     25  C   UNL     1      -6.951  14.164  19.526  0.00  0.00    +0.000 C 
ATOM     26  O   UNL     1      -7.916  13.426  19.684  0.00  0.00    +0.000 OA
ENDBRANCH  18  25
BRANCH  11  27
ATOM     27  O   UNL     1       2.556   7.480  20.168  0.00  0.00    +0.000 OA
BRANCH  27  28
ATOM     28  C   UNL     1       2.662   6.713  19.036  0.00  0.00    +0.000 C 
ATOM     29  O   UNL     1       3.194   7.062  18.003  0.00  0.00    +0.000 OA
BRANCH  28  30
ATOM     30  C   UNL     1       2.093   5.329  19.209  0.00  0.00    +0.000 A 
ATOM     31  C   UNL     1       1.765   4.909  20.515  0.00  0.00    +0.000 A 
ATOM     32  C   UNL     1       1.191   3.650  20.747  0.00  0.00    +0.000 A 
ATOM     33  C   UNL     1       0.913   2.807  19.680  0.00  0.00    +0.000 A 
ATOM     34  C   UNL     1       1.248   3.199  18.379  0.00  0.00    +0.000 A 
ATOM     35  C   UNL     1       1.856   4.444  18.147  0.00  0.00    +0.000 A 
ENDBRANCH  28  30
ENDBRANCH  27  28
ENDBRANCH  11  27
TORSDOF 5
ENDMDL
MODEL 4
REMARK VINA RESULT:      -7.9      0.588      1.004
REMARK  Name = 
REMARK  7 active torsions:
REMARK  status: ('A' for Active; 'I' for Inactive)
REMARK    1  A    between atoms: C_1  and  C_2
REMARK    2  A    between atoms: C_11  and  O_12
REMARK    3  A    between atoms: O_12  and  C_13
REMARK    4  A    between atoms: C_13  and  C_15
REMARK    5  A    between atoms: C_23  and  C_24
REMARK    6  A    between atoms: C_27  and  C_28
REMARK    7  A    between atoms: C_30  and  N_31
REMARK                            x       y       z     vdW  Elec       q    Type
REMARK                         _______ _______ _______ _____ _____    ______ ____
ROOT
ATOM      1  C   UNL     1      -2.871  13.184  20.612  0.00  0.00    +0.000 C 
ATOM      2  C   UNL     1      -1.483  13.611  21.138  0.00  0.00    +0.000 C 
ATOM      3  C   UNL     1      -0.496  13.851  19.983  0.00  0.00    +0.000 C 
ATOM      4  C   UNL     1      -0.188  12.551  19.222  0.00  0.00    +0.000 C 
ATOM      5  C   UNL     1       0.266  11.374  20.127  0.00  0.00    +0.000 C 
ATOM      6  C   UNL     1      -0.641  11.192  21.384  0.00  0.00    +0.000 C 
ATOM      7  C   UNL     1      -0.019  10.165  22.344  0.00  0.00    +0.000 C 
ATOM      8  C   UNL     1       0.564   8.970  21.651  0.00  0.00    +0.000 C 
ATOM      9  C   UNL     1       0.788   8.876  20.326  0.00  0.00    +0.000 C 
ATOM     10  C   UNL     1       1.376   7.604  19.738  0.00  0.00    +0.000 C 
ATOM     11  C   UNL     1       2.596   7.889  18.851  0.00  0.00    +0.000 C 
ATOM     12  C   UNL     1       2.219   8.903  17.759  0.00  0.00    +0.000 C 
ATOM     13  C   UNL     1       1.701  10.204  18.382  0.00  0.00    +0.000 C 
ATOM     14  C   UNL     1       0.489  10.017  19.347  0.00  0.00    +0.000 C 
ATOM     15  C   UNL     1      -0.758   9.617  18.526  0.00  0.00    +0.000 C 
ATOM     16  C   UNL     1      -0.808  12.560  22.061  0.00  0.00    +0.000 C 
ATOM     17  C   UNL     1      -1.535  12.696  23.399  0.00  0.00    +0.000 C 
ATOM     18  C   UNL     1      -1.730  14.191  23.404  0.00  0.00    +0.000 C 
ATOM     19  C   UNL     1      -1.661  14.721  22.165  0.00  0.00    +0.000 C 
ENDROOT
BRANCH  19  20
ATOM     20  N   UNL     1      -1.642  16.078  21.834  0.00  0.00    +0.000 N 
ATOM     21  C   UNL     1      -2.694  16.829  21.346  0.00  0.00    +0.000 A 
ATOM     22  N   UNL     1      -2.333  18.066  21.106  0.00  0.00    +0.000 NA
ATOM     23  C   UNL     1      -1.027  18.064  21.469  0.00  0.00    +0.000 A 
ATOM     24  N   UNL     1      -0.568  16.909  21.947  0.00  0.00    +0.000 NA
ENDBRANCH  19  20
BRANCH  18  25
ATOM     25  C   UNL     1      -1.981  14.946  24.644  0.00  0.00    +0.000 C 
ATOM     26  O   UNL     1      -2.944  14.713  25.366  0.00  0.00    +0.000 OA
ENDBRANCH  18  25
BRANCH  11  27
ATOM     27  O   UNL     1       3.069   6.668  18.206  0.00  0.00    +0.000 OA
BRANCH  27  28
ATOM     28  C   UNL     1       3.617   5.698  19.006  0.00  0.00    +0.000 C 
ATOM     29  O   UNL     1       4.754   5.701  19.427  0.00  0.00    +0.000 OA
BRANCH  28  30
ATOM     30  C   UNL     1       2.634   4.620  19.379  0.00  0.00    +0.000 A 
ATOM     31  C   UNL     1       2.008   3.908  18.335  0.00  0.00    +0.000 A 
ATOM     32  C   UNL     1       1.115   2.860  18.607  0.00  0.00    +0.000 A 
ATOM     33  C   UNL     1       0.855   2.494  19.921  0.00  0.00    +0.000 A 
ATOM     34  C   UNL     1       1.453   3.201  20.970  0.00  0.00    +0.000 A 
ATOM     35  C   UNL     1       2.320   4.273  20.701  0.00  0.00    +0.000 A 
ENDBRANCH  28  30
ENDBRANCH  27  28
ENDBRANCH  11  27
TORSDOF 5
ENDMDL
MODEL 5
REMARK VINA RESULT:      -7.8      3.204      4.584
REMARK  Name = 
REMARK  7 active torsions:
REMARK  status: ('A' for Active; 'I' for Inactive)
REMARK    1  A    between atoms: C_1  and  C_2
REMARK    2  A    between atoms: C_11  and  O_12
REMARK    3  A    between atoms: O_12  and  C_13
REMARK    4  A    between atoms: C_13  and  C_15
REMARK    5  A    between atoms: C_23  and  C_24
REMARK    6  A    between atoms: C_27  and  C_28
REMARK    7  A    between atoms: C_30  and  N_31
REMARK                            x       y       z     vdW  Elec       q    Type
REMARK                         _______ _______ _______ _____ _____    ______ ____
ROOT
ATOM      1  C   UNL     1      -2.805  14.583  21.195  0.00  0.00    +0.000 C 
ATOM      2  C   UNL     1      -3.660  13.304  21.327  0.00  0.00    +0.000 C 
ATOM      3  C   UNL     1      -3.187  12.432  22.503  0.00  0.00    +0.000 C 
ATOM      4  C   UNL     1      -1.774  11.876  22.263  0.00  0.00    +0.000 C 
ATOM      5  C   UNL     1      -1.598  11.146  20.905  0.00  0.00    +0.000 C 
ATOM      6  C   UNL     1      -2.194  11.947  19.705  0.00  0.00    +0.000 C 
ATOM      7  C   UNL     1      -2.187  11.084  18.434  0.00  0.00    +0.000 C 
ATOM      8  C   UNL     1      -0.934  10.280  18.259  0.00  0.00    +0.000 C 
ATOM      9  C   UNL     1       0.001  10.086  19.210  0.00  0.00    +0.000 C 
ATOM     10  C   UNL     1       1.239   9.257  18.909  0.00  0.00    +0.000 C 
ATOM     11  C   UNL     1       1.466   8.159  19.958  0.00  0.00    +0.000 C 
ATOM     12  C   UNL     1       1.524   8.785  21.361  0.00  0.00    +0.000 C 
ATOM     13  C   UNL     1       0.232   9.552  21.668  0.00  0.00    +0.000 C 
ATOM     14  C   UNL     1      -0.120  10.660  20.626  0.00  0.00    +0.000 C 
ATOM     15  C   UNL     1       0.897  11.818  20.753  0.00  0.00    +0.000 C 
ATOM     16  C   UNL     1      -3.618  12.385  20.076  0.00  0.00    +0.000 C 
ATOM     17  C   UNL     1      -4.522  13.077  19.056  0.00  0.00    +0.000 C 
ATOM     18  C   UNL     1      -5.580  13.592  20.000  0.00  0.00    +0.000 C 
ATOM     19  C   UNL     1      -5.134  13.682  21.270  0.00  0.00    +0.000 C 
ENDROOT
BRANCH  19  20
ATOM     20  N   UNL     1      -5.893  13.971  22.407  0.00  0.00    +0.000 N 
ATOM     21  C   UNL     1      -6.691  13.095  23.117  0.00  0.00    +0.000 A 
ATOM     22  N   UNL     1      -7.295  13.693  24.115  0.00  0.00    +0.000 NA
ATOM     23  C   UNL     1      -6.841  14.966  24.009  0.00  0.00    +0.000 A 
ATOM     24  N   UNL     1      -5.970  15.183  23.024  0.00  0.00    +0.000 NA
ENDBRANCH  19  20
BRANCH  18  25
ATOM     25  C   UNL     1      -6.931  13.959  19.540  0.00  0.00    +0.000 C 
ATOM     26  O   UNL     1      -7.676  13.152  18.997  0.00  0.00    +0.000 OA
ENDBRANCH  18  25
BRANCH  11  27
ATOM     27  O   UNL     1       2.720   7.455  19.713  0.00  0.00    +0.000 OA
BRANCH  27  28
ATOM     28  C   UNL     1       2.650   6.121  19.404  0.00  0.00    +0.000 C 
ATOM     29  O   UNL     1       1.963   5.306  19.984  0.00  0.00    +0.000 OA
BRANCH  28  30
ATOM     30  C   UNL     1       3.481   5.750  18.205  0.00  0.00    +0.000 A 
ATOM     31  C   UNL     1       4.127   6.789  17.503  0.00  0.00    +0.000 A 
ATOM     32  C   UNL     1       4.954   6.515  16.403  0.00  0.00    +0.000 A 
ATOM     33  C   UNL     1       5.167   5.202  16.007  0.00  0.00    +0.000 A 
ATOM     34  C   UNL     1       4.521   4.159  16.679  0.00  0.00    +0.000 A 
ATOM     35  C   UNL     1       3.665   4.433  17.759  0.00  0.00    +0.000 A 
ENDBRANCH  28  30
ENDBRANCH  27  28
ENDBRANCH  11  27
TORSDOF 5
ENDMDL
MODEL 6
REMARK VINA RESULT:      -7.8      2.325      3.370
REMARK  Name = 
REMARK  7 active torsions:
REMARK  status: ('A' for Active; 'I' for Inactive)
REMARK    1  A    between atoms: C_1  and  C_2
REMARK    2  A    between atoms: C_11  and  O_12
REMARK    3  A    between atoms: O_12  and  C_13
REMARK    4  A    between atoms: C_13  and  C_15
REMARK    5  A    between atoms: C_23  and  C_24
REMARK    6  A    between atoms: C_27  and  C_28
REMARK    7  A    between atoms: C_30  and  N_31
REMARK                            x       y       z     vdW  Elec       q    Type
REMARK                         _______ _______ _______ _____ _____    ______ ____
ROOT
ATOM      1  C   UNL     1      -0.560  12.926  18.559  0.00  0.00    +0.000 C 
ATOM      2  C   UNL     1       0.803  13.089  19.266  0.00  0.00    +0.000 C 
ATOM      3  C   UNL     1       1.970  12.786  18.311  0.00  0.00    +0.000 C 
ATOM      4  C   UNL     1       1.982  11.310  17.882  0.00  0.00    +0.000 C 
ATOM      5  C   UNL     1       1.934  10.303  19.061  0.00  0.00    +0.000 C 
ATOM      6  C   UNL     1       0.846  10.663  20.122  0.00  0.00    +0.000 C 
ATOM      7  C   UNL     1       0.993   9.765  21.360  0.00  0.00    +0.000 C 
ATOM      8  C   UNL     1       1.286   8.332  21.033  0.00  0.00    +0.000 C 
ATOM      9  C   UNL     1       1.657   7.874  19.822  0.00  0.00    +0.000 C 
ATOM     10  C   UNL     1       1.917   6.391  19.610  0.00  0.00    +0.000 C 
ATOM     11  C   UNL     1       3.279   6.133  18.951  0.00  0.00    +0.000 C 
ATOM     12  C   UNL     1       3.379   6.925  17.637  0.00  0.00    +0.000 C 
ATOM     13  C   UNL     1       3.188   8.425  17.890  0.00  0.00    +0.000 C 
ATOM     14  C   UNL     1       1.852   8.791  18.609  0.00  0.00    +0.000 C 
ATOM     15  C   UNL     1       0.671   8.546  17.641  0.00  0.00    +0.000 C 
ATOM     16  C   UNL     1       0.999  12.147  20.485  0.00  0.00    +0.000 C 
ATOM     17  C   UNL     1       0.163  12.777  21.600  0.00  0.00    +0.000 C 
ATOM     18  C   UNL     1       0.423  14.229  21.288  0.00  0.00    +0.000 C 
ATOM     19  C   UNL     1       0.820  14.417  20.013  0.00  0.00    +0.000 C 
ENDROOT
BRANCH  19  20
ATOM     20  N   UNL     1       1.288  15.605  19.446  0.00  0.00    +0.000 N 
ATOM     21  C   UNL     1       2.540  16.166  19.607  0.00  0.00    +0.000 A 
ATOM     22  N   UNL     1       2.645  17.304  18.965  0.00  0.00    +0.000 NA
ATOM     23  C   UNL     1       1.422  17.429  18.393  0.00  0.00    +0.000 A 
ATOM     24  N   UNL     1       0.579  16.422  18.617  0.00  0.00    +0.000 NA
ENDBRANCH  19  20
BRANCH  18  25
ATOM     25  C   UNL     1       0.235  15.293  22.290  0.00  0.00    +0.000 C 
ATOM     26  O   UNL     1      -0.164  15.058  23.424  0.00  0.00    +0.000 OA
ENDBRANCH  18  25
BRANCH  11  27
ATOM     27  O   UNL     1       3.454   4.716  18.653  0.00  0.00    +0.000 OA
BRANCH  27  28
ATOM     28  C   UNL     1       4.723   4.203  18.730  0.00  0.00    +0.000 C 
ATOM     29  O   UNL     1       5.194   3.648  19.702  0.00  0.00    +0.000 OA
BRANCH  28  30
ATOM     30  C   UNL     1       5.492   4.337  17.443  0.00  0.00    +0.000 A 
ATOM     31  C   UNL     1       4.837   3.989  16.244  0.00  0.00    +0.000 A 
ATOM     32  C   UNL     1       5.476   4.130  15.002  0.00  0.00    +0.000 A 
ATOM     33  C   UNL     1       6.763   4.644  14.939  0.00  0.00    +0.000 A 
ATOM     34  C   UNL     1       7.436   4.978  16.120  0.00  0.00    +0.000 A 
ATOM     35  C   UNL     1       6.812   4.804  17.366  0.00  0.00    +0.000 A 
ENDBRANCH  28  30
ENDBRANCH  27  28
ENDBRANCH  11  27
TORSDOF 5
ENDMDL
MODEL 7
REMARK VINA RESULT:      -7.8      2.267      3.164
REMARK  Name = 
REMARK  7 active torsions:
REMARK  status: ('A' for Active; 'I' for Inactive)
REMARK    1  A    between atoms: C_1  and  C_2
REMARK    2  A    between atoms: C_11  and  O_12
REMARK    3  A    between atoms: O_12  and  C_13
REMARK    4  A    between atoms: C_13  and  C_15
REMARK    5  A    between atoms: C_23  and  C_24
REMARK    6  A    between atoms: C_27  and  C_28
REMARK    7  A    between atoms: C_30  and  N_31
REMARK                            x       y       z     vdW  Elec       q    Type
REMARK                         _______ _______ _______ _____ _____    ______ ____
ROOT
ATOM      1  C   UNL     1      -0.993  12.442  18.834  0.00  0.00    +0.000 C 
ATOM      2  C   UNL     1       0.343  12.717  19.558  0.00  0.00    +0.000 C 
ATOM      3  C   UNL     1       1.538  12.587  18.599  0.00  0.00    +0.000 C 
ATOM      4  C   UNL     1       1.709  11.142  18.100  0.00  0.00    +0.000 C 
ATOM      5  C   UNL     1       1.767  10.080  19.230  0.00  0.00    +0.000 C 
ATOM      6  C   UNL     1       0.644  10.271  20.298  0.00  0.00    +0.000 C 
ATOM      7  C   UNL     1       0.884   9.335  21.494  0.00  0.00    +0.000 C 
ATOM      8  C   UNL     1       1.330   7.959  21.102  0.00  0.00    +0.000 C 
ATOM      9  C   UNL     1       1.751   7.602  19.872  0.00  0.00    +0.000 C 
ATOM     10  C   UNL     1       2.169   6.168  19.593  0.00  0.00    +0.000 C 
ATOM     11  C   UNL     1       3.553   6.089  18.932  0.00  0.00    +0.000 C 
ATOM     12  C   UNL     1       3.570   6.949  17.658  0.00  0.00    +0.000 C 
ATOM     13  C   UNL     1       3.218   8.406  17.980  0.00  0.00    +0.000 C 
ATOM     14  C   UNL     1       1.849   8.592  18.705  0.00  0.00    +0.000 C 
ATOM     15  C   UNL     1       0.704   8.269  17.718  0.00  0.00    +0.000 C 
ATOM     16  C   UNL     1       0.636  11.743  20.732  0.00  0.00    +0.000 C 
ATOM     17  C   UNL     1      -0.265  12.226  21.870  0.00  0.00    +0.000 C 
ATOM     18  C   UNL     1      -0.163  13.710  21.629  0.00  0.00    +0.000 C 
ATOM     19  C   UNL     1       0.216  14.001  20.367  0.00  0.00    +0.000 C 
ENDROOT
BRANCH  19  20
ATOM     20  N   UNL     1       0.554  15.258  19.861  0.00  0.00    +0.000 N 
ATOM     21  C   UNL     1      -0.229  16.071  19.064  0.00  0.00    +0.000 A 
ATOM     22  N   UNL     1       0.400  17.173  18.735  0.00  0.00    +0.000 NA
ATOM     23  C   UNL     1       1.594  17.026  19.361  0.00  0.00    +0.000 A 
ATOM     24  N   UNL     1       1.729  15.913  20.080  0.00  0.00    +0.000 NA
ENDBRANCH  19  20
BRANCH  18  25
ATOM     25  C   UNL     1      -0.467  14.699  22.679  0.00  0.00    +0.000 C 
ATOM     26  O   UNL     1      -0.771  14.367  23.818  0.00  0.00    +0.000 OA
ENDBRANCH  18  25
BRANCH  11  27
ATOM     27  O   UNL     1       3.880   4.715  18.568  0.00  0.00    +0.000 OA
BRANCH  27  28
ATOM     28  C   UNL     1       5.206   4.392  18.431  0.00  0.00    +0.000 C 
ATOM     29  O   UNL     1       5.932   4.027  19.332  0.00  0.00    +0.000 OA
BRANCH  28  30
ATOM     30  C   UNL     1       5.687   4.476  17.007  0.00  0.00    +0.000 A 
ATOM     31  C   UNL     1       6.995   4.953  16.779  0.00  0.00    +0.000 A 
ATOM     32  C   UNL     1       7.527   5.018  15.482  0.00  0.00    +0.000 A 
ATOM     33  C   UNL     1       6.772   4.584  14.401  0.00  0.00    +0.000 A 
ATOM     34  C   UNL     1       5.466   4.125  14.606  0.00  0.00    +0.000 A 
ATOM     35  C   UNL     1       4.918   4.093  15.899  0.00  0.00    +0.000 A 
ENDBRANCH  28  30
ENDBRANCH  27  28
ENDBRANCH  11  27
TORSDOF 5
ENDMDL
MODEL 8
REMARK VINA RESULT:      -7.7      2.928      4.311
REMARK  Name = 
REMARK  7 active torsions:
REMARK  status: ('A' for Active; 'I' for Inactive)
REMARK    1  A    between atoms: C_1  and  C_2
REMARK    2  A    between atoms: C_11  and  O_12
REMARK    3  A    between atoms: O_12  and  C_13
REMARK    4  A    between atoms: C_13  and  C_15
REMARK    5  A    between atoms: C_23  and  C_24
REMARK    6  A    between atoms: C_27  and  C_28
REMARK    7  A    between atoms: C_30  and  N_31
REMARK                            x       y       z     vdW  Elec       q    Type
REMARK                         _______ _______ _______ _____ _____    ______ ____
ROOT
ATOM      1  C   UNL     1      -1.157  10.291  18.910  0.00  0.00    +0.000 C 
ATOM      2  C   UNL     1       0.050  10.771  19.747  0.00  0.00    +0.000 C 
ATOM      3  C   UNL     1       1.250  11.120  18.850  0.00  0.00    +0.000 C 
ATOM      4  C   UNL     1       1.802   9.876  18.133  0.00  0.00    +0.000 C 
ATOM      5  C   UNL     1       2.121   8.686  19.077  0.00  0.00    +0.000 C 
ATOM      6  C   UNL     1       0.973   8.395  20.095  0.00  0.00    +0.000 C 
ATOM      7  C   UNL     1       1.434   7.361  21.134  0.00  0.00    +0.000 C 
ATOM      8  C   UNL     1       2.232   6.234  20.550  0.00  0.00    +0.000 C 
ATOM      9  C   UNL     1       2.749   6.215  19.306  0.00  0.00    +0.000 C 
ATOM     10  C   UNL     1       3.533   5.006  18.822  0.00  0.00    +0.000 C 
ATOM     11  C   UNL     1       4.898   5.400  18.239  0.00  0.00    +0.000 C 
ATOM     12  C   UNL     1       4.705   6.441  17.125  0.00  0.00    +0.000 C 
ATOM     13  C   UNL     1       3.979   7.681  17.659  0.00  0.00    +0.000 C 
ATOM     14  C   UNL     1       2.599   7.382  18.323  0.00  0.00    +0.000 C 
ATOM     15  C   UNL     1       1.593   6.951  17.231  0.00  0.00    +0.000 C 
ATOM     16  C   UNL     1       0.572   9.718  20.761  0.00  0.00    +0.000 C 
ATOM     17  C   UNL     1      -0.439   9.750  21.908  0.00  0.00    +0.000 C 
ATOM     18  C   UNL     1      -0.727  11.229  21.918  0.00  0.00    +0.000 C 
ATOM     19  C   UNL     1      -0.421  11.820  20.744  0.00  0.00    +0.000 C 
ENDROOT
BRANCH  19  20
ATOM     20  N   UNL     1      -0.419  13.190  20.470  0.00  0.00    +0.000 N 
ATOM     21  C   UNL     1       0.621  14.077  20.676  0.00  0.00    +0.000 A 
ATOM     22  N   UNL     1       0.285  15.299  20.344  0.00  0.00    +0.000 NA
ATOM     23  C   UNL     1      -0.992  15.144  19.916  0.00  0.00    +0.000 A 
ATOM     24  N   UNL     1      -1.455  13.895  19.936  0.00  0.00    +0.000 NA
ENDBRANCH  19  20
BRANCH  18  25
ATOM     25  C   UNL     1      -1.295  11.911  23.095  0.00  0.00    +0.000 C 
ATOM     26  O   UNL     1      -2.366  11.578  23.588  0.00  0.00    +0.000 OA
ENDBRANCH  18  25
BRANCH  11  27
ATOM     27  O   UNL     1       5.580   4.240  17.676  0.00  0.00    +0.000 OA
BRANCH  27  28
ATOM     28  C   UNL     1       6.774   4.453  17.037  0.00  0.00    +0.000 C 
ATOM     29  O   UNL     1       7.842   4.612  17.590  0.00  0.00    +0.000 OA
BRANCH  28  30
ATOM     30  C   UNL     1       6.654   4.413  15.537  0.00  0.00    +0.000 A 
ATOM     31  C   UNL     1       7.581   5.161  14.781  0.00  0.00    +0.000 A 
ATOM     32  C   UNL     1       7.558   5.137  13.378  0.00  0.00    +0.000 A 
ATOM     33  C   UNL     1       6.629   4.348  12.713  0.00  0.00    +0.000 A 
ATOM     34  C   UNL     1       5.690   3.614  13.446  0.00  0.00    +0.000 A 
ATOM     35  C   UNL     1       5.688   3.664  14.850  0.00  0.00    +0.000 A 
ENDBRANCH  28  30
ENDBRANCH  27  28
ENDBRANCH  11  27
TORSDOF 5
ENDMDL
MODEL 9
REMARK VINA RESULT:      -7.7      2.791      3.910
REMARK  Name = 
REMARK  7 active torsions:
REMARK  status: ('A' for Active; 'I' for Inactive)
REMARK    1  A    between atoms: C_1  and  C_2
REMARK    2  A    between atoms: C_11  and  O_12
REMARK    3  A    between atoms: O_12  and  C_13
REMARK    4  A    between atoms: C_13  and  C_15
REMARK    5  A    between atoms: C_23  and  C_24
REMARK    6  A    between atoms: C_27  and  C_28
REMARK    7  A    between atoms: C_30  and  N_31
REMARK                            x       y       z     vdW  Elec       q    Type
REMARK                         _______ _______ _______ _____ _____    ______ ____
ROOT
ATOM      1  C   UNL     1      -2.099  13.837  20.527  0.00  0.00    +0.000 C 
ATOM      2  C   UNL     1      -2.918  12.545  20.736  0.00  0.00    +0.000 C 
ATOM      3  C   UNL     1      -2.324  11.681  21.862  0.00  0.00    +0.000 C 
ATOM      4  C   UNL     1      -0.931  11.147  21.490  0.00  0.00    +0.000 C 
ATOM      5  C   UNL     1      -0.871  10.420  20.120  0.00  0.00    +0.000 C 
ATOM      6  C   UNL     1      -1.588  11.212  18.982  0.00  0.00    +0.000 C 
ATOM      7  C   UNL     1      -1.686  10.349  17.714  0.00  0.00    +0.000 C 
ATOM      8  C   UNL     1      -0.442   9.565  17.423  0.00  0.00    +0.000 C 
ATOM      9  C   UNL     1       0.580   9.386  18.282  0.00  0.00    +0.000 C 
ATOM     10  C   UNL     1       1.797   8.576  17.866  0.00  0.00    +0.000 C 
ATOM     11  C   UNL     1       2.138   7.482  18.888  0.00  0.00    +0.000 C 
ATOM     12  C   UNL     1       2.316   8.108  20.280  0.00  0.00    +0.000 C 
ATOM     13  C   UNL     1       1.047   8.855  20.707  0.00  0.00    +0.000 C 
ATOM     14  C   UNL     1       0.582   9.957  19.705  0.00  0.00    +0.000 C 
ATOM     15  C   UNL     1       1.588  11.131  19.739  0.00  0.00    +0.000 C 
ATOM     16  C   UNL     1      -2.978  11.627  19.485  0.00  0.00    +0.000 C 
ATOM     17  C   UNL     1      -3.984  12.305  18.555  0.00  0.00    +0.000 C 
ATOM     18  C   UNL     1      -4.957  12.803  19.593  0.00  0.00    +0.000 C 
ATOM     19  C   UNL     1      -4.397  12.901  20.816  0.00  0.00    +0.000 C 
ENDROOT
BRANCH  19  20
ATOM     20  N   UNL     1      -5.051  13.177  22.019  0.00  0.00    +0.000 N 
ATOM     21  C   UNL     1      -5.109  14.392  22.674  0.00  0.00    +0.000 A 
ATOM     22  N   UNL     1      -5.777  14.303  23.798  0.00  0.00    +0.000 NA
ATOM     23  C   UNL     1      -6.142  12.997  23.817  0.00  0.00    +0.000 A 
ATOM     24  N   UNL     1      -5.765  12.282  22.759  0.00  0.00    +0.000 NA
ENDBRANCH  19  20
BRANCH  18  25
ATOM     25  C   UNL     1      -6.351  13.149  19.262  0.00  0.00    +0.000 C 
ATOM     26  O   UNL     1      -6.662  13.643  18.185  0.00  0.00    +0.000 OA
ENDBRANCH  18  25
BRANCH  11  27
ATOM     27  O   UNL     1       3.375   6.797  18.526  0.00  0.00    +0.000 OA
BRANCH  27  28
ATOM     28  C   UNL     1       3.279   5.502  18.087  0.00  0.00    +0.000 C 
ATOM     29  O   UNL     1       3.753   5.078  17.054  0.00  0.00    +0.000 OA
BRANCH  28  30
ATOM     30  C   UNL     1       2.560   4.604  19.059  0.00  0.00    +0.000 A 
ATOM     31  C   UNL     1       3.095   4.475  20.358  0.00  0.00    +0.000 A 
ATOM     32  C   UNL     1       2.455   3.690  21.330  0.00  0.00    +0.000 A 
ATOM     33  C   UNL     1       1.264   3.046  21.026  0.00  0.00    +0.000 A 
ATOM     34  C   UNL     1       0.728   3.147  19.738  0.00  0.00    +0.000 A 
ATOM     35  C   UNL     1       1.385   3.903  18.753  0.00  0.00    +0.000 A 
ENDBRANCH  28  30
ENDBRANCH  27  28
ENDBRANCH  11  27
TORSDOF 5
ENDMDL
