MODEL 1
REMARK VINA RESULT:      -6.7      0.000      0.000
REMARK  Name = 
REMARK  8 active torsions:
REMARK  status: ('A' for Active; 'I' for Inactive)
REMARK    1  A    between atoms: C_1  and  C_2
REMARK    2  A    between atoms: C_2  and  C_3
REMARK    3  A    between atoms: C_3  and  C_4
REMARK    4  A    between atoms: C_4  and  N_5
REMARK    5  A    between atoms: C_13  and  O_14
REMARK    6  A    between atoms: O_14  and  C_15
REMARK    7  A    between atoms: C_16  and  O_17
REMARK    8  A    between atoms: O_17  and  C_18
REMARK                            x       y       z     vdW  Elec       q    Type
REMARK                         _______ _______ _______ _____ _____    ______ ____
ROOT
ATOM      1  N   UNL     1       6.563   5.706  14.863  0.00  0.00    +0.000 NA
ATOM      2  C   UNL     1       7.405   5.559  16.078  0.00  0.00    +0.000 C 
ATOM      3  C   UNL     1       6.874   6.414  17.245  0.00  0.00    +0.000 C 
ATOM      4  N   UNL     1       5.511   6.071  17.640  0.00  0.00    +0.000 NA
ATOM      5  C   UNL     1       4.700   7.205  18.098  0.00  0.00    +0.000 C 
ATOM      6  C   UNL     1       3.169   7.069  17.951  0.00  0.00    +0.000 C 
ATOM      7  C   UNL     1       2.759   5.625  18.084  0.00  0.00    +0.000 A 
ATOM      8  C   UNL     1       1.773   5.235  19.018  0.00  0.00    +0.000 A 
ATOM      9  C   UNL     1       1.624   3.886  19.369  0.00  0.00    +0.000 A 
ATOM     10  C   UNL     1       2.430   2.929  18.734  0.00  0.00    +0.000 A 
ATOM     11  C   UNL     1       3.317   3.319  17.713  0.00  0.00    +0.000 A 
ATOM     12  C   UNL     1       3.536   4.675  17.399  0.00  0.00    +0.000 A 
ATOM     13  C   UNL     1       4.863   5.095  16.745  0.00  0.00    +0.000 C 
ATOM     14  C   UNL     1       5.106   5.441  15.210  0.00  0.00    +0.000 C 
ENDROOT
BRANCH   9  15
ATOM     15  O   UNL     1       0.817   3.476  20.397  0.00  0.00    +0.000 OA
ATOM     16  C   UNL     1       1.425   3.132  21.632  0.00  0.00    +0.000 C 
ENDBRANCH   9  15
BRANCH  10  17
ATOM     17  O   UNL     1       2.519   1.583  19.012  0.00  0.00    +0.000 OA
ATOM     18  C   UNL     1       3.767   0.927  18.819  0.00  0.00    +0.000 C 
ENDBRANCH  10  17
BRANCH   1  19
ATOM     19  C   UNL     1       7.146   4.864  13.799  0.00  0.00    +0.000 C 
BRANCH  19  20
ATOM     20  C   UNL     1       6.403   3.572  13.420  0.00  0.00    +0.000 C 
BRANCH  20  22
ATOM     21  C   UNL     1       4.587   3.295  11.684  0.00  0.00    +0.000 C 
ATOM     22  C   UNL     1       6.088   3.433  11.927  0.00  0.00    +0.000 C 
ENDBRANCH  20  22
ENDBRANCH  19  20
ENDBRANCH   1  19
TORSDOF 5
ENDMDL
MODEL 2
REMARK VINA RESULT:      -6.6      3.071      4.809
REMARK  Name = 
REMARK  8 active torsions:
REMARK  status: ('A' for Active; 'I' for Inactive)
REMARK    1  A    between atoms: C_1  and  C_2
REMARK    2  A    between atoms: C_2  and  C_3
REMARK    3  A    between atoms: C_3  and  C_4
REMARK    4  A    between atoms: C_4  and  N_5
REMARK    5  A    between atoms: C_13  and  O_14
REMARK    6  A    between atoms: O_14  and  C_15
REMARK    7  A    between atoms: C_16  and  O_17
REMARK    8  A    between atoms: O_17  and  C_18
REMARK                            x       y       z     vdW  Elec       q    Type
REMARK                         _______ _______ _______ _____ _____    ______ ____
ROOT
ATOM      1  N   UNL     1       4.944   3.992  17.035  0.00  0.00    +0.000 NA
ATOM      2  C   UNL     1       3.645   3.697  16.376  0.00  0.00    +0.000 C 
ATOM      3  C   UNL     1       2.525   3.466  17.410  0.00  0.00    +0.000 C 
ATOM      4  N   UNL     1       2.298   4.613  18.284  0.00  0.00    +0.000 NA
ATOM      5  C   UNL     1       1.906   4.271  19.655  0.00  0.00    +0.000 C 
ATOM      6  C   UNL     1       2.231   5.311  20.750  0.00  0.00    +0.000 C 
ATOM      7  C   UNL     1       2.184   6.703  20.177  0.00  0.00    +0.000 A 
ATOM      8  C   UNL     1       1.380   7.703  20.768  0.00  0.00    +0.000 A 
ATOM      9  C   UNL     1       1.084   8.881  20.067  0.00  0.00    +0.000 A 
ATOM     10  C   UNL     1       1.647   9.071  18.796  0.00  0.00    +0.000 A 
ATOM     11  C   UNL     1       2.549   8.123  18.275  0.00  0.00    +0.000 A 
ATOM     12  C   UNL     1       2.800   6.902  18.929  0.00  0.00    +0.000 A 
ATOM     13  C   UNL     1       3.286   5.693  18.113  0.00  0.00    +0.000 C 
ATOM     14  C   UNL     1       4.774   5.130  18.027  0.00  0.00    +0.000 C 
ENDROOT
BRANCH   9  15
ATOM     15  O   UNL     1       0.166   9.795  20.513  0.00  0.00    +0.000 OA
ATOM     16  C   UNL     1      -0.299   9.685  21.849  0.00  0.00    +0.000 C 
ENDBRANCH   9  15
BRANCH  10  17
ATOM     17  O   UNL     1       1.397  10.092  17.906  0.00  0.00    +0.000 OA
ATOM     18  C   UNL     1       2.118  11.310  18.044  0.00  0.00    +0.000 C 
ENDBRANCH  10  17
BRANCH   1  19
ATOM     19  C   UNL     1       5.957   4.190  15.978  0.00  0.00    +0.000 C 
BRANCH  19  20
ATOM     20  C   UNL     1       5.457   4.478  14.553  0.00  0.00    +0.000 C 
BRANCH  20  22
ATOM     21  C   UNL     1       5.480   3.371  12.281  0.00  0.00    +0.000 C 
ATOM     22  C   UNL     1       6.329   3.886  13.440  0.00  0.00    +0.000 C 
ENDBRANCH  20  22
ENDBRANCH  19  20
ENDBRANCH   1  19
TORSDOF 5
ENDMDL
MODEL 3
REMARK VINA RESULT:      -6.5      3.330      5.511
REMARK  Name = 
REMARK  8 active torsions:
REMARK  status: ('A' for Active; 'I' for Inactive)
REMARK    1  A    between atoms: C_1  and  C_2
REMARK    2  A    between atoms: C_2  and  C_3
REMARK    3  A    between atoms: C_3  and  C_4
REMARK    4  A    between atoms: C_4  and  N_5
REMARK    5  A    between atoms: C_13  and  O_14
REMARK    6  A    between atoms: O_14  and  C_15
REMARK    7  A    between atoms: C_16  and  O_17
REMARK    8  A    between atoms: O_17  and  C_18
REMARK                            x       y       z     vdW  Elec       q    Type
REMARK                         _______ _______ _______ _____ _____    ______ ____
ROOT
ATOM      1  N   UNL     1       4.786   3.983  17.601  0.00  0.00    +0.000 NA
ATOM      2  C   UNL     1       3.548   3.714  16.824  0.00  0.00    +0.000 C 
ATOM      3  C   UNL     1       2.328   3.529  17.748  0.00  0.00    +0.000 C 
ATOM      4  N   UNL     1       2.050   4.695  18.582  0.00  0.00    +0.000 NA
ATOM      5  C   UNL     1       1.519   4.385  19.913  0.00  0.00    +0.000 C 
ATOM      6  C   UNL     1       1.767   5.431  21.022  0.00  0.00    +0.000 C 
ATOM      7  C   UNL     1       1.815   6.815  20.429  0.00  0.00    +0.000 A 
ATOM      8  C   UNL     1       0.987   7.846  20.928  0.00  0.00    +0.000 A 
ATOM      9  C   UNL     1       0.793   9.021  20.187  0.00  0.00    +0.000 A 
ATOM     10  C   UNL     1       1.481   9.176  18.974  0.00  0.00    +0.000 A 
ATOM     11  C   UNL     1       2.402   8.197  18.554  0.00  0.00    +0.000 A 
ATOM     12  C   UNL     1       2.553   6.979  19.244  0.00  0.00    +0.000 A 
ATOM     13  C   UNL     1       3.081   5.745  18.493  0.00  0.00    +0.000 C 
ATOM     14  C   UNL     1       4.554   5.141  18.558  0.00  0.00    +0.000 C 
ENDROOT
BRANCH   9  15
ATOM     15  O   UNL     1      -0.137   9.966  20.531  0.00  0.00    +0.000 OA
ATOM     16  C   UNL     1      -0.197  10.389  21.884  0.00  0.00    +0.000 C 
ENDBRANCH   9  15
BRANCH  10  17
ATOM     17  O   UNL     1       1.346  10.190  18.051  0.00  0.00    +0.000 OA
ATOM     18  C   UNL     1       2.065  11.400  18.257  0.00  0.00    +0.000 C 
ENDBRANCH  10  17
BRANCH   1  19
ATOM     19  C   UNL     1       5.900   4.138  16.644  0.00  0.00    +0.000 C 
BRANCH  19  20
ATOM     20  C   UNL     1       7.207   4.760  17.162  0.00  0.00    +0.000 C 
BRANCH  20  22
ATOM     21  C   UNL     1       7.848   6.947  18.256  0.00  0.00    +0.000 C 
ATOM     22  C   UNL     1       7.297   6.282  16.998  0.00  0.00    +0.000 C 
ENDBRANCH  20  22
ENDBRANCH  19  20
ENDBRANCH   1  19
TORSDOF 5
ENDMDL
MODEL 4
REMARK VINA RESULT:      -6.3      3.303      7.243
REMARK  Name = 
REMARK  8 active torsions:
REMARK  status: ('A' for Active; 'I' for Inactive)
REMARK    1  A    between atoms: C_1  and  C_2
REMARK    2  A    between atoms: C_2  and  C_3
REMARK    3  A    between atoms: C_3  and  C_4
REMARK    4  A    between atoms: C_4  and  N_5
REMARK    5  A    between atoms: C_13  and  O_14
REMARK    6  A    between atoms: O_14  and  C_15
REMARK    7  A    between atoms: C_16  and  O_17
REMARK    8  A    between atoms: O_17  and  C_18
REMARK                            x       y       z     vdW  Elec       q    Type
REMARK                         _______ _______ _______ _____ _____    ______ ____
ROOT
ATOM      1  N   UNL     1       1.649   5.933  20.394  0.00  0.00    +0.000 NA
ATOM      2  C   UNL     1       2.589   5.101  21.188  0.00  0.00    +0.000 C 
ATOM      3  C   UNL     1       2.926   3.781  20.467  0.00  0.00    +0.000 C 
ATOM      4  N   UNL     1       3.547   3.977  19.160  0.00  0.00    +0.000 NA
ATOM      5  C   UNL     1       3.192   2.970  18.155  0.00  0.00    +0.000 C 
ATOM      6  C   UNL     1       3.283   3.402  16.675  0.00  0.00    +0.000 C 
ATOM      7  C   UNL     1       4.372   4.429  16.499  0.00  0.00    +0.000 A 
ATOM      8  C   UNL     1       5.396   4.243  15.544  0.00  0.00    +0.000 A 
ATOM      9  C   UNL     1       6.565   5.016  15.599  0.00  0.00    +0.000 A 
ATOM     10  C   UNL     1       6.672   6.013  16.581  0.00  0.00    +0.000 A 
ATOM     11  C   UNL     1       5.588   6.272  17.443  0.00  0.00    +0.000 A 
ATOM     12  C   UNL     1       4.438   5.460  17.453  0.00  0.00    +0.000 A 
ATOM     13  C   UNL     1       3.577   5.385  18.724  0.00  0.00    +0.000 C 
ATOM     14  C   UNL     1       2.187   6.119  18.985  0.00  0.00    +0.000 C 
ENDROOT
BRANCH   9  15
ATOM     15  O   UNL     1       7.661   4.753  14.820  0.00  0.00    +0.000 OA
ATOM     16  C   UNL     1       7.581   5.034  13.431  0.00  0.00    +0.000 C 
ENDBRANCH   9  15
BRANCH  10  17
ATOM     17  O   UNL     1       7.766   6.795  16.874  0.00  0.00    +0.000 OA
ATOM     18  C   UNL     1       7.574   7.980  17.636  0.00  0.00    +0.000 C 
ENDBRANCH  10  17
BRANCH   1  19
ATOM     19  C   UNL     1       1.375   7.167  21.158  0.00  0.00    +0.000 C 
BRANCH  19  20
ATOM     20  C   UNL     1       1.323   8.493  20.382  0.00  0.00    +0.000 C 
BRANCH  20  22
ATOM     21  C   UNL     1      -0.373   9.043  22.174  0.00  0.00    +0.000 C 
ATOM     22  C   UNL     1       0.199   9.441  20.816  0.00  0.00    +0.000 C 
ENDBRANCH  20  22
ENDBRANCH  19  20
ENDBRANCH   1  19
TORSDOF 5
ENDMDL
MODEL 5
REMARK VINA RESULT:      -6.3      1.097      1.266
REMARK  Name = 
REMARK  8 active torsions:
REMARK  status: ('A' for Active; 'I' for Inactive)
REMARK    1  A    between atoms: C_1  and  C_2
REMARK    2  A    between atoms: C_2  and  C_3
REMARK    3  A    between atoms: C_3  and  C_4
REMARK    4  A    between atoms: C_4  and  N_5
REMARK    5  A    between atoms: C_13  and  O_14
REMARK    6  A    between atoms: O_14  and  C_15
REMARK    7  A    between atoms: C_16  and  O_17
REMARK    8  A    between atoms: O_17  and  C_18
REMARK                            x       y       z     vdW  Elec       q    Type
REMARK                         _______ _______ _______ _____ _____    ______ ____
ROOT
ATOM      1  N   UNL     1       6.055   4.686  14.228  0.00  0.00    +0.000 NA
ATOM      2  C   UNL     1       7.202   4.872  15.154  0.00  0.00    +0.000 C 
ATOM      3  C   UNL     1       6.939   6.006  16.163  0.00  0.00    +0.000 C 
ATOM      4  N   UNL     1       5.763   5.776  16.999  0.00  0.00    +0.000 NA
ATOM      5  C   UNL     1       5.020   6.988  17.360  0.00  0.00    +0.000 C 
ATOM      6  C   UNL     1       3.521   6.813  17.687  0.00  0.00    +0.000 C 
ATOM      7  C   UNL     1       3.276   5.456  18.294  0.00  0.00    +0.000 A 
ATOM      8  C   UNL     1       2.611   5.326  19.533  0.00  0.00    +0.000 A 
ATOM      9  C   UNL     1       2.667   4.119  20.245  0.00  0.00    +0.000 A 
ATOM     10  C   UNL     1       3.345   3.030  19.677  0.00  0.00    +0.000 A 
ATOM     11  C   UNL     1       3.892   3.136  18.383  0.00  0.00    +0.000 A 
ATOM     12  C   UNL     1       3.911   4.360  17.686  0.00  0.00    +0.000 A 
ATOM     13  C   UNL     1       4.977   4.595  16.602  0.00  0.00    +0.000 C 
ATOM     14  C   UNL     1       4.770   4.519  15.024  0.00  0.00    +0.000 C 
ENDROOT
BRANCH   9  15
ATOM     15  O   UNL     1       2.201   3.995  21.527  0.00  0.00    +0.000 OA
ATOM     16  C   UNL     1       1.367   2.890  21.836  0.00  0.00    +0.000 C 
ENDBRANCH   9  15
BRANCH  10  17
ATOM     17  O   UNL     1       3.610   1.807  20.252  0.00  0.00    +0.000 OA
ATOM     18  C   UNL     1       4.936   1.530  20.687  0.00  0.00    +0.000 C 
ENDBRANCH  10  17
BRANCH   1  19
ATOM     19  C   UNL     1       6.394   3.593  13.295  0.00  0.00    +0.000 C 
BRANCH  19  20
ATOM     20  C   UNL     1       5.824   3.665  11.869  0.00  0.00    +0.000 C 
BRANCH  20  22
ATOM     21  C   UNL     1       3.687   3.632  10.519  0.00  0.00    +0.000 C 
ATOM     22  C   UNL     1       4.438   3.031  11.704  0.00  0.00    +0.000 C 
ENDBRANCH  20  22
ENDBRANCH  19  20
ENDBRANCH   1  19
TORSDOF 5
ENDMDL
MODEL 6
REMARK VINA RESULT:      -6.2      3.864      7.049
REMARK  Name = 
REMARK  8 active torsions:
REMARK  status: ('A' for Active; 'I' for Inactive)
REMARK    1  A    between atoms: C_1  and  C_2
REMARK    2  A    between atoms: C_2  and  C_3
REMARK    3  A    between atoms: C_3  and  C_4
REMARK    4  A    between atoms: C_4  and  N_5
REMARK    5  A    between atoms: C_13  and  O_14
REMARK    6  A    between atoms: O_14  and  C_15
REMARK    7  A    between atoms: C_16  and  O_17
REMARK    8  A    between atoms: O_17  and  C_18
REMARK                            x       y       z     vdW  Elec       q    Type
REMARK                         _______ _______ _______ _____ _____    ______ ____
ROOT
ATOM      1  N   UNL     1       0.564   9.356  18.943  0.00  0.00    +0.000 NA
ATOM      2  C   UNL     1       1.351   9.341  20.203  0.00  0.00    +0.000 C 
ATOM      3  C   UNL     1       1.627   7.903  20.682  0.00  0.00    +0.000 C 
ATOM      4  N   UNL     1       2.376   7.105  19.715  0.00  0.00    +0.000 NA
ATOM      5  C   UNL     1       2.020   5.682  19.687  0.00  0.00    +0.000 C 
ATOM      6  C   UNL     1       2.281   4.926  18.366  0.00  0.00    +0.000 C 
ATOM      7  C   UNL     1       3.469   5.517  17.653  0.00  0.00    +0.000 A 
ATOM      8  C   UNL     1       4.552   4.703  17.253  0.00  0.00    +0.000 A 
ATOM      9  C   UNL     1       5.778   5.281  16.892  0.00  0.00    +0.000 A 
ATOM     10  C   UNL     1       5.888   6.679  16.878  0.00  0.00    +0.000 A 
ATOM     11  C   UNL     1       4.762   7.479  17.155  0.00  0.00    +0.000 A 
ATOM     12  C   UNL     1       3.546   6.919  17.593  0.00  0.00    +0.000 A 
ATOM     13  C   UNL     1       2.573   7.777  18.418  0.00  0.00    +0.000 C 
ATOM     14  C   UNL     1       1.239   8.478  17.902  0.00  0.00    +0.000 C 
ENDROOT
BRANCH   9  15
ATOM     15  O   UNL     1       6.909   4.539  16.676  0.00  0.00    +0.000 OA
ATOM     16  C   UNL     1       7.825   4.382  17.748  0.00  0.00    +0.000 C 
ENDBRANCH   9  15
BRANCH  10  17
ATOM     17  O   UNL     1       7.019   7.435  16.665  0.00  0.00    +0.000 OA
ATOM     18  C   UNL     1       7.700   7.978  17.790  0.00  0.00    +0.000 C 
ENDBRANCH  10  17
BRANCH   1  19
ATOM     19  C   UNL     1       0.338  10.766  18.563  0.00  0.00    +0.000 C 
BRANCH  19  20
ATOM     20  C   UNL     1      -1.087  11.179  18.162  0.00  0.00    +0.000 C 
BRANCH  20  22
ATOM     21  C   UNL     1      -2.752  10.038  16.641  0.00  0.00    +0.000 C 
ATOM     22  C   UNL     1      -2.069  10.012  18.005  0.00  0.00    +0.000 C 
ENDBRANCH  20  22
ENDBRANCH  19  20
ENDBRANCH   1  19
TORSDOF 5
ENDMDL
MODEL 7
REMARK VINA RESULT:      -6.2      3.612      7.015
REMARK  Name = 
REMARK  8 active torsions:
REMARK  status: ('A' for Active; 'I' for Inactive)
REMARK    1  A    between atoms: C_1  and  C_2
REMARK    2  A    between atoms: C_2  and  C_3
REMARK    3  A    between atoms: C_3  and  C_4
REMARK    4  A    between atoms: C_4  and  N_5
REMARK    5  A    between atoms: C_13  and  O_14
REMARK    6  A    between atoms: O_14  and  C_15
REMARK    7  A    between atoms: C_16  and  O_17
REMARK    8  A    between atoms: O_17  and  C_18
REMARK                            x       y       z     vdW  Elec       q    Type
REMARK                         _______ _______ _______ _____ _____    ______ ____
ROOT
ATOM      1  N   UNL     1       0.822   8.968  19.737  0.00  0.00    +0.000 NA
ATOM      2  C   UNL     1       1.594   8.536  20.930  0.00  0.00    +0.000 C 
ATOM      3  C   UNL     1       1.694   7.000  21.016  0.00  0.00    +0.000 C 
ATOM      4  N   UNL     1       2.347   6.397  19.857  0.00  0.00    +0.000 NA
ATOM      5  C   UNL     1       1.824   5.082  19.473  0.00  0.00    +0.000 C 
ATOM      6  C   UNL     1       2.000   4.668  17.996  0.00  0.00    +0.000 C 
ATOM      7  C   UNL     1       3.255   5.280  17.430  0.00  0.00    +0.000 A 
ATOM      8  C   UNL     1       4.235   4.476  16.806  0.00  0.00    +0.000 A 
ATOM      9  C   UNL     1       5.523   4.980  16.575  0.00  0.00    +0.000 A 
ATOM     10  C   UNL     1       5.800   6.312  16.919  0.00  0.00    +0.000 A 
ATOM     11  C   UNL     1       4.775   7.139  17.420  0.00  0.00    +0.000 A 
ATOM     12  C   UNL     1       3.499   6.631  17.730  0.00  0.00    +0.000 A 
ATOM     13  C   UNL     1       2.631   7.354  18.773  0.00  0.00    +0.000 C 
ATOM     14  C   UNL     1       1.393   8.316  18.488  0.00  0.00    +0.000 C 
ENDROOT
BRANCH   9  15
ATOM     15  O   UNL     1       6.559   4.193  16.147  0.00  0.00    +0.000 OA
ATOM     16  C   UNL     1       6.796   4.093  14.752  0.00  0.00    +0.000 C 
ENDBRANCH   9  15
BRANCH  10  17
ATOM     17  O   UNL     1       7.015   6.959  16.879  0.00  0.00    +0.000 OA
ATOM     18  C   UNL     1       7.769   7.071  18.080  0.00  0.00    +0.000 C 
ENDBRANCH  10  17
BRANCH   1  19
ATOM     19  C   UNL     1       0.768  10.444  19.738  0.00  0.00    +0.000 C 
BRANCH  19  20
ATOM     20  C   UNL     1      -0.104  11.130  18.675  0.00  0.00    +0.000 C 
BRANCH  20  22
ATOM     21  C   UNL     1      -1.808   9.934  17.239  0.00  0.00    +0.000 C 
ATOM     22  C   UNL     1      -1.539  10.597  18.588  0.00  0.00    +0.000 C 
ENDBRANCH  20  22
ENDBRANCH  19  20
ENDBRANCH   1  19
TORSDOF 5
ENDMDL
MODEL 8
REMARK VINA RESULT:      -6.1      3.706      6.146
REMARK  Name = 
REMARK  8 active torsions:
REMARK  status: ('A' for Active; 'I' for Inactive)
REMARK    1  A    between atoms: C_1  and  C_2
REMARK    2  A    between atoms: C_2  and  C_3
REMARK    3  A    between atoms: C_3  and  C_4
REMARK    4  A    between atoms: C_4  and  N_5
REMARK    5  A    between atoms: C_13  and  O_14
REMARK    6  A    between atoms: O_14  and  C_15
REMARK    7  A    between atoms: C_16  and  O_17
REMARK    8  A    between atoms: O_17  and  C_18
REMARK                            x       y       z     vdW  Elec       q    Type
REMARK                         _______ _______ _______ _____ _____    ______ ____
ROOT
ATOM      1  N   UNL     1       3.605   3.288  18.385  0.00  0.00    +0.000 NA
ATOM      2  C   UNL     1       4.794   3.799  19.115  0.00  0.00    +0.000 C 
ATOM      3  C   UNL     1       5.324   5.105  18.493  0.00  0.00    +0.000 C 
ATOM      4  N   UNL     1       4.342   6.186  18.491  0.00  0.00    +0.000 NA
ATOM      5  C   UNL     1       4.420   7.084  17.333  0.00  0.00    +0.000 C 
ATOM      6  C   UNL     1       3.124   7.826  16.940  0.00  0.00    +0.000 C 
ATOM      7  C   UNL     1       2.284   8.089  18.163  0.00  0.00    +0.000 A 
ATOM      8  C   UNL     1       1.839   9.395  18.468  0.00  0.00    +0.000 A 
ATOM      9  C   UNL     1       1.345   9.695  19.746  0.00  0.00    +0.000 A 
ATOM     10  C   UNL     1       1.248   8.664  20.693  0.00  0.00    +0.000 A 
ATOM     11  C   UNL     1       1.575   7.342  20.332  0.00  0.00    +0.000 A 
ATOM     12  C   UNL     1       2.142   7.034  19.081  0.00  0.00    +0.000 A 
ATOM     13  C   UNL     1       2.999   5.766  18.931  0.00  0.00    +0.000 C 
ATOM     14  C   UNL     1       2.560   4.386  18.268  0.00  0.00    +0.000 C 
ENDROOT
BRANCH   9  15
ATOM     15  O   UNL     1       1.076  10.975  20.152  0.00  0.00    +0.000 OA
ATOM     16  C   UNL     1       1.221  12.024  19.208  0.00  0.00    +0.000 C 
ENDBRANCH   9  15
BRANCH  10  17
ATOM     17  O   UNL     1       0.901   8.767  22.021  0.00  0.00    +0.000 OA
ATOM     18  C   UNL     1      -0.473   8.917  22.359  0.00  0.00    +0.000 C 
ENDBRANCH  10  17
BRANCH   1  19
ATOM     19  C   UNL     1       3.171   2.037  19.039  0.00  0.00    +0.000 C 
BRANCH  19  20
ATOM     20  C   UNL     1       1.689   1.910  19.429  0.00  0.00    +0.000 C 
BRANCH  20  22
ATOM     21  C   UNL     1       2.347   2.751  21.720  0.00  0.00    +0.000 C 
ATOM     22  C   UNL     1       1.273   2.759  20.636  0.00  0.00    +0.000 C 
ENDBRANCH  20  22
ENDBRANCH  19  20
ENDBRANCH   1  19
TORSDOF 5
ENDMDL
MODEL 9
REMARK VINA RESULT:      -6.1      3.988      6.617
REMARK  Name = 
REMARK  8 active torsions:
REMARK  status: ('A' for Active; 'I' for Inactive)
REMARK    1  A    between atoms: C_1  and  C_2
REMARK    2  A    between atoms: C_2  and  C_3
REMARK    3  A    between atoms: C_3  and  C_4
REMARK    4  A    between atoms: C_4  and  N_5
REMARK    5  A    between atoms: C_13  and  O_14
REMARK    6  A    between atoms: O_14  and  C_15
REMARK    7  A    between atoms: C_16  and  O_17
REMARK    8  A    between atoms: O_17  and  C_18
REMARK                            x       y       z     vdW  Elec       q    Type
REMARK                         _______ _______ _______ _____ _____    ______ ____
ROOT
ATOM      1  N   UNL     1       2.858   4.108  18.347  0.00  0.00    +0.000 NA
ATOM      2  C   UNL     1       4.184   4.559  18.842  0.00  0.00    +0.000 C 
ATOM      3  C   UNL     1       4.591   5.911  18.224  0.00  0.00    +0.000 C 
ATOM      4  N   UNL     1       3.650   6.988  18.517  0.00  0.00    +0.000 NA
ATOM      5  C   UNL     1       3.494   7.976  17.444  0.00  0.00    +0.000 C 
ATOM      6  C   UNL     1       2.157   8.747  17.397  0.00  0.00    +0.000 C 
ATOM      7  C   UNL     1       1.603   8.912  18.788  0.00  0.00    +0.000 A 
ATOM      8  C   UNL     1       1.255  10.189  19.283  0.00  0.00    +0.000 A 
ATOM      9  C   UNL     1       1.052  10.385  20.657  0.00  0.00    +0.000 A 
ATOM     10  C   UNL     1       1.142   9.282  21.519  0.00  0.00    +0.000 A 
ATOM     11  C   UNL     1       1.361   7.993  20.994  0.00  0.00    +0.000 A 
ATOM     12  C   UNL     1       1.642   7.787  19.630  0.00  0.00    +0.000 A 
ATOM     13  C   UNL     1       2.425   6.535  19.201  0.00  0.00    +0.000 C 
ATOM     14  C   UNL     1       1.831   5.211  18.543  0.00  0.00    +0.000 C 
ENDROOT
BRANCH   9  15
ATOM     15  O   UNL     1       0.897  11.629  21.209  0.00  0.00    +0.000 OA
ATOM     16  C   UNL     1      -0.363  12.269  21.084  0.00  0.00    +0.000 C 
ENDBRANCH   9  15
BRANCH  10  17
ATOM     17  O   UNL     1       1.089   9.279  22.894  0.00  0.00    +0.000 OA
ATOM     18  C   UNL     1      -0.177   9.416  23.529  0.00  0.00    +0.000 C 
ENDBRANCH  10  17
BRANCH   1  19
ATOM     19  C   UNL     1       2.552   2.809  18.979  0.00  0.00    +0.000 C 
BRANCH  19  20
ATOM     20  C   UNL     1       1.167   2.635  19.623  0.00  0.00    +0.000 C 
BRANCH  20  22
ATOM     21  C   UNL     1       2.483   2.684  21.781  0.00  0.00    +0.000 C 
ATOM     22  C   UNL     1       1.124   2.922  21.128  0.00  0.00    +0.000 C 
ENDBRANCH  20  22
ENDBRANCH  19  20
ENDBRANCH   1  19
TORSDOF 5
ENDMDL
