MODEL 1
REMARK VINA RESULT:      -7.0      0.000      0.000
REMARK  Name = 
REMARK  4 active torsions:
REMARK  status: ('A' for Active; 'I' for Inactive)
REMARK    1  A    between atoms: C_2  and  OXT_3
REMARK    2  A    between atoms: C_2  and  CA_4
REMARK    3  A    between atoms: C_6  and  C_7
REMARK    4  A    between atoms: C_7  and  C_8
REMARK                            x       y       z     vdW  Elec       q    Type
REMARK                         _______ _______ _______ _____ _____    ______ ____
ROOT
ATOM      1  CA  UNL     1       6.346   5.018  16.219  0.00  0.00    +0.000 C 
ATOM      2  C   UNL     1       4.892   4.629  16.401  0.00  0.00    +0.000 C 
ATOM      3  C   UNL     1       4.492   5.456  17.617  0.00  0.00    +0.000 C 
ATOM      4  C   UNL     1       5.305   6.746  17.455  0.00  0.00    +0.000 C 
ATOM      5  N   UNL     1       6.304   6.497  16.400  0.00  0.00    +0.000 NA
ATOM      6  H   UNL     1       7.221   6.820  16.725  0.00  0.00    +0.000 HD
ENDROOT
BRANCH   1   8
ATOM      7  O   UNL     1       7.668   5.348  14.199  0.00  0.00    +0.000 OA
ATOM      8  C   UNL     1       6.863   4.678  14.826  0.00  0.00    +0.000 C 
BRANCH   8   9
ATOM      9  OXT UNL     1       6.342   3.509  14.369  0.00  0.00    +0.000 OA
ATOM     10  HXT UNL     1       5.452   3.732  14.001  0.00  0.00    +0.000 HD
ENDBRANCH   8   9
ENDBRANCH   1   8
BRANCH   3  11
ATOM     11  C   UNL     1       2.979   5.661  17.740  0.00  0.00    +0.000 C 
BRANCH  11  12
ATOM     12  C   UNL     1       2.351   4.718  18.738  0.00  0.00    +0.000 A 
ATOM     13  C   UNL     1       1.557   3.647  18.304  0.00  0.00    +0.000 A 
ATOM     14  C   UNL     1       0.924   2.817  19.229  0.00  0.00    +0.000 A 
ATOM     15  C   UNL     1       1.084   3.036  20.594  0.00  0.00    +0.000 A 
ATOM     16  C   UNL     1       1.886   4.086  21.037  0.00  0.00    +0.000 A 
ATOM     17  C   UNL     1       2.513   4.926  20.117  0.00  0.00    +0.000 A 
ENDBRANCH  11  12
ENDBRANCH   3  11
TORSDOF 4
ENDMDL
MODEL 2
REMARK VINA RESULT:      -6.9      0.266      1.511
REMARK  Name = 
REMARK  4 active torsions:
REMARK  status: ('A' for Active; 'I' for Inactive)
REMARK    1  A    between atoms: C_2  and  OXT_3
REMARK    2  A    between atoms: C_2  and  CA_4
REMARK    3  A    between atoms: C_6  and  C_7
REMARK    4  A    between atoms: C_7  and  C_8
REMARK                            x       y       z     vdW  Elec       q    Type
REMARK                         _______ _______ _______ _____ _____    ______ ____
ROOT
ATOM      1  CA  UNL     1       6.326   5.041  16.178  0.00  0.00    +0.000 C 
ATOM      2  C   UNL     1       4.848   4.792  16.406  0.00  0.00    +0.000 C 
ATOM      3  C   UNL     1       4.570   5.643  17.639  0.00  0.00    +0.000 C 
ATOM      4  C   UNL     1       5.498   6.850  17.459  0.00  0.00    +0.000 C 
ATOM      5  N   UNL     1       6.433   6.515  16.369  0.00  0.00    +0.000 NA
ATOM      6  H   UNL     1       7.387   6.746  16.664  0.00  0.00    +0.000 HD
ENDROOT
BRANCH   1   8
ATOM      7  O   UNL     1       6.275   3.764  14.103  0.00  0.00    +0.000 OA
ATOM      8  C   UNL     1       6.762   4.666  14.766  0.00  0.00    +0.000 C 
BRANCH   8   9
ATOM      9  OXT UNL     1       7.748   5.484  14.313  0.00  0.00    +0.000 OA
ATOM     10  HXT UNL     1       7.509   5.710  13.380  0.00  0.00    +0.000 HD
ENDBRANCH   8   9
ENDBRANCH   1   8
BRANCH   3  11
ATOM     11  C   UNL     1       3.089   5.991  17.814  0.00  0.00    +0.000 C 
BRANCH  11  12
ATOM     12  C   UNL     1       2.357   4.979  18.664  0.00  0.00    +0.000 A 
ATOM     13  C   UNL     1       2.362   5.087  20.062  0.00  0.00    +0.000 A 
ATOM     14  C   UNL     1       1.741   4.117  20.847  0.00  0.00    +0.000 A 
ATOM     15  C   UNL     1       1.100   3.036  20.250  0.00  0.00    +0.000 A 
ATOM     16  C   UNL     1       1.071   2.928  18.862  0.00  0.00    +0.000 A 
ATOM     17  C   UNL     1       1.699   3.891  18.071  0.00  0.00    +0.000 A 
ENDBRANCH  11  12
ENDBRANCH   3  11
TORSDOF 4
ENDMDL
MODEL 3
REMARK VINA RESULT:      -6.9      1.060      1.701
REMARK  Name = 
REMARK  4 active torsions:
REMARK  status: ('A' for Active; 'I' for Inactive)
REMARK    1  A    between atoms: C_2  and  OXT_3
REMARK    2  A    between atoms: C_2  and  CA_4
REMARK    3  A    between atoms: C_6  and  C_7
REMARK    4  A    between atoms: C_7  and  C_8
REMARK                            x       y       z     vdW  Elec       q    Type
REMARK                         _______ _______ _______ _____ _____    ______ ____
ROOT
ATOM      1  CA  UNL     1       6.463   4.256  15.368  0.00  0.00    +0.000 C 
ATOM      2  C   UNL     1       5.166   4.981  15.671  0.00  0.00    +0.000 C 
ATOM      3  C   UNL     1       5.008   4.734  17.166  0.00  0.00    +0.000 C 
ATOM      4  C   UNL     1       6.450   4.734  17.685  0.00  0.00    +0.000 C 
ATOM      5  N   UNL     1       7.333   4.671  16.505  0.00  0.00    +0.000 NA
ATOM      6  H   UNL     1       8.046   3.952  16.660  0.00  0.00    +0.000 HD
ENDROOT
BRANCH   1   8
ATOM      7  O   UNL     1       7.936   5.571  13.939  0.00  0.00    +0.000 OA
ATOM      8  C   UNL     1       7.080   4.707  14.049  0.00  0.00    +0.000 C 
BRANCH   8   9
ATOM      9  OXT UNL     1       6.584   4.004  12.997  0.00  0.00    +0.000 OA
ATOM     10  HXT UNL     1       6.505   3.068  13.306  0.00  0.00    +0.000 HD
ENDBRANCH   8   9
ENDBRANCH   1   8
BRANCH   3  11
ATOM     11  C   UNL     1       4.077   5.740  17.851  0.00  0.00    +0.000 C 
BRANCH  11  12
ATOM     12  C   UNL     1       2.948   5.066  18.593  0.00  0.00    +0.000 A 
ATOM     13  C   UNL     1       2.618   5.460  19.898  0.00  0.00    +0.000 A 
ATOM     14  C   UNL     1       1.619   4.793  20.605  0.00  0.00    +0.000 A 
ATOM     15  C   UNL     1       0.929   3.736  20.019  0.00  0.00    +0.000 A 
ATOM     16  C   UNL     1       1.235   3.348  18.716  0.00  0.00    +0.000 A 
ATOM     17  C   UNL     1       2.241   4.005  18.007  0.00  0.00    +0.000 A 
ENDBRANCH  11  12
ENDBRANCH   3  11
TORSDOF 4
ENDMDL
MODEL 4
REMARK VINA RESULT:      -6.9      1.035      1.141
REMARK  Name = 
REMARK  4 active torsions:
REMARK  status: ('A' for Active; 'I' for Inactive)
REMARK    1  A    between atoms: C_2  and  OXT_3
REMARK    2  A    between atoms: C_2  and  CA_4
REMARK    3  A    between atoms: C_6  and  C_7
REMARK    4  A    between atoms: C_7  and  C_8
REMARK                            x       y       z     vdW  Elec       q    Type
REMARK                         _______ _______ _______ _____ _____    ______ ____
ROOT
ATOM      1  CA  UNL     1       6.487   4.198  15.438  0.00  0.00    +0.000 C 
ATOM      2  C   UNL     1       5.160   4.853  15.767  0.00  0.00    +0.000 C 
ATOM      3  C   UNL     1       5.048   4.607  17.267  0.00  0.00    +0.000 C 
ATOM      4  C   UNL     1       6.500   4.690  17.752  0.00  0.00    +0.000 C 
ATOM      5  N   UNL     1       7.358   4.668  16.553  0.00  0.00    +0.000 NA
ATOM      6  H   UNL     1       8.113   3.990  16.696  0.00  0.00    +0.000 HD
ENDROOT
BRANCH   1   8
ATOM      7  O   UNL     1       7.874   5.564  13.972  0.00  0.00    +0.000 OA
ATOM      8  C   UNL     1       7.049   4.674  14.103  0.00  0.00    +0.000 C 
BRANCH   8   9
ATOM      9  OXT UNL     1       6.542   3.961  13.063  0.00  0.00    +0.000 OA
ATOM     10  HXT UNL     1       5.949   3.278  13.463  0.00  0.00    +0.000 HD
ENDBRANCH   8   9
ENDBRANCH   1   8
BRANCH   3  11
ATOM     11  C   UNL     1       4.079   5.565  17.967  0.00  0.00    +0.000 C 
BRANCH  11  12
ATOM     12  C   UNL     1       2.989   4.835  18.715  0.00  0.00    +0.000 A 
ATOM     13  C   UNL     1       2.181   3.897  18.058  0.00  0.00    +0.000 A 
ATOM     14  C   UNL     1       1.132   3.272  18.733  0.00  0.00    +0.000 A 
ATOM     15  C   UNL     1       0.885   3.567  20.070  0.00  0.00    +0.000 A 
ATOM     16  C   UNL     1       1.693   4.484  20.739  0.00  0.00    +0.000 A 
ATOM     17  C   UNL     1       2.737   5.119  20.066  0.00  0.00    +0.000 A 
ENDBRANCH  11  12
ENDBRANCH   3  11
TORSDOF 4
ENDMDL
MODEL 5
REMARK VINA RESULT:      -6.9      1.930      2.216
REMARK  Name = 
REMARK  4 active torsions:
REMARK  status: ('A' for Active; 'I' for Inactive)
REMARK    1  A    between atoms: C_2  and  OXT_3
REMARK    2  A    between atoms: C_2  and  CA_4
REMARK    3  A    between atoms: C_6  and  C_7
REMARK    4  A    between atoms: C_7  and  C_8
REMARK                            x       y       z     vdW  Elec       q    Type
REMARK                         _______ _______ _______ _____ _____    ______ ____
ROOT
ATOM      1  CA  UNL     1       6.204   5.039  17.284  0.00  0.00    +0.000 C 
ATOM      2  C   UNL     1       5.187   5.992  17.881  0.00  0.00    +0.000 C 
ATOM      3  C   UNL     1       3.876   5.440  17.333  0.00  0.00    +0.000 C 
ATOM      4  C   UNL     1       4.116   3.927  17.287  0.00  0.00    +0.000 C 
ATOM      5  N   UNL     1       5.560   3.712  17.498  0.00  0.00    +0.000 NA
ATOM      6  H   UNL     1       5.905   3.055  16.792  0.00  0.00    +0.000 HD
ENDROOT
BRANCH   1   8
ATOM      7  O   UNL     1       7.876   5.972  18.792  0.00  0.00    +0.000 OA
ATOM      8  C   UNL     1       7.541   5.092  18.014  0.00  0.00    +0.000 C 
BRANCH   8   9
ATOM      9  OXT UNL     1       8.315   4.015  17.721  0.00  0.00    +0.000 OA
ATOM     10  HXT UNL     1       8.120   3.340  18.417  0.00  0.00    +0.000 HD
ENDBRANCH   8   9
ENDBRANCH   1   8
BRANCH   3  11
ATOM     11  C   UNL     1       2.651   5.874  18.143  0.00  0.00    +0.000 C 
BRANCH  11  12
ATOM     12  C   UNL     1       2.192   4.807  19.109  0.00  0.00    +0.000 A 
ATOM     13  C   UNL     1       1.335   3.783  18.684  0.00  0.00    +0.000 A 
ATOM     14  C   UNL     1       0.861   2.836  19.592  0.00  0.00    +0.000 A 
ATOM     15  C   UNL     1       1.244   2.893  20.928  0.00  0.00    +0.000 A 
ATOM     16  C   UNL     1       2.110   3.895  21.359  0.00  0.00    +0.000 A 
ATOM     17  C   UNL     1       2.580   4.851  20.457  0.00  0.00    +0.000 A 
ENDBRANCH  11  12
ENDBRANCH   3  11
TORSDOF 4
ENDMDL
MODEL 6
REMARK VINA RESULT:      -6.8      4.027      6.314
REMARK  Name = 
REMARK  4 active torsions:
REMARK  status: ('A' for Active; 'I' for Inactive)
REMARK    1  A    between atoms: C_2  and  OXT_3
REMARK    2  A    between atoms: C_2  and  CA_4
REMARK    3  A    between atoms: C_6  and  C_7
REMARK    4  A    between atoms: C_7  and  C_8
REMARK                            x       y       z     vdW  Elec       q    Type
REMARK                         _______ _______ _______ _____ _____    ______ ____
ROOT
ATOM      1  CA  UNL     1       2.585   2.504  20.042  0.00  0.00    +0.000 C 
ATOM      2  C   UNL     1       3.146   3.761  19.406  0.00  0.00    +0.000 C 
ATOM      3  C   UNL     1       3.892   3.201  18.201  0.00  0.00    +0.000 C 
ATOM      4  C   UNL     1       3.034   2.005  17.773  0.00  0.00    +0.000 C 
ATOM      5  N   UNL     1       2.071   1.753  18.861  0.00  0.00    +0.000 NA
ATOM      6  H   UNL     1       2.066   0.752  19.077  0.00  0.00    +0.000 HD
ENDROOT
BRANCH   1   8
ATOM      7  O   UNL     1       1.434   2.516  22.190  0.00  0.00    +0.000 OA
ATOM      8  C   UNL     1       1.442   2.806  21.004  0.00  0.00    +0.000 C 
BRANCH   8   9
ATOM      9  OXT UNL     1       0.431   3.473  20.388  0.00  0.00    +0.000 OA
ATOM     10  HXT UNL     1      -0.108   3.881  21.109  0.00  0.00    +0.000 HD
ENDBRANCH   8   9
ENDBRANCH   1   8
BRANCH   3  11
ATOM     11  C   UNL     1       4.139   4.242  17.105  0.00  0.00    +0.000 C 
BRANCH  11  12
ATOM     12  C   UNL     1       5.319   5.132  17.412  0.00  0.00    +0.000 A 
ATOM     13  C   UNL     1       5.328   6.471  16.996  0.00  0.00    +0.000 A 
ATOM     14  C   UNL     1       6.446   7.273  17.223  0.00  0.00    +0.000 A 
ATOM     15  C   UNL     1       7.560   6.756  17.876  0.00  0.00    +0.000 A 
ATOM     16  C   UNL     1       7.556   5.433  18.311  0.00  0.00    +0.000 A 
ATOM     17  C   UNL     1       6.444   4.622  18.078  0.00  0.00    +0.000 A 
ENDBRANCH  11  12
ENDBRANCH   3  11
TORSDOF 4
ENDMDL
MODEL 7
REMARK VINA RESULT:      -6.8      4.014      6.347
REMARK  Name = 
REMARK  4 active torsions:
REMARK  status: ('A' for Active; 'I' for Inactive)
REMARK    1  A    between atoms: C_2  and  OXT_3
REMARK    2  A    between atoms: C_2  and  CA_4
REMARK    3  A    between atoms: C_6  and  C_7
REMARK    4  A    between atoms: C_7  and  C_8
REMARK                            x       y       z     vdW  Elec       q    Type
REMARK                         _______ _______ _______ _____ _____    ______ ____
ROOT
ATOM      1  CA  UNL     1       2.616   2.575  20.137  0.00  0.00    +0.000 C 
ATOM      2  C   UNL     1       3.123   3.819  19.435  0.00  0.00    +0.000 C 
ATOM      3  C   UNL     1       3.926   3.227  18.283  0.00  0.00    +0.000 C 
ATOM      4  C   UNL     1       3.144   1.961  17.914  0.00  0.00    +0.000 C 
ATOM      5  N   UNL     1       2.170   1.725  18.996  0.00  0.00    +0.000 NA
ATOM      6  H   UNL     1       2.214   0.741  19.275  0.00  0.00    +0.000 HD
ENDROOT
BRANCH   1   8
ATOM      7  O   UNL     1       1.351   2.516  22.220  0.00  0.00    +0.000 OA
ATOM      8  C   UNL     1       1.436   2.872  21.055  0.00  0.00    +0.000 C 
BRANCH   8   9
ATOM      9  OXT UNL     1       0.489   3.619  20.428  0.00  0.00    +0.000 OA
ATOM     10  HXT UNL     1       0.975   4.345  19.965  0.00  0.00    +0.000 HD
ENDBRANCH   8   9
ENDBRANCH   1   8
BRANCH   3  11
ATOM     11  C   UNL     1       4.142   4.210  17.128  0.00  0.00    +0.000 C 
BRANCH  11  12
ATOM     12  C   UNL     1       5.349   5.092  17.341  0.00  0.00    +0.000 A 
ATOM     13  C   UNL     1       6.497   4.589  17.968  0.00  0.00    +0.000 A 
ATOM     14  C   UNL     1       7.586   5.422  18.223  0.00  0.00    +0.000 A 
ATOM     15  C   UNL     1       7.547   6.761  17.848  0.00  0.00    +0.000 A 
ATOM     16  C   UNL     1       6.419   7.269  17.207  0.00  0.00    +0.000 A 
ATOM     17  C   UNL     1       5.323   6.442  16.958  0.00  0.00    +0.000 A 
ENDBRANCH  11  12
ENDBRANCH   3  11
TORSDOF 4
ENDMDL
MODEL 8
REMARK VINA RESULT:      -6.8      2.057      2.664
REMARK  Name = 
REMARK  4 active torsions:
REMARK  status: ('A' for Active; 'I' for Inactive)
REMARK    1  A    between atoms: C_2  and  OXT_3
REMARK    2  A    between atoms: C_2  and  CA_4
REMARK    3  A    between atoms: C_6  and  C_7
REMARK    4  A    between atoms: C_7  and  C_8
REMARK                            x       y       z     vdW  Elec       q    Type
REMARK                         _______ _______ _______ _____ _____    ______ ____
ROOT
ATOM      1  CA  UNL     1       6.043   4.861  17.374  0.00  0.00    +0.000 C 
ATOM      2  C   UNL     1       5.084   5.822  18.048  0.00  0.00    +0.000 C 
ATOM      3  C   UNL     1       3.758   5.461  17.388  0.00  0.00    +0.000 C 
ATOM      4  C   UNL     1       3.870   3.949  17.163  0.00  0.00    +0.000 C 
ATOM      5  N   UNL     1       5.278   3.581  17.397  0.00  0.00    +0.000 NA
ATOM      6  H   UNL     1       5.600   2.986  16.628  0.00  0.00    +0.000 HD
ENDROOT
BRANCH   1   8
ATOM      7  O   UNL     1       8.345   4.147  17.734  0.00  0.00    +0.000 OA
ATOM      8  C   UNL     1       7.343   4.704  18.154  0.00  0.00    +0.000 C 
BRANCH   8   9
ATOM      9  OXT UNL     1       7.268   5.292  19.376  0.00  0.00    +0.000 OA
ATOM     10  HXT UNL     1       6.758   4.669  19.950  0.00  0.00    +0.000 HD
ENDBRANCH   8   9
ENDBRANCH   1   8
BRANCH   3  11
ATOM     11  C   UNL     1       2.537   5.903  18.200  0.00  0.00    +0.000 C 
BRANCH  11  12
ATOM     12  C   UNL     1       2.083   4.845  19.178  0.00  0.00    +0.000 A 
ATOM     13  C   UNL     1       2.532   4.863  20.506  0.00  0.00    +0.000 A 
ATOM     14  C   UNL     1       2.164   3.849  21.389  0.00  0.00    +0.000 A 
ATOM     15  C   UNL     1       1.338   2.813  20.964  0.00  0.00    +0.000 A 
ATOM     16  C   UNL     1       0.870   2.794  19.652  0.00  0.00    +0.000 A 
ATOM     17  C   UNL     1       1.243   3.801  18.761  0.00  0.00    +0.000 A 
ENDBRANCH  11  12
ENDBRANCH   3  11
TORSDOF 4
ENDMDL
MODEL 9
REMARK VINA RESULT:      -6.7      1.264      1.577
REMARK  Name = 
REMARK  4 active torsions:
REMARK  status: ('A' for Active; 'I' for Inactive)
REMARK    1  A    between atoms: C_2  and  OXT_3
REMARK    2  A    between atoms: C_2  and  CA_4
REMARK    3  A    between atoms: C_6  and  C_7
REMARK    4  A    between atoms: C_7  and  C_8
REMARK                            x       y       z     vdW  Elec       q    Type
REMARK                         _______ _______ _______ _____ _____    ______ ____
ROOT
ATOM      1  CA  UNL     1       6.514   4.021  15.822  0.00  0.00    +0.000 C 
ATOM      2  C   UNL     1       5.201   4.562  16.354  0.00  0.00    +0.000 C 
ATOM      3  C   UNL     1       5.403   4.458  17.861  0.00  0.00    +0.000 C 
ATOM      4  C   UNL     1       6.899   4.742  18.042  0.00  0.00    +0.000 C 
ATOM      5  N   UNL     1       7.513   4.690  16.703  0.00  0.00    +0.000 NA
ATOM      6  H   UNL     1       8.359   4.114  16.746  0.00  0.00    +0.000 HD
ENDROOT
BRANCH   1   8
ATOM      7  O   UNL     1       6.206   3.902  13.407  0.00  0.00    +0.000 OA
ATOM      8  C   UNL     1       6.753   4.417  14.369  0.00  0.00    +0.000 C 
BRANCH   8   9
ATOM      9  OXT UNL     1       7.635   5.446  14.270  0.00  0.00    +0.000 OA
ATOM     10  HXT UNL     1       7.558   5.784  13.343  0.00  0.00    +0.000 HD
ENDBRANCH   8   9
ENDBRANCH   1   8
BRANCH   3  11
ATOM     11  C   UNL     1       4.472   5.374  18.661  0.00  0.00    +0.000 C 
BRANCH  11  12
ATOM     12  C   UNL     1       3.347   4.614  19.323  0.00  0.00    +0.000 A 
ATOM     13  C   UNL     1       3.291   3.215  19.246  0.00  0.00    +0.000 A 
ATOM     14  C   UNL     1       2.217   2.520  19.801  0.00  0.00    +0.000 A 
ATOM     15  C   UNL     1       1.196   3.208  20.449  0.00  0.00    +0.000 A 
ATOM     16  C   UNL     1       1.250   4.596  20.549  0.00  0.00    +0.000 A 
ATOM     17  C   UNL     1       2.317   5.298  19.987  0.00  0.00    +0.000 A 
ENDBRANCH  11  12
ENDBRANCH   3  11
TORSDOF 4
ENDMDL
