MODEL 1
REMARK VINA RESULT:      -9.2      0.000      0.000
REMARK  Name = 
REMARK  8 active torsions:
REMARK  status: ('A' for Active; 'I' for Inactive)
REMARK    1  A    between atoms: C_1  and  O_2
REMARK    2  A    between atoms: O_2  and  C_3
REMARK    3  A    between atoms: C_8  and  O_9
REMARK    4  A    between atoms: C_10  and  C_11
REMARK    5  A    between atoms: C_11  and  N_12
REMARK    6  A    between atoms: N_12  and  C_20
REMARK    7  A    between atoms: C_13  and  C_15
REMARK    8  A    between atoms: C_24  and  C_25
REMARK                            x       y       z     vdW  Elec       q    Type
REMARK                         _______ _______ _______ _____ _____    ______ ____
ROOT
ATOM      1  C   UNL     1       4.914   6.351  18.002  0.00  0.00    +0.000 C 
ENDROOT
BRANCH   1   8
ATOM      2  C   UNL     1       5.723   3.478  12.463  0.00  0.00    +0.000 A 
ATOM      3  C   UNL     1       6.940   4.125  12.270  0.00  0.00    +0.000 A 
ATOM      4  C   UNL     1       7.510   4.819  13.321  0.00  0.00    +0.000 A 
ATOM      5  C   UNL     1       6.870   4.926  14.536  0.00  0.00    +0.000 A 
ATOM      6  N   UNL     1       7.578   5.472  15.511  0.00  0.00    +0.000 NA
ATOM      7  C   UNL     1       6.979   5.735  16.675  0.00  0.00    +0.000 A 
ATOM      8  C   UNL     1       5.622   5.567  16.913  0.00  0.00    +0.000 A 
ATOM      9  C   UNL     1       4.909   4.862  15.912  0.00  0.00    +0.000 A 
ATOM     10  C   UNL     1       5.548   4.482  14.694  0.00  0.00    +0.000 A 
ATOM     11  C   UNL     1       4.985   3.727  13.628  0.00  0.00    +0.000 A 
BRANCH   2  13
ATOM     12  C   UNL     1       6.132   1.493  11.296  0.00  0.00    +0.000 C 
ATOM     13  O   UNL     1       5.228   2.582  11.550  0.00  0.00    +0.000 OA
ENDBRANCH   2  13
BRANCH   7  14
ATOM     14  O   UNL     1       7.871   6.231  17.558  0.00  0.00    +0.000 OA
ATOM     15  H   UNL     1       8.381   5.513  17.962  0.00  0.00    +0.000 HD
ENDBRANCH   7  14
ENDBRANCH   1   8
BRANCH   1  16
ATOM     16  N   UNL     1       3.482   6.102  18.243  0.00  0.00    +0.000 N 
ATOM     17  C   UNL     1       2.913   4.851  18.595  0.00  0.00    +0.000 C 
ATOM     18  O   UNL     1       1.715   4.732  18.897  0.00  0.00    +0.000 OA
BRANCH  16  19
ATOM     19  C   UNL     1       2.680   7.266  18.541  0.00  0.00    +0.000 A 
ATOM     20  C   UNL     1       2.353   8.185  17.537  0.00  0.00    +0.000 A 
ATOM     21  C   UNL     1       1.569   9.305  17.824  0.00  0.00    +0.000 A 
ATOM     22  C   UNL     1       1.093   9.520  19.117  0.00  0.00    +0.000 A 
ATOM     23  C   UNL     1       1.387   8.610  20.134  0.00  0.00    +0.000 A 
ATOM     24  C   UNL     1       0.851   8.797  21.523  0.00  0.00    +0.000 C 
ATOM     25  C   UNL     1       2.171   7.484  19.833  0.00  0.00    +0.000 A 
ENDBRANCH  16  19
BRANCH  17  26
ATOM     26  C   UNL     1       3.762   3.546  18.563  0.00  0.00    +0.000 C 
ATOM     27  C   UNL     1       2.907   2.360  18.103  0.00  0.00    +0.000 C 
ATOM     28  C   UNL     1       3.794   1.179  18.411  0.00  0.00    +0.000 C 
ATOM     29  C   UNL     1       4.514   1.624  19.663  0.00  0.00    +0.000 C 
ATOM     30  O   UNL     1       4.355   3.056  19.770  0.00  0.00    +0.000 OA
ENDBRANCH  17  26
ENDBRANCH   1  16
TORSDOF 6
ENDMDL
MODEL 2
REMARK VINA RESULT:      -9.0      2.666      7.307
REMARK  Name = 
REMARK  8 active torsions:
REMARK  status: ('A' for Active; 'I' for Inactive)
REMARK    1  A    between atoms: C_1  and  O_2
REMARK    2  A    between atoms: O_2  and  C_3
REMARK    3  A    between atoms: C_8  and  O_9
REMARK    4  A    between atoms: C_10  and  C_11
REMARK    5  A    between atoms: C_11  and  N_12
REMARK    6  A    between atoms: N_12  and  C_20
REMARK    7  A    between atoms: C_13  and  C_15
REMARK    8  A    between atoms: C_24  and  C_25
REMARK                            x       y       z     vdW  Elec       q    Type
REMARK                         _______ _______ _______ _____ _____    ______ ____
ROOT
ATOM      1  C   UNL     1       2.730   5.448  18.256  0.00  0.00    +0.000 C 
ENDROOT
BRANCH   1   8
ATOM      2  C   UNL     1       0.809  11.411  18.837  0.00  0.00    +0.000 A 
ATOM      3  C   UNL     1       0.123  11.109  20.009  0.00  0.00    +0.000 A 
ATOM      4  C   UNL     1       0.326   9.882  20.613  0.00  0.00    +0.000 A 
ATOM      5  C   UNL     1       1.153   8.937  20.048  0.00  0.00    +0.000 A 
ATOM      6  N   UNL     1       1.398   7.870  20.792  0.00  0.00    +0.000 NA
ATOM      7  C   UNL     1       2.075   6.852  20.257  0.00  0.00    +0.000 A 
ATOM      8  C   UNL     1       2.465   6.782  18.927  0.00  0.00    +0.000 A 
ATOM      9  C   UNL     1       2.315   7.979  18.184  0.00  0.00    +0.000 A 
ATOM     10  C   UNL     1       1.680   9.119  18.759  0.00  0.00    +0.000 A 
ATOM     11  C   UNL     1       1.508  10.400  18.164  0.00  0.00    +0.000 A 
BRANCH   2  13
ATOM     12  C   UNL     1      -0.381  13.405  18.561  0.00  0.00    +0.000 C 
ATOM     13  O   UNL     1       0.840  12.684  18.324  0.00  0.00    +0.000 OA
ENDBRANCH   2  13
BRANCH   7  14
ATOM     14  O   UNL     1       2.276   5.888  21.181  0.00  0.00    +0.000 OA
ATOM     15  H   UNL     1       2.543   6.280  22.025  0.00  0.00    +0.000 HD
ENDBRANCH   7  14
ENDBRANCH   1   8
BRANCH   1  16
ATOM     16  N   UNL     1       4.027   4.784  18.477  0.00  0.00    +0.000 N 
ATOM     17  C   UNL     1       4.209   3.519  19.091  0.00  0.00    +0.000 C 
ATOM     18  O   UNL     1       5.317   2.964  19.144  0.00  0.00    +0.000 OA
BRANCH  16  19
ATOM     19  C   UNL     1       5.123   5.252  17.660  0.00  0.00    +0.000 A 
ATOM     20  C   UNL     1       5.316   4.749  16.368  0.00  0.00    +0.000 A 
ATOM     21  C   UNL     1       6.370   5.210  15.575  0.00  0.00    +0.000 A 
ATOM     22  C   UNL     1       7.242   6.186  16.058  0.00  0.00    +0.000 A 
ATOM     23  C   UNL     1       7.061   6.719  17.336  0.00  0.00    +0.000 A 
ATOM     24  C   UNL     1       7.960   7.800  17.861  0.00  0.00    +0.000 C 
ATOM     25  C   UNL     1       5.995   6.253  18.122  0.00  0.00    +0.000 A 
ENDBRANCH  16  19
BRANCH  17  26
ATOM     26  C   UNL     1       3.023   2.787  19.787  0.00  0.00    +0.000 C 
ATOM     27  C   UNL     1       1.724   3.003  19.002  0.00  0.00    +0.000 C 
ATOM     28  C   UNL     1       0.676   2.487  19.956  0.00  0.00    +0.000 C 
ATOM     29  C   UNL     1       1.246   2.858  21.306  0.00  0.00    +0.000 C 
ATOM     30  O   UNL     1       2.648   3.151  21.119  0.00  0.00    +0.000 OA
ENDBRANCH  17  26
ENDBRANCH   1  16
TORSDOF 6
ENDMDL
MODEL 3
REMARK VINA RESULT:      -9.0      2.376      7.325
REMARK  Name = 
REMARK  8 active torsions:
REMARK  status: ('A' for Active; 'I' for Inactive)
REMARK    1  A    between atoms: C_1  and  O_2
REMARK    2  A    between atoms: O_2  and  C_3
REMARK    3  A    between atoms: C_8  and  O_9
REMARK    4  A    between atoms: C_10  and  C_11
REMARK    5  A    between atoms: C_11  and  N_12
REMARK    6  A    between atoms: N_12  and  C_20
REMARK    7  A    between atoms: C_13  and  C_15
REMARK    8  A    between atoms: C_24  and  C_25
REMARK                            x       y       z     vdW  Elec       q    Type
REMARK                         _______ _______ _______ _____ _____    ______ ____
ROOT
ATOM      1  C   UNL     1       2.739   5.360  18.242  0.00  0.00    +0.000 C 
ENDROOT
BRANCH   1   8
ATOM      2  C   UNL     1       0.936  11.359  18.831  0.00  0.00    +0.000 A 
ATOM      3  C   UNL     1       0.255  11.072  20.010  0.00  0.00    +0.000 A 
ATOM      4  C   UNL     1       0.442   9.842  20.614  0.00  0.00    +0.000 A 
ATOM      5  C   UNL     1       1.245   8.881  20.043  0.00  0.00    +0.000 A 
ATOM      6  N   UNL     1       1.477   7.811  20.786  0.00  0.00    +0.000 NA
ATOM      7  C   UNL     1       2.130   6.779  20.246  0.00  0.00    +0.000 A 
ATOM      8  C   UNL     1       2.506   6.701  18.913  0.00  0.00    +0.000 A 
ATOM      9  C   UNL     1       2.372   7.898  18.169  0.00  0.00    +0.000 A 
ATOM     10  C   UNL     1       1.763   9.051  18.749  0.00  0.00    +0.000 A 
ATOM     11  C   UNL     1       1.609  10.334  18.153  0.00  0.00    +0.000 A 
BRANCH   2  13
ATOM     12  C   UNL     1       2.331  13.107  18.145  0.00  0.00    +0.000 C 
ATOM     13  O   UNL     1       0.986  12.630  18.315  0.00  0.00    +0.000 OA
ENDBRANCH   2  13
BRANCH   7  14
ATOM     14  O   UNL     1       2.322   5.813  21.170  0.00  0.00    +0.000 OA
ATOM     15  H   UNL     1       3.181   5.927  21.603  0.00  0.00    +0.000 HD
ENDBRANCH   7  14
ENDBRANCH   1   8
BRANCH   1  16
ATOM     16  N   UNL     1       4.020   4.666  18.464  0.00  0.00    +0.000 N 
ATOM     17  C   UNL     1       4.173   3.408  19.102  0.00  0.00    +0.000 C 
ATOM     18  O   UNL     1       5.267   2.824  19.155  0.00  0.00    +0.000 OA
BRANCH  16  19
ATOM     19  C   UNL     1       5.120   5.087  17.627  0.00  0.00    +0.000 A 
ATOM     20  C   UNL     1       6.088   5.974  18.112  0.00  0.00    +0.000 A 
ATOM     21  C   UNL     1       7.157   6.373  17.306  0.00  0.00    +0.000 A 
ATOM     22  C   UNL     1       7.279   5.885  16.005  0.00  0.00    +0.000 A 
ATOM     23  C   UNL     1       6.338   4.984  15.502  0.00  0.00    +0.000 A 
ATOM     24  C   UNL     1       6.472   4.412  14.120  0.00  0.00    +0.000 C 
ATOM     25  C   UNL     1       5.272   4.585  16.323  0.00  0.00    +0.000 A 
ENDBRANCH  16  19
BRANCH  17  26
ATOM     26  C   UNL     1       2.975   2.723  19.823  0.00  0.00    +0.000 C 
ATOM     27  C   UNL     1       1.672   2.973  19.056  0.00  0.00    +0.000 C 
ATOM     28  C   UNL     1       0.622   2.502  20.031  0.00  0.00    +0.000 C 
ATOM     29  C   UNL     1       1.225   2.870  21.368  0.00  0.00    +0.000 C 
ATOM     30  O   UNL     1       2.633   3.114  21.156  0.00  0.00    +0.000 OA
ENDBRANCH  17  26
ENDBRANCH   1  16
TORSDOF 6
ENDMDL
MODEL 4
REMARK VINA RESULT:      -8.9      3.161      8.076
REMARK  Name = 
REMARK  8 active torsions:
REMARK  status: ('A' for Active; 'I' for Inactive)
REMARK    1  A    between atoms: C_1  and  O_2
REMARK    2  A    between atoms: O_2  and  C_3
REMARK    3  A    between atoms: C_8  and  O_9
REMARK    4  A    between atoms: C_10  and  C_11
REMARK    5  A    between atoms: C_11  and  N_12
REMARK    6  A    between atoms: N_12  and  C_20
REMARK    7  A    between atoms: C_13  and  C_15
REMARK    8  A    between atoms: C_24  and  C_25
REMARK                            x       y       z     vdW  Elec       q    Type
REMARK                         _______ _______ _______ _____ _____    ______ ____
ROOT
ATOM      1  C   UNL     1       3.770   6.581  19.275  0.00  0.00    +0.000 C 
ENDROOT
BRANCH   1   8
ATOM      2  C   UNL     1      -0.495  10.245  22.098  0.00  0.00    +0.000 A 
ATOM      3  C   UNL     1      -0.386  11.201  21.092  0.00  0.00    +0.000 A 
ATOM      4  C   UNL     1       0.304  10.888  19.936  0.00  0.00    +0.000 A 
ATOM      5  C   UNL     1       0.930   9.670  19.786  0.00  0.00    +0.000 A 
ATOM      6  N   UNL     1       1.418   9.420  18.582  0.00  0.00    +0.000 NA
ATOM      7  C   UNL     1       2.158   8.324  18.400  0.00  0.00    +0.000 A 
ATOM      8  C   UNL     1       2.541   7.460  19.415  0.00  0.00    +0.000 A 
ATOM      9  C   UNL     1       1.904   7.664  20.664  0.00  0.00    +0.000 A 
ATOM     10  C   UNL     1       1.032   8.776  20.863  0.00  0.00    +0.000 A 
ATOM     11  C   UNL     1       0.281   9.080  22.033  0.00  0.00    +0.000 A 
BRANCH   2  13
ATOM     12  C   UNL     1      -1.996  11.690  23.161  0.00  0.00    +0.000 C 
ATOM     13  O   UNL     1      -1.359  10.401  23.153  0.00  0.00    +0.000 OA
ENDBRANCH   2  13
BRANCH   7  14
ATOM     14  O   UNL     1       2.514   8.211  17.102  0.00  0.00    +0.000 OA
ATOM     15  H   UNL     1       1.771   7.880  16.576  0.00  0.00    +0.000 HD
ENDBRANCH   7  14
ENDBRANCH   1   8
BRANCH   1  16
ATOM     16  N   UNL     1       3.672   5.341  18.484  0.00  0.00    +0.000 N 
ATOM     17  C   UNL     1       4.706   4.794  17.682  0.00  0.00    +0.000 C 
ATOM     18  O   UNL     1       4.599   3.687  17.133  0.00  0.00    +0.000 OA
BRANCH  16  19
ATOM     19  C   UNL     1       2.623   4.426  18.872  0.00  0.00    +0.000 A 
ATOM     20  C   UNL     1       1.646   4.028  17.952  0.00  0.00    +0.000 A 
ATOM     21  C   UNL     1       0.638   3.136  18.325  0.00  0.00    +0.000 A 
ATOM     22  C   UNL     1       0.596   2.621  19.620  0.00  0.00    +0.000 A 
ATOM     23  C   UNL     1       1.568   2.987  20.553  0.00  0.00    +0.000 A 
ATOM     24  C   UNL     1       1.568   2.414  21.940  0.00  0.00    +0.000 C 
ATOM     25  C   UNL     1       2.580   3.879  20.166  0.00  0.00    +0.000 A 
ENDBRANCH  16  19
BRANCH  17  26
ATOM     26  C   UNL     1       6.014   5.593  17.405  0.00  0.00    +0.000 C 
ATOM     27  C   UNL     1       6.881   5.660  18.667  0.00  0.00    +0.000 C 
ATOM     28  C   UNL     1       7.921   6.687  18.295  0.00  0.00    +0.000 C 
ATOM     29  C   UNL     1       7.145   7.640  17.416  0.00  0.00    +0.000 C 
ATOM     30  O   UNL     1       5.935   6.965  17.006  0.00  0.00    +0.000 OA
ENDBRANCH  17  26
ENDBRANCH   1  16
TORSDOF 6
ENDMDL
MODEL 5
REMARK VINA RESULT:      -8.9      2.558      7.541
REMARK  Name = 
REMARK  8 active torsions:
REMARK  status: ('A' for Active; 'I' for Inactive)
REMARK    1  A    between atoms: C_1  and  O_2
REMARK    2  A    between atoms: O_2  and  C_3
REMARK    3  A    between atoms: C_8  and  O_9
REMARK    4  A    between atoms: C_10  and  C_11
REMARK    5  A    between atoms: C_11  and  N_12
REMARK    6  A    between atoms: N_12  and  C_20
REMARK    7  A    between atoms: C_13  and  C_15
REMARK    8  A    between atoms: C_24  and  C_25
REMARK                            x       y       z     vdW  Elec       q    Type
REMARK                         _______ _______ _______ _____ _____    ______ ____
ROOT
ATOM      1  C   UNL     1       2.719   6.118  18.081  0.00  0.00    +0.000 C 
ENDROOT
BRANCH   1   8
ATOM      2  C   UNL     1       1.180  12.194  18.640  0.00  0.00    +0.000 A 
ATOM      3  C   UNL     1       0.311  11.910  19.689  0.00  0.00    +0.000 A 
ATOM      4  C   UNL     1       0.335  10.652  20.263  0.00  0.00    +0.000 A 
ATOM      5  C   UNL     1       1.162   9.663  19.780  0.00  0.00    +0.000 A 
ATOM      6  N   UNL     1       1.218   8.557  20.505  0.00  0.00    +0.000 NA
ATOM      7  C   UNL     1       1.888   7.506  20.028  0.00  0.00    +0.000 A 
ATOM      8  C   UNL     1       2.460   7.448  18.765  0.00  0.00    +0.000 A 
ATOM      9  C   UNL     1       2.507   8.675  18.060  0.00  0.00    +0.000 A 
ATOM     10  C   UNL     1       1.881   9.844  18.588  0.00  0.00    +0.000 A 
ATOM     11  C   UNL     1       1.892  11.152  18.030  0.00  0.00    +0.000 A 
BRANCH   2  13
ATOM     12  C   UNL     1       2.764  13.857  18.201  0.00  0.00    +0.000 C 
ATOM     13  O   UNL     1       1.378  13.476  18.192  0.00  0.00    +0.000 OA
ENDBRANCH   2  13
BRANCH   7  14
ATOM     14  O   UNL     1       1.882   6.500  20.929  0.00  0.00    +0.000 OA
ATOM     15  H   UNL     1       1.112   6.574  21.512  0.00  0.00    +0.000 HD
ENDBRANCH   7  14
ENDBRANCH   1   8
BRANCH   1  16
ATOM     16  N   UNL     1       3.936   5.364  18.430  0.00  0.00    +0.000 N 
ATOM     17  C   UNL     1       4.006   4.308  19.374  0.00  0.00    +0.000 C 
ATOM     18  O   UNL     1       5.036   3.637  19.538  0.00  0.00    +0.000 OA
BRANCH  16  19
ATOM     19  C   UNL     1       5.012   5.423  17.468  0.00  0.00    +0.000 A 
ATOM     20  C   UNL     1       6.166   6.171  17.731  0.00  0.00    +0.000 A 
ATOM     21  C   UNL     1       7.210   6.219  16.804  0.00  0.00    +0.000 A 
ATOM     22  C   UNL     1       7.121   5.513  15.604  0.00  0.00    +0.000 A 
ATOM     23  C   UNL     1       5.991   4.744  15.324  0.00  0.00    +0.000 A 
ATOM     24  C   UNL     1       5.890   3.942  14.059  0.00  0.00    +0.000 C 
ATOM     25  C   UNL     1       4.949   4.697  16.265  0.00  0.00    +0.000 A 
ENDBRANCH  16  19
BRANCH  17  26
ATOM     26  C   UNL     1       2.798   3.978  20.299  0.00  0.00    +0.000 C 
ATOM     27  C   UNL     1       3.054   2.682  21.076  0.00  0.00    +0.000 C 
ATOM     28  C   UNL     1       1.700   2.382  21.669  0.00  0.00    +0.000 C 
ATOM     29  C   UNL     1       0.754   2.881  20.602  0.00  0.00    +0.000 C 
ATOM     30  O   UNL     1       1.507   3.748  19.725  0.00  0.00    +0.000 OA
ENDBRANCH  17  26
ENDBRANCH   1  16
TORSDOF 6
ENDMDL
MODEL 6
REMARK VINA RESULT:      -8.7      1.980      7.333
REMARK  Name = 
REMARK  8 active torsions:
REMARK  status: ('A' for Active; 'I' for Inactive)
REMARK    1  A    between atoms: C_1  and  O_2
REMARK    2  A    between atoms: O_2  and  C_3
REMARK    3  A    between atoms: C_8  and  O_9
REMARK    4  A    between atoms: C_10  and  C_11
REMARK    5  A    between atoms: C_11  and  N_12
REMARK    6  A    between atoms: N_12  and  C_20
REMARK    7  A    between atoms: C_13  and  C_15
REMARK    8  A    between atoms: C_24  and  C_25
REMARK                            x       y       z     vdW  Elec       q    Type
REMARK                         _______ _______ _______ _____ _____    ______ ____
ROOT
ATOM      1  C   UNL     1       4.945   4.069  16.637  0.00  0.00    +0.000 C 
ENDROOT
BRANCH   1   8
ATOM      2  C   UNL     1       1.491   7.716  20.426  0.00  0.00    +0.000 A 
ATOM      3  C   UNL     1       0.980   6.602  21.085  0.00  0.00    +0.000 A 
ATOM      4  C   UNL     1       1.547   5.362  20.854  0.00  0.00    +0.000 A 
ATOM      5  C   UNL     1       2.569   5.203  19.945  0.00  0.00    +0.000 A 
ATOM      6  N   UNL     1       3.139   4.010  19.925  0.00  0.00    +0.000 NA
ATOM      7  C   UNL     1       4.040   3.740  18.977  0.00  0.00    +0.000 A 
ATOM      8  C   UNL     1       4.360   4.597  17.934  0.00  0.00    +0.000 A 
ATOM      9  C   UNL     1       3.846   5.912  18.044  0.00  0.00    +0.000 A 
ATOM     10  C   UNL     1       2.953   6.259  19.102  0.00  0.00    +0.000 A 
ATOM     11  C   UNL     1       2.402   7.542  19.377  0.00  0.00    +0.000 A 
BRANCH   2  13
ATOM     12  C   UNL     1       1.120   9.179  22.213  0.00  0.00    +0.000 C 
ATOM     13  O   UNL     1       1.141   8.993  20.787  0.00  0.00    +0.000 OA
ENDBRANCH   2  13
BRANCH   7  14
ATOM     14  O   UNL     1       4.550   2.503  19.156  0.00  0.00    +0.000 OA
ATOM     15  H   UNL     1       5.461   2.557  19.480  0.00  0.00    +0.000 HD
ENDBRANCH   7  14
ENDBRANCH   1   8
BRANCH   1  16
ATOM     16  N   UNL     1       6.311   4.469  16.257  0.00  0.00    +0.000 N 
ATOM     17  C   UNL     1       6.856   4.392  14.950  0.00  0.00    +0.000 C 
ATOM     18  O   UNL     1       7.975   4.852  14.673  0.00  0.00    +0.000 OA
BRANCH  16  19
ATOM     19  C   UNL     1       6.984   5.365  17.170  0.00  0.00    +0.000 A 
ATOM     20  C   UNL     1       7.603   4.876  18.325  0.00  0.00    +0.000 A 
ATOM     21  C   UNL     1       8.262   5.742  19.202  0.00  0.00    +0.000 A 
ATOM     22  C   UNL     1       8.318   7.109  18.932  0.00  0.00    +0.000 A 
ATOM     23  C   UNL     1       7.725   7.622  17.777  0.00  0.00    +0.000 A 
ATOM     24  C   UNL     1       7.810   9.083  17.444  0.00  0.00    +0.000 C 
ATOM     25  C   UNL     1       7.072   6.742  16.900  0.00  0.00    +0.000 A 
ENDBRANCH  16  19
BRANCH  17  26
ATOM     26  C   UNL     1       6.092   3.667  13.803  0.00  0.00    +0.000 C 
ATOM     27  C   UNL     1       6.919   3.680  12.513  0.00  0.00    +0.000 C 
ATOM     28  C   UNL     1       5.924   3.212  11.481  0.00  0.00    +0.000 C 
ATOM     29  C   UNL     1       4.625   3.797  11.986  0.00  0.00    +0.000 C 
ATOM     30  O   UNL     1       4.825   4.170  13.367  0.00  0.00    +0.000 OA
ENDBRANCH  17  26
ENDBRANCH   1  16
TORSDOF 6
ENDMDL
MODEL 7
REMARK VINA RESULT:      -8.6      1.242      4.483
REMARK  Name = 
REMARK  8 active torsions:
REMARK  status: ('A' for Active; 'I' for Inactive)
REMARK    1  A    between atoms: C_1  and  O_2
REMARK    2  A    between atoms: O_2  and  C_3
REMARK    3  A    between atoms: C_8  and  O_9
REMARK    4  A    between atoms: C_10  and  C_11
REMARK    5  A    between atoms: C_11  and  N_12
REMARK    6  A    between atoms: N_12  and  C_20
REMARK    7  A    between atoms: C_13  and  C_15
REMARK    8  A    between atoms: C_24  and  C_25
REMARK                            x       y       z     vdW  Elec       q    Type
REMARK                         _______ _______ _______ _____ _____    ______ ____
ROOT
ATOM      1  C   UNL     1       4.024   6.602  17.846  0.00  0.00    +0.000 C 
ENDROOT
BRANCH   1   8
ATOM      2  C   UNL     1       6.267   3.663  12.755  0.00  0.00    +0.000 A 
ATOM      3  C   UNL     1       7.452   4.389  12.820  0.00  0.00    +0.000 A 
ATOM      4  C   UNL     1       7.720   5.146  13.946  0.00  0.00    +0.000 A 
ATOM      5  C   UNL     1       6.812   5.236  14.977  0.00  0.00    +0.000 A 
ATOM      6  N   UNL     1       7.240   5.853  16.066  0.00  0.00    +0.000 NA
ATOM      7  C   UNL     1       6.373   6.101  17.050  0.00  0.00    +0.000 A 
ATOM      8  C   UNL     1       5.011   5.844  16.979  0.00  0.00    +0.000 A 
ATOM      9  C   UNL     1       4.594   5.068  15.870  0.00  0.00    +0.000 A 
ATOM     10  C   UNL     1       5.519   4.705  14.846  0.00  0.00    +0.000 A 
ATOM     11  C   UNL     1       5.266   3.887  13.709  0.00  0.00    +0.000 A 
BRANCH   2  13
ATOM     12  C   UNL     1       4.694   2.699  11.318  0.00  0.00    +0.000 C 
ATOM     13  O   UNL     1       6.052   2.713  11.788  0.00  0.00    +0.000 OA
ENDBRANCH   2  13
BRANCH   7  14
ATOM     14  O   UNL     1       7.004   6.680  18.094  0.00  0.00    +0.000 OA
ATOM     15  H   UNL     1       7.570   6.036  18.545  0.00  0.00    +0.000 HD
ENDBRANCH   7  14
ENDBRANCH   1   8
BRANCH   1  16
ATOM     16  N   UNL     1       3.308   5.878  18.911  0.00  0.00    +0.000 N 
ATOM     17  C   UNL     1       2.349   6.444  19.789  0.00  0.00    +0.000 C 
ATOM     18  O   UNL     1       1.698   5.753  20.589  0.00  0.00    +0.000 OA
BRANCH  16  19
ATOM     19  C   UNL     1       3.276   4.438  18.784  0.00  0.00    +0.000 A 
ATOM     20  C   UNL     1       2.453   3.824  17.833  0.00  0.00    +0.000 A 
ATOM     21  C   UNL     1       2.430   2.433  17.704  0.00  0.00    +0.000 A 
ATOM     22  C   UNL     1       3.235   1.636  18.518  0.00  0.00    +0.000 A 
ATOM     23  C   UNL     1       4.079   2.223  19.462  0.00  0.00    +0.000 A 
ATOM     24  C   UNL     1       4.985   1.389  20.320  0.00  0.00    +0.000 C 
ATOM     25  C   UNL     1       4.099   3.622  19.579  0.00  0.00    +0.000 A 
ENDBRANCH  16  19
BRANCH  17  26
ATOM     26  C   UNL     1       2.107   7.981  19.829  0.00  0.00    +0.000 C 
ATOM     27  C   UNL     1       1.159   8.347  20.976  0.00  0.00    +0.000 C 
ATOM     28  C   UNL     1       0.824   9.787  20.678  0.00  0.00    +0.000 C 
ATOM     29  C   UNL     1       0.821   9.819  19.167  0.00  0.00    +0.000 C 
ATOM     30  O   UNL     1       1.506   8.634  18.706  0.00  0.00    +0.000 OA
ENDBRANCH  17  26
ENDBRANCH   1  16
TORSDOF 6
ENDMDL
MODEL 8
REMARK VINA RESULT:      -8.6      1.922      7.111
REMARK  Name = 
REMARK  8 active torsions:
REMARK  status: ('A' for Active; 'I' for Inactive)
REMARK    1  A    between atoms: C_1  and  O_2
REMARK    2  A    between atoms: O_2  and  C_3
REMARK    3  A    between atoms: C_8  and  O_9
REMARK    4  A    between atoms: C_10  and  C_11
REMARK    5  A    between atoms: C_11  and  N_12
REMARK    6  A    between atoms: N_12  and  C_20
REMARK    7  A    between atoms: C_13  and  C_15
REMARK    8  A    between atoms: C_24  and  C_25
REMARK                            x       y       z     vdW  Elec       q    Type
REMARK                         _______ _______ _______ _____ _____    ______ ____
ROOT
ATOM      1  C   UNL     1       5.139   3.889  15.771  0.00  0.00    +0.000 C 
ENDROOT
BRANCH   1   8
ATOM      2  C   UNL     1       1.706   6.451  20.380  0.00  0.00    +0.000 A 
ATOM      3  C   UNL     1       1.014   5.258  20.570  0.00  0.00    +0.000 A 
ATOM      4  C   UNL     1       1.469   4.108  19.953  0.00  0.00    +0.000 A 
ATOM      5  C   UNL     1       2.560   4.133  19.112  0.00  0.00    +0.000 A 
ATOM      6  N   UNL     1       3.000   2.953  18.708  0.00  0.00    +0.000 NA
ATOM      7  C   UNL     1       3.963   2.905  17.784  0.00  0.00    +0.000 A 
ATOM      8  C   UNL     1       4.480   4.015  17.132  0.00  0.00    +0.000 A 
ATOM      9  C   UNL     1       4.097   5.270  17.666  0.00  0.00    +0.000 A 
ATOM     10  C   UNL     1       3.139   5.351  18.721  0.00  0.00    +0.000 A 
ATOM     11  C   UNL     1       2.700   6.524  19.395  0.00  0.00    +0.000 A 
BRANCH   2  13
ATOM     12  C   UNL     1       1.274   8.749  20.354  0.00  0.00    +0.000 C 
ATOM     13  O   UNL     1       1.455   7.562  21.145  0.00  0.00    +0.000 OA
ENDBRANCH   2  13
BRANCH   7  14
ATOM     14  O   UNL     1       4.319   1.624  17.547  0.00  0.00    +0.000 OA
ATOM     15  H   UNL     1       4.822   1.562  16.722  0.00  0.00    +0.000 HD
ENDBRANCH   7  14
ENDBRANCH   1   8
BRANCH   1  16
ATOM     16  N   UNL     1       6.469   4.489  15.566  0.00  0.00    +0.000 N 
ATOM     17  C   UNL     1       7.067   4.751  14.307  0.00  0.00    +0.000 C 
ATOM     18  O   UNL     1       8.141   5.364  14.201  0.00  0.00    +0.000 OA
BRANCH  16  19
ATOM     19  C   UNL     1       7.009   5.225  16.686  0.00  0.00    +0.000 A 
ATOM     20  C   UNL     1       7.498   4.554  17.813  0.00  0.00    +0.000 A 
ATOM     21  C   UNL     1       8.030   5.266  18.891  0.00  0.00    +0.000 A 
ATOM     22  C   UNL     1       8.088   6.659  18.856  0.00  0.00    +0.000 A 
ATOM     23  C   UNL     1       7.625   7.353  17.737  0.00  0.00    +0.000 A 
ATOM     24  C   UNL     1       7.716   8.850  17.658  0.00  0.00    +0.000 C 
ATOM     25  C   UNL     1       7.098   6.628  16.657  0.00  0.00    +0.000 A 
ENDBRANCH  16  19
BRANCH  17  26
ATOM     26  C   UNL     1       6.426   4.223  12.989  0.00  0.00    +0.000 C 
ATOM     27  C   UNL     1       4.898   4.199  13.108  0.00  0.00    +0.000 C 
ATOM     28  C   UNL     1       4.488   3.409  11.890  0.00  0.00    +0.000 C 
ATOM     29  C   UNL     1       5.618   2.415  11.745  0.00  0.00    +0.000 C 
ATOM     30  O   UNL     1       6.726   2.900  12.535  0.00  0.00    +0.000 OA
ENDBRANCH  17  26
ENDBRANCH   1  16
TORSDOF 6
ENDMDL
MODEL 9
REMARK VINA RESULT:      -8.5      1.099      1.245
REMARK  Name = 
REMARK  8 active torsions:
REMARK  status: ('A' for Active; 'I' for Inactive)
REMARK    1  A    between atoms: C_1  and  O_2
REMARK    2  A    between atoms: O_2  and  C_3
REMARK    3  A    between atoms: C_8  and  O_9
REMARK    4  A    between atoms: C_10  and  C_11
REMARK    5  A    between atoms: C_11  and  N_12
REMARK    6  A    between atoms: N_12  and  C_20
REMARK    7  A    between atoms: C_13  and  C_15
REMARK    8  A    between atoms: C_24  and  C_25
REMARK                            x       y       z     vdW  Elec       q    Type
REMARK                         _______ _______ _______ _____ _____    ______ ____
ROOT
ATOM      1  C   UNL     1       4.699   5.160  18.973  0.00  0.00    +0.000 C 
ENDROOT
BRANCH   1   8
ATOM      2  C   UNL     1       5.949   3.759  12.968  0.00  0.00    +0.000 A 
ATOM      3  C   UNL     1       7.141   4.476  13.016  0.00  0.00    +0.000 A 
ATOM      4  C   UNL     1       7.618   4.911  14.238  0.00  0.00    +0.000 A 
ATOM      5  C   UNL     1       6.908   4.696  15.399  0.00  0.00    +0.000 A 
ATOM      6  N   UNL     1       7.534   5.011  16.521  0.00  0.00    +0.000 NA
ATOM      7  C   UNL     1       6.860   4.960  17.672  0.00  0.00    +0.000 A 
ATOM      8  C   UNL     1       5.502   4.691  17.775  0.00  0.00    +0.000 A 
ATOM      9  C   UNL     1       4.881   4.228  16.589  0.00  0.00    +0.000 A 
ATOM     10  C   UNL     1       5.603   4.180  15.359  0.00  0.00    +0.000 A 
ATOM     11  C   UNL     1       5.137   3.690  14.107  0.00  0.00    +0.000 A 
BRANCH   2  13
ATOM     12  C   UNL     1       4.184   3.379  11.481  0.00  0.00    +0.000 C 
ATOM     13  O   UNL     1       5.549   3.097  11.834  0.00  0.00    +0.000 OA
ENDBRANCH   2  13
BRANCH   7  14
ATOM     14  O   UNL     1       7.677   5.256  18.705  0.00  0.00    +0.000 OA
ATOM     15  H   UNL     1       7.655   4.548  19.366  0.00  0.00    +0.000 HD
ENDBRANCH   7  14
ENDBRANCH   1   8
BRANCH   1  16
ATOM     16  N   UNL     1       3.232   5.244  18.858  0.00  0.00    +0.000 N 
ATOM     17  C   UNL     1       2.326   4.182  19.108  0.00  0.00    +0.000 C 
ATOM     18  O   UNL     1       1.097   4.348  19.105  0.00  0.00    +0.000 OA
BRANCH  16  19
ATOM     19  C   UNL     1       2.671   6.575  18.898  0.00  0.00    +0.000 A 
ATOM     20  C   UNL     1       2.617   7.363  17.742  0.00  0.00    +0.000 A 
ATOM     21  C   UNL     1       2.065   8.646  17.780  0.00  0.00    +0.000 A 
ATOM     22  C   UNL     1       1.550   9.157  18.971  0.00  0.00    +0.000 A 
ATOM     23  C   UNL     1       1.573   8.386  20.134  0.00  0.00    +0.000 A 
ATOM     24  C   UNL     1       0.987   8.897  21.418  0.00  0.00    +0.000 C 
ATOM     25  C   UNL     1       2.125   7.096  20.084  0.00  0.00    +0.000 A 
ENDBRANCH  16  19
BRANCH  17  26
ATOM     26  C   UNL     1       2.838   2.730  19.342  0.00  0.00    +0.000 C 
ATOM     27  C   UNL     1       4.063   2.734  20.263  0.00  0.00    +0.000 C 
ATOM     28  C   UNL     1       4.573   1.320  20.135  0.00  0.00    +0.000 C 
ATOM     29  C   UNL     1       4.251   0.981  18.698  0.00  0.00    +0.000 C 
ATOM     30  O   UNL     1       3.284   1.947  18.231  0.00  0.00    +0.000 OA
ENDBRANCH  17  26
ENDBRANCH   1  16
TORSDOF 6
ENDMDL
