MODEL 1
REMARK VINA RESULT:      -7.3      0.000      0.000
REMARK  Name = 
REMARK  3 active torsions:
REMARK  status: ('A' for Active; 'I' for Inactive)
REMARK    1  A    between atoms: N_7  and  C_8
REMARK    2  A    between atoms: C_8  and  C_9
REMARK    3  A    between atoms: C_9  and  N_10
REMARK                            x       y       z     vdW  Elec       q    Type
REMARK                         _______ _______ _______ _____ _____    ______ ____
ROOT
ATOM      1  N   UNL     1       3.055   4.568  18.426  0.00  0.00    +0.000 N 
ATOM      2  C   UNL     1       3.369   3.670  19.541  0.00  0.00    +0.000 C 
ATOM      3  C   UNL     1       2.193   3.630  20.500  0.00  0.00    +0.000 C 
ATOM      4  C   UNL     1       1.983   5.015  21.088  0.00  0.00    +0.000 C 
ATOM      5  C   UNL     1       2.083   6.103  20.047  0.00  0.00    +0.000 A 
ATOM      6  C   UNL     1       1.631   7.385  20.388  0.00  0.00    +0.000 A 
ATOM      7  F   UNL     1       1.081   7.600  21.593  0.00  0.00    +0.000 F 
ATOM      8  C   UNL     1       1.739   8.451  19.508  0.00  0.00    +0.000 A 
ATOM      9  C   UNL     1       2.332   8.244  18.272  0.00  0.00    +0.000 A 
ATOM     10  C   UNL     1       2.787   6.965  17.918  0.00  0.00    +0.000 A 
ATOM     11  C   UNL     1       2.664   5.861  18.779  0.00  0.00    +0.000 A 
ENDROOT
BRANCH   1  12
ATOM     12  C   UNL     1       3.527   4.191  17.085  0.00  0.00    +0.000 C 
BRANCH  12  13
ATOM     13  C   UNL     1       4.963   3.611  17.066  0.00  0.00    +0.000 C 
BRANCH  13  20
ATOM     14  O   UNL     1       8.321   4.078  17.713  0.00  0.00    +0.000 OA
ATOM     15  S   UNL     1       7.160   4.900  17.965  0.00  0.00    +0.000 S 
ATOM     16  O   UNL     1       6.467   4.902  19.234  0.00  0.00    +0.000 OA
ATOM     17  C   UNL     1       7.459   6.585  17.481  0.00  0.00    +0.000 C 
ATOM     18  C   UNL     1       6.098   7.043  16.986  0.00  0.00    +0.000 C 
ATOM     19  C   UNL     1       5.528   5.898  16.147  0.00  0.00    +0.000 C 
ATOM     20  N   UNL     1       6.005   4.620  16.735  0.00  0.00    +0.000 NA
ENDBRANCH  13  20
ENDBRANCH  12  13
ENDBRANCH   1  12
TORSDOF 3
ENDMDL
MODEL 2
REMARK VINA RESULT:      -7.3      1.413      1.956
REMARK  Name = 
REMARK  3 active torsions:
REMARK  status: ('A' for Active; 'I' for Inactive)
REMARK    1  A    between atoms: N_7  and  C_8
REMARK    2  A    between atoms: C_8  and  C_9
REMARK    3  A    between atoms: C_9  and  N_10
REMARK                            x       y       z     vdW  Elec       q    Type
REMARK                         _______ _______ _______ _____ _____    ______ ____
ROOT
ATOM      1  N   UNL     1       3.496   3.681  17.395  0.00  0.00    +0.000 N 
ATOM      2  C   UNL     1       3.706   2.256  17.667  0.00  0.00    +0.000 C 
ATOM      3  C   UNL     1       2.403   1.637  18.139  0.00  0.00    +0.000 C 
ATOM      4  C   UNL     1       1.992   2.286  19.451  0.00  0.00    +0.000 C 
ATOM      5  C   UNL     1       2.162   3.784  19.431  0.00  0.00    +0.000 A 
ATOM      6  C   UNL     1       1.560   4.531  20.452  0.00  0.00    +0.000 A 
ATOM      7  F   UNL     1       0.813   3.911  21.380  0.00  0.00    +0.000 F 
ATOM      8  C   UNL     1       1.715   5.906  20.536  0.00  0.00    +0.000 A 
ATOM      9  C   UNL     1       2.507   6.550  19.598  0.00  0.00    +0.000 A 
ATOM     10  C   UNL     1       3.115   5.815  18.570  0.00  0.00    +0.000 A 
ATOM     11  C   UNL     1       2.950   4.424  18.444  0.00  0.00    +0.000 A 
ENDROOT
BRANCH   1  12
ATOM     12  C   UNL     1       4.199   4.274  16.249  0.00  0.00    +0.000 C 
BRANCH  12  13
ATOM     13  C   UNL     1       5.672   3.815  16.111  0.00  0.00    +0.000 C 
BRANCH  13  20
ATOM     14  O   UNL     1       8.653   4.076  17.831  0.00  0.00    +0.000 OA
ATOM     15  S   UNL     1       7.391   4.766  17.965  0.00  0.00    +0.000 S 
ATOM     16  O   UNL     1       6.376   4.358  18.911  0.00  0.00    +0.000 OA
ATOM     17  C   UNL     1       7.641   6.519  18.126  0.00  0.00    +0.000 C 
ATOM     18  C   UNL     1       6.432   7.101  17.414  0.00  0.00    +0.000 C 
ATOM     19  C   UNL     1       6.236   6.280  16.138  0.00  0.00    +0.000 C 
ATOM     20  N   UNL     1       6.658   4.885  16.425  0.00  0.00    +0.000 NA
ENDBRANCH  13  20
ENDBRANCH  12  13
ENDBRANCH   1  12
TORSDOF 3
ENDMDL
MODEL 3
REMARK VINA RESULT:      -7.1      3.387      5.585
REMARK  Name = 
REMARK  3 active torsions:
REMARK  status: ('A' for Active; 'I' for Inactive)
REMARK    1  A    between atoms: N_7  and  C_8
REMARK    2  A    between atoms: C_8  and  C_9
REMARK    3  A    between atoms: C_9  and  N_10
REMARK                            x       y       z     vdW  Elec       q    Type
REMARK                         _______ _______ _______ _____ _____    ______ ____
ROOT
ATOM      1  N   UNL     1       4.734   4.256  18.504  0.00  0.00    +0.000 N 
ATOM      2  C   UNL     1       4.587   5.423  19.379  0.00  0.00    +0.000 C 
ATOM      3  C   UNL     1       3.642   6.419  18.733  0.00  0.00    +0.000 C 
ATOM      4  C   UNL     1       4.254   6.912  17.432  0.00  0.00    +0.000 C 
ATOM      5  C   UNL     1       4.856   5.794  16.619  0.00  0.00    +0.000 A 
ATOM      6  C   UNL     1       5.192   6.055  15.284  0.00  0.00    +0.000 A 
ATOM      7  F   UNL     1       4.926   7.259  14.753  0.00  0.00    +0.000 F 
ATOM      8  C   UNL     1       5.800   5.098  14.486  0.00  0.00    +0.000 A 
ATOM      9  C   UNL     1       6.103   3.861  15.035  0.00  0.00    +0.000 A 
ATOM     10  C   UNL     1       5.771   3.586  16.370  0.00  0.00    +0.000 A 
ATOM     11  C   UNL     1       5.128   4.528  17.192  0.00  0.00    +0.000 A 
ENDROOT
BRANCH   1  12
ATOM     12  C   UNL     1       4.838   2.932  19.133  0.00  0.00    +0.000 C 
BRANCH  12  13
ATOM     13  C   UNL     1       3.661   1.983  18.796  0.00  0.00    +0.000 C 
BRANCH  13  20
ATOM     14  O   UNL     1       0.233   1.910  18.406  0.00  0.00    +0.000 OA
ATOM     15  S   UNL     1       1.135   2.938  18.871  0.00  0.00    +0.000 S 
ATOM     16  O   UNL     1       1.651   3.973  18.004  0.00  0.00    +0.000 OA
ATOM     17  C   UNL     1       0.520   3.699  20.355  0.00  0.00    +0.000 C 
ATOM     18  C   UNL     1       1.789   4.018  21.126  0.00  0.00    +0.000 C 
ATOM     19  C   UNL     1       2.703   2.798  20.990  0.00  0.00    +0.000 C 
ATOM     20  N   UNL     1       2.463   2.196  19.653  0.00  0.00    +0.000 NA
ENDBRANCH  13  20
ENDBRANCH  12  13
ENDBRANCH   1  12
TORSDOF 3
ENDMDL
MODEL 4
REMARK VINA RESULT:      -7.0      1.322      1.644
REMARK  Name = 
REMARK  3 active torsions:
REMARK  status: ('A' for Active; 'I' for Inactive)
REMARK    1  A    between atoms: N_7  and  C_8
REMARK    2  A    between atoms: C_8  and  C_9
REMARK    3  A    between atoms: C_9  and  N_10
REMARK                            x       y       z     vdW  Elec       q    Type
REMARK                         _______ _______ _______ _____ _____    ______ ____
ROOT
ATOM      1  N   UNL     1       3.112   4.275  18.638  0.00  0.00    +0.000 N 
ATOM      2  C   UNL     1       3.257   3.439  19.834  0.00  0.00    +0.000 C 
ATOM      3  C   UNL     1       1.984   3.515  20.657  0.00  0.00    +0.000 C 
ATOM      4  C   UNL     1       1.786   4.944  21.134  0.00  0.00    +0.000 C 
ATOM      5  C   UNL     1       2.054   5.956  20.049  0.00  0.00    +0.000 A 
ATOM      6  C   UNL     1       1.637   7.277  20.260  0.00  0.00    +0.000 A 
ATOM      7  F   UNL     1       0.972   7.595  21.382  0.00  0.00    +0.000 F 
ATOM      8  C   UNL     1       1.895   8.278  19.336  0.00  0.00    +0.000 A 
ATOM      9  C   UNL     1       2.605   7.963  18.187  0.00  0.00    +0.000 A 
ATOM     10  C   UNL     1       3.027   6.645  17.963  0.00  0.00    +0.000 A 
ATOM     11  C   UNL     1       2.754   5.605  18.869  0.00  0.00    +0.000 A 
ENDROOT
BRANCH   1  12
ATOM     12  C   UNL     1       3.705   3.791  17.383  0.00  0.00    +0.000 C 
BRANCH  12  13
ATOM     13  C   UNL     1       5.252   3.862  17.353  0.00  0.00    +0.000 C 
BRANCH  13  20
ATOM     14  O   UNL     1       5.907   6.911  15.875  0.00  0.00    +0.000 OA
ATOM     15  S   UNL     1       6.744   5.983  16.600  0.00  0.00    +0.000 S 
ATOM     16  O   UNL     1       7.565   4.993  15.940  0.00  0.00    +0.000 OA
ATOM     17  C   UNL     1       7.743   6.834  17.801  0.00  0.00    +0.000 C 
ATOM     18  C   UNL     1       7.835   5.832  18.939  0.00  0.00    +0.000 C 
ATOM     19  C   UNL     1       6.437   5.236  19.113  0.00  0.00    +0.000 C 
ATOM     20  N   UNL     1       5.794   5.181  17.774  0.00  0.00    +0.000 NA
ENDBRANCH  13  20
ENDBRANCH  12  13
ENDBRANCH   1  12
TORSDOF 3
ENDMDL
MODEL 5
REMARK VINA RESULT:      -6.9      1.858      3.204
REMARK  Name = 
REMARK  3 active torsions:
REMARK  status: ('A' for Active; 'I' for Inactive)
REMARK    1  A    between atoms: N_7  and  C_8
REMARK    2  A    between atoms: C_8  and  C_9
REMARK    3  A    between atoms: C_9  and  N_10
REMARK                            x       y       z     vdW  Elec       q    Type
REMARK                         _______ _______ _______ _____ _____    ______ ____
ROOT
ATOM      1  N   UNL     1       2.724   6.344  18.390  0.00  0.00    +0.000 N 
ATOM      2  C   UNL     1       2.006   7.302  19.237  0.00  0.00    +0.000 C 
ATOM      3  C   UNL     1       2.087   6.851  20.684  0.00  0.00    +0.000 C 
ATOM      4  C   UNL     1       1.381   5.513  20.827  0.00  0.00    +0.000 C 
ATOM      5  C   UNL     1       1.723   4.559  19.710  0.00  0.00    +0.000 A 
ATOM      6  C   UNL     1       1.379   3.209  19.866  0.00  0.00    +0.000 A 
ATOM      7  F   UNL     1       0.809   2.794  21.008  0.00  0.00    +0.000 F 
ATOM      8  C   UNL     1       1.609   2.279  18.864  0.00  0.00    +0.000 A 
ATOM      9  C   UNL     1       2.172   2.706  17.670  0.00  0.00    +0.000 A 
ATOM     10  C   UNL     1       2.523   4.053  17.502  0.00  0.00    +0.000 A 
ATOM     11  C   UNL     1       2.327   5.010  18.512  0.00  0.00    +0.000 A 
ENDROOT
BRANCH   1  12
ATOM     12  C   UNL     1       3.489   6.871  17.251  0.00  0.00    +0.000 C 
BRANCH  12  13
ATOM     13  C   UNL     1       5.006   7.016  17.527  0.00  0.00    +0.000 C 
BRANCH  13  20
ATOM     14  O   UNL     1       6.925   5.416  19.909  0.00  0.00    +0.000 OA
ATOM     15  S   UNL     1       7.182   5.771  18.532  0.00  0.00    +0.000 S 
ATOM     16  O   UNL     1       7.875   6.983  18.156  0.00  0.00    +0.000 OA
ATOM     17  C   UNL     1       7.909   4.408  17.651  0.00  0.00    +0.000 C 
ATOM     18  C   UNL     1       7.336   4.562  16.253  0.00  0.00    +0.000 C 
ATOM     19  C   UNL     1       5.855   4.906  16.421  0.00  0.00    +0.000 C 
ATOM     20  N   UNL     1       5.712   5.713  17.661  0.00  0.00    +0.000 NA
ENDBRANCH  13  20
ENDBRANCH  12  13
ENDBRANCH   1  12
TORSDOF 3
ENDMDL
MODEL 6
REMARK VINA RESULT:      -6.9      1.624      3.012
REMARK  Name = 
REMARK  3 active torsions:
REMARK  status: ('A' for Active; 'I' for Inactive)
REMARK    1  A    between atoms: N_7  and  C_8
REMARK    2  A    between atoms: C_8  and  C_9
REMARK    3  A    between atoms: C_9  and  N_10
REMARK                            x       y       z     vdW  Elec       q    Type
REMARK                         _______ _______ _______ _____ _____    ______ ____
ROOT
ATOM      1  N   UNL     1       3.924   5.236  17.414  0.00  0.00    +0.000 N 
ATOM      2  C   UNL     1       3.535   6.639  17.589  0.00  0.00    +0.000 C 
ATOM      3  C   UNL     1       3.267   6.905  19.060  0.00  0.00    +0.000 C 
ATOM      4  C   UNL     1       2.090   6.056  19.511  0.00  0.00    +0.000 C 
ATOM      5  C   UNL     1       2.168   4.641  18.993  0.00  0.00    +0.000 A 
ATOM      6  C   UNL     1       1.317   3.683  19.560  0.00  0.00    +0.000 A 
ATOM      7  F   UNL     1       0.502   4.028  20.569  0.00  0.00    +0.000 F 
ATOM      8  C   UNL     1       1.288   2.375  19.102  0.00  0.00    +0.000 A 
ATOM      9  C   UNL     1       2.107   2.017  18.041  0.00  0.00    +0.000 A 
ATOM     10  C   UNL     1       2.965   2.966  17.467  0.00  0.00    +0.000 A 
ATOM     11  C   UNL     1       3.035   4.291  17.930  0.00  0.00    +0.000 A 
ENDROOT
BRANCH   1  12
ATOM     12  C   UNL     1       4.960   4.929  16.417  0.00  0.00    +0.000 C 
BRANCH  12  13
ATOM     13  C   UNL     1       6.244   4.306  17.018  0.00  0.00    +0.000 C 
BRANCH  13  20
ATOM     14  O   UNL     1       8.746   4.780  19.348  0.00  0.00    +0.000 OA
ATOM     15  S   UNL     1       7.647   5.614  18.920  0.00  0.00    +0.000 S 
ATOM     16  O   UNL     1       6.383   5.660  19.621  0.00  0.00    +0.000 OA
ATOM     17  C   UNL     1       8.192   7.281  18.629  0.00  0.00    +0.000 C 
ATOM     18  C   UNL     1       7.316   7.729  17.472  0.00  0.00    +0.000 C 
ATOM     19  C   UNL     1       7.260   6.560  16.487  0.00  0.00    +0.000 C 
ATOM     20  N   UNL     1       7.322   5.299  17.271  0.00  0.00    +0.000 NA
ENDBRANCH  13  20
ENDBRANCH  12  13
ENDBRANCH   1  12
TORSDOF 3
ENDMDL
MODEL 7
REMARK VINA RESULT:      -6.8      2.096      3.558
REMARK  Name = 
REMARK  3 active torsions:
REMARK  status: ('A' for Active; 'I' for Inactive)
REMARK    1  A    between atoms: N_7  and  C_8
REMARK    2  A    between atoms: C_8  and  C_9
REMARK    3  A    between atoms: C_9  and  N_10
REMARK                            x       y       z     vdW  Elec       q    Type
REMARK                         _______ _______ _______ _____ _____    ______ ____
ROOT
ATOM      1  N   UNL     1       3.725   5.281  19.549  0.00  0.00    +0.000 N 
ATOM      2  C   UNL     1       2.800   6.413  19.663  0.00  0.00    +0.000 C 
ATOM      3  C   UNL     1       1.735   6.088  20.694  0.00  0.00    +0.000 C 
ATOM      4  C   UNL     1       0.924   4.897  20.212  0.00  0.00    +0.000 C 
ATOM      5  C   UNL     1       1.792   3.803  19.642  0.00  0.00    +0.000 A 
ATOM      6  C   UNL     1       1.213   2.545  19.429  0.00  0.00    +0.000 A 
ATOM      7  F   UNL     1      -0.064   2.330  19.781  0.00  0.00    +0.000 F 
ATOM      8  C   UNL     1       1.927   1.503  18.857  0.00  0.00    +0.000 A 
ATOM      9  C   UNL     1       3.239   1.725  18.464  0.00  0.00    +0.000 A 
ATOM     10  C   UNL     1       3.830   2.979  18.673  0.00  0.00    +0.000 A 
ATOM     11  C   UNL     1       3.138   4.044  19.277  0.00  0.00    +0.000 A 
ENDROOT
BRANCH   1  12
ATOM     12  C   UNL     1       5.151   5.575  19.345  0.00  0.00    +0.000 C 
BRANCH  12  13
ATOM     13  C   UNL     1       5.481   6.137  17.940  0.00  0.00    +0.000 C 
BRANCH  13  20
ATOM     14  O   UNL     1       8.186   4.170  17.090  0.00  0.00    +0.000 OA
ATOM     15  S   UNL     1       7.386   5.102  16.330  0.00  0.00    +0.000 S 
ATOM     16  O   UNL     1       7.771   6.481  16.133  0.00  0.00    +0.000 OA
ATOM     17  C   UNL     1       6.935   4.412  14.754  0.00  0.00    +0.000 C 
ATOM     18  C   UNL     1       5.552   4.992  14.512  0.00  0.00    +0.000 C 
ATOM     19  C   UNL     1       4.800   4.903  15.841  0.00  0.00    +0.000 C 
ATOM     20  N   UNL     1       5.787   5.082  16.937  0.00  0.00    +0.000 NA
ENDBRANCH  13  20
ENDBRANCH  12  13
ENDBRANCH   1  12
TORSDOF 3
ENDMDL
MODEL 8
REMARK VINA RESULT:      -6.7      1.686      2.043
REMARK  Name = 
REMARK  3 active torsions:
REMARK  status: ('A' for Active; 'I' for Inactive)
REMARK    1  A    between atoms: N_7  and  C_8
REMARK    2  A    between atoms: C_8  and  C_9
REMARK    3  A    between atoms: C_9  and  N_10
REMARK                            x       y       z     vdW  Elec       q    Type
REMARK                         _______ _______ _______ _____ _____    ______ ____
ROOT
ATOM      1  N   UNL     1       2.861   6.197  18.812  0.00  0.00    +0.000 N 
ATOM      2  C   UNL     1       2.990   5.540  20.116  0.00  0.00    +0.000 C 
ATOM      3  C   UNL     1       1.653   5.583  20.834  0.00  0.00    +0.000 C 
ATOM      4  C   UNL     1       1.277   7.032  21.099  0.00  0.00    +0.000 C 
ATOM      5  C   UNL     1       1.533   7.919  19.906  0.00  0.00    +0.000 A 
ATOM      6  C   UNL     1       0.972   9.204  19.908  0.00  0.00    +0.000 A 
ATOM      7  F   UNL     1       0.190   9.589  20.929  0.00  0.00    +0.000 F 
ATOM      8  C   UNL     1       1.204  10.100  18.876  0.00  0.00    +0.000 A 
ATOM      9  C   UNL     1       2.033   9.720  17.831  0.00  0.00    +0.000 A 
ATOM     10  C   UNL     1       2.599   8.437  17.817  0.00  0.00    +0.000 A 
ATOM     11  C   UNL     1       2.357   7.499  18.835  0.00  0.00    +0.000 A 
ENDROOT
BRANCH   1  12
ATOM     12  C   UNL     1       3.598   5.623  17.677  0.00  0.00    +0.000 C 
BRANCH  12  13
ATOM     13  C   UNL     1       4.956   4.989  18.067  0.00  0.00    +0.000 C 
BRANCH  13  20
ATOM     14  O   UNL     1       8.209   4.223  17.204  0.00  0.00    +0.000 OA
ATOM     15  S   UNL     1       7.184   4.995  16.540  0.00  0.00    +0.000 S 
ATOM     16  O   UNL     1       7.091   6.433  16.658  0.00  0.00    +0.000 OA
ATOM     17  C   UNL     1       7.079   4.561  14.819  0.00  0.00    +0.000 C 
ATOM     18  C   UNL     1       5.597   4.710  14.520  0.00  0.00    +0.000 C 
ATOM     19  C   UNL     1       4.847   4.096  15.704  0.00  0.00    +0.000 C 
ATOM     20  N   UNL     1       5.655   4.335  16.928  0.00  0.00    +0.000 NA
ENDBRANCH  13  20
ENDBRANCH  12  13
ENDBRANCH   1  12
TORSDOF 3
ENDMDL
MODEL 9
REMARK VINA RESULT:      -6.6      4.610      6.921
REMARK  Name = 
REMARK  3 active torsions:
REMARK  status: ('A' for Active; 'I' for Inactive)
REMARK    1  A    between atoms: N_7  and  C_8
REMARK    2  A    between atoms: C_8  and  C_9
REMARK    3  A    between atoms: C_9  and  N_10
REMARK                            x       y       z     vdW  Elec       q    Type
REMARK                         _______ _______ _______ _____ _____    ______ ____
ROOT
ATOM      1  N   UNL     1       2.294   6.490  19.694  0.00  0.00    +0.000 N 
ATOM      2  C   UNL     1       3.528   6.921  19.030  0.00  0.00    +0.000 C 
ATOM      3  C   UNL     1       3.491   6.492  17.575  0.00  0.00    +0.000 C 
ATOM      4  C   UNL     1       3.454   4.974  17.505  0.00  0.00    +0.000 C 
ATOM      5  C   UNL     1       2.493   4.376  18.502  0.00  0.00    +0.000 A 
ATOM      6  C   UNL     1       2.145   3.026  18.355  0.00  0.00    +0.000 A 
ATOM      7  F   UNL     1       2.625   2.323  17.317  0.00  0.00    +0.000 F 
ATOM      8  C   UNL     1       1.312   2.387  19.260  0.00  0.00    +0.000 A 
ATOM      9  C   UNL     1       0.834   3.099  20.350  0.00  0.00    +0.000 A 
ATOM     10  C   UNL     1       1.173   4.451  20.508  0.00  0.00    +0.000 A 
ATOM     11  C   UNL     1       1.992   5.131  19.590  0.00  0.00    +0.000 A 
ENDROOT
BRANCH   1  12
ATOM     12  C   UNL     1       1.704   7.387  20.698  0.00  0.00    +0.000 C 
BRANCH  12  13
ATOM     13  C   UNL     1       1.242   8.750  20.127  0.00  0.00    +0.000 C 
BRANCH  13  20
ATOM     14  O   UNL     1      -0.722  11.578  19.886  0.00  0.00    +0.000 OA
ATOM     15  S   UNL     1       0.047  11.020  20.974  0.00  0.00    +0.000 S 
ATOM     16  O   UNL     1       1.394  11.449  21.278  0.00  0.00    +0.000 OA
ATOM     17  C   UNL     1      -0.897  11.015  22.481  0.00  0.00    +0.000 C 
ATOM     18  C   UNL     1      -0.418   9.754  23.179  0.00  0.00    +0.000 C 
ATOM     19  C   UNL     1      -0.330   8.666  22.107  0.00  0.00    +0.000 C 
ATOM     20  N   UNL     1       0.058   9.316  20.828  0.00  0.00    +0.000 NA
ENDBRANCH  13  20
ENDBRANCH  12  13
ENDBRANCH   1  12
TORSDOF 3
ENDMDL
