MODEL 1
REMARK VINA RESULT:      -7.0      0.000      0.000
REMARK  Name = 
REMARK  6 active torsions:
REMARK  status: ('A' for Active; 'I' for Inactive)
REMARK    1  A    between atoms: C_1  and  C_2
REMARK    2  A    between atoms: C_2  and  N_3
REMARK    3  A    between atoms: C_4  and  C_6
REMARK    4  A    between atoms: C_8  and  C_9
REMARK    5  A    between atoms: N_12  and  C_13
REMARK    6  A    between atoms: C_13  and  C_14
REMARK                            x       y       z     vdW  Elec       q    Type
REMARK                         _______ _______ _______ _____ _____    ______ ____
ROOT
ATOM      1  C   UNL     1       6.768   5.067  15.741  0.00  0.00    +0.000 A 
ATOM      2  N   UNL     1       7.389   6.167  16.172  0.00  0.00    +0.000 NA
ATOM      3  C   UNL     1       7.274   6.377  17.474  0.00  0.00    +0.000 A 
ATOM      4  C   UNL     1       7.963   7.572  18.052  0.00  0.00    +0.000 C 
ATOM      5  N   UNL     1       6.595   5.585  18.307  0.00  0.00    +0.000 NA
ATOM      6  C   UNL     1       6.022   4.511  17.772  0.00  0.00    +0.000 A 
ATOM      7  N   UNL     1       5.366   3.689  18.675  0.00  0.00    +0.000 N 
ATOM      8  N   UNL     1       6.072   4.198  16.486  0.00  0.00    +0.000 NA
ATOM      9  H   UNL     1       5.226   4.236  19.520  0.00  0.00    +0.000 HD
ENDROOT
BRANCH   1  11
ATOM     10  N   UNL     1       6.107   3.700  13.811  0.00  0.00    +0.000 N 
ATOM     11  C   UNL     1       6.870   4.770  14.263  0.00  0.00    +0.000 C 
ATOM     12  O   UNL     1       7.587   5.431  13.519  0.00  0.00    +0.000 OA
ATOM     13  H   UNL     1       5.678   3.117  14.523  0.00  0.00    +0.000 HD
BRANCH  10  15
ATOM     14  C   UNL     1       4.861   3.223  11.753  0.00  0.00    +0.000 C 
ATOM     15  C   UNL     1       6.209   3.224  12.447  0.00  0.00    +0.000 C 
ENDBRANCH  10  15
ENDBRANCH   1  11
BRANCH   7  16
ATOM     16  C   UNL     1       4.198   2.990  18.176  0.00  0.00    +0.000 C 
ATOM     17  C   UNL     1       3.012   3.942  18.164  0.00  0.00    +0.000 C 
ENDBRANCH   7  16
TORSDOF 3
ENDMDL
MODEL 2
REMARK VINA RESULT:      -7.0      1.080      1.147
REMARK  Name = 
REMARK  6 active torsions:
REMARK  status: ('A' for Active; 'I' for Inactive)
REMARK    1  A    between atoms: C_1  and  C_2
REMARK    2  A    between atoms: C_2  and  N_3
REMARK    3  A    between atoms: C_4  and  C_6
REMARK    4  A    between atoms: C_8  and  C_9
REMARK    5  A    between atoms: N_12  and  C_13
REMARK    6  A    between atoms: C_13  and  C_14
REMARK                            x       y       z     vdW  Elec       q    Type
REMARK                         _______ _______ _______ _____ _____    ______ ____
ROOT
ATOM      1  C   UNL     1       6.504   4.585  16.187  0.00  0.00    +0.000 A 
ATOM      2  N   UNL     1       7.384   5.172  17.001  0.00  0.00    +0.000 NA
ATOM      3  C   UNL     1       7.053   5.121  18.282  0.00  0.00    +0.000 A 
ATOM      4  C   UNL     1       7.995   5.728  19.272  0.00  0.00    +0.000 C 
ATOM      5  N   UNL     1       5.940   4.551  18.749  0.00  0.00    +0.000 NA
ATOM      6  C   UNL     1       5.138   3.988  17.850  0.00  0.00    +0.000 A 
ATOM      7  N   UNL     1       4.016   3.366  18.377  0.00  0.00    +0.000 N 
ATOM      8  N   UNL     1       5.367   3.975  16.546  0.00  0.00    +0.000 NA
ATOM      9  H   UNL     1       3.904   3.720  19.323  0.00  0.00    +0.000 HD
ENDROOT
BRANCH   1  11
ATOM     10  N   UNL     1       6.134   3.694  13.929  0.00  0.00    +0.000 N 
ATOM     11  C   UNL     1       6.832   4.605  14.712  0.00  0.00    +0.000 C 
ATOM     12  O   UNL     1       7.667   5.374  14.245  0.00  0.00    +0.000 OA
ATOM     13  H   UNL     1       5.590   2.994  14.424  0.00  0.00    +0.000 HD
BRANCH  10  15
ATOM     14  C   UNL     1       5.217   3.097  11.734  0.00  0.00    +0.000 C 
ATOM     15  C   UNL     1       6.442   3.514  12.525  0.00  0.00    +0.000 C 
ENDBRANCH  10  15
ENDBRANCH   1  11
BRANCH   7  16
ATOM     16  C   UNL     1       2.824   3.386  17.552  0.00  0.00    +0.000 C 
ATOM     17  C   UNL     1       1.927   4.533  17.993  0.00  0.00    +0.000 C 
ENDBRANCH   7  16
TORSDOF 3
ENDMDL
MODEL 3
REMARK VINA RESULT:      -6.5      2.166      4.722
REMARK  Name = 
REMARK  6 active torsions:
REMARK  status: ('A' for Active; 'I' for Inactive)
REMARK    1  A    between atoms: C_1  and  C_2
REMARK    2  A    between atoms: C_2  and  N_3
REMARK    3  A    between atoms: C_4  and  C_6
REMARK    4  A    between atoms: C_8  and  C_9
REMARK    5  A    between atoms: N_12  and  C_13
REMARK    6  A    between atoms: C_13  and  C_14
REMARK                            x       y       z     vdW  Elec       q    Type
REMARK                         _______ _______ _______ _____ _____    ______ ____
ROOT
ATOM      1  C   UNL     1       5.793   5.278  18.045  0.00  0.00    +0.000 A 
ATOM      2  N   UNL     1       6.561   6.260  18.522  0.00  0.00    +0.000 NA
ATOM      3  C   UNL     1       7.312   6.851  17.606  0.00  0.00    +0.000 A 
ATOM      4  C   UNL     1       8.184   7.985  18.044  0.00  0.00    +0.000 C 
ATOM      5  N   UNL     1       7.333   6.512  16.316  0.00  0.00    +0.000 NA
ATOM      6  C   UNL     1       6.521   5.524  15.948  0.00  0.00    +0.000 A 
ATOM      7  N   UNL     1       6.536   5.231  14.593  0.00  0.00    +0.000 N 
ATOM      8  N   UNL     1       5.724   4.863  16.774  0.00  0.00    +0.000 NA
ATOM      9  H   UNL     1       7.378   5.652  14.212  0.00  0.00    +0.000 HD
ENDROOT
BRANCH   1  11
ATOM     10  N   UNL     1       5.096   3.197  19.148  0.00  0.00    +0.000 N 
ATOM     11  C   UNL     1       4.907   4.570  19.043  0.00  0.00    +0.000 C 
ATOM     12  O   UNL     1       4.073   5.174  19.710  0.00  0.00    +0.000 OA
ATOM     13  H   UNL     1       5.689   2.767  18.444  0.00  0.00    +0.000 HD
BRANCH  10  15
ATOM     14  C   UNL     1       3.002   1.922  19.199  0.00  0.00    +0.000 C 
ATOM     15  C   UNL     1       4.229   2.376  19.966  0.00  0.00    +0.000 C 
ENDBRANCH  10  15
ENDBRANCH   1  11
BRANCH   7  16
ATOM     16  C   UNL     1       6.306   3.845  14.233  0.00  0.00    +0.000 C 
ATOM     17  C   UNL     1       6.323   3.711  12.718  0.00  0.00    +0.000 C 
ENDBRANCH   7  16
TORSDOF 3
ENDMDL
MODEL 4
REMARK VINA RESULT:      -6.3      2.089      4.723
REMARK  Name = 
REMARK  6 active torsions:
REMARK  status: ('A' for Active; 'I' for Inactive)
REMARK    1  A    between atoms: C_1  and  C_2
REMARK    2  A    between atoms: C_2  and  N_3
REMARK    3  A    between atoms: C_4  and  C_6
REMARK    4  A    between atoms: C_8  and  C_9
REMARK    5  A    between atoms: N_12  and  C_13
REMARK    6  A    between atoms: C_13  and  C_14
REMARK                            x       y       z     vdW  Elec       q    Type
REMARK                         _______ _______ _______ _____ _____    ______ ____
ROOT
ATOM      1  C   UNL     1       5.698   4.814  17.860  0.00  0.00    +0.000 A 
ATOM      2  N   UNL     1       6.464   5.722  18.469  0.00  0.00    +0.000 NA
ATOM      3  C   UNL     1       7.242   6.410  17.648  0.00  0.00    +0.000 A 
ATOM      4  C   UNL     1       8.115   7.471  18.239  0.00  0.00    +0.000 C 
ATOM      5  N   UNL     1       7.288   6.229  16.327  0.00  0.00    +0.000 NA
ATOM      6  C   UNL     1       6.475   5.305  15.824  0.00  0.00    +0.000 A 
ATOM      7  N   UNL     1       6.518   5.178  14.444  0.00  0.00    +0.000 N 
ATOM      8  N   UNL     1       5.654   4.558  16.546  0.00  0.00    +0.000 NA
ATOM      9  H   UNL     1       7.373   5.631  14.136  0.00  0.00    +0.000 HD
ENDROOT
BRANCH   1  11
ATOM     10  N   UNL     1       3.425   4.112  18.469  0.00  0.00    +0.000 N 
ATOM     11  C   UNL     1       4.782   4.001  18.745  0.00  0.00    +0.000 C 
ATOM     12  O   UNL     1       5.216   3.296  19.651  0.00  0.00    +0.000 OA
ATOM     13  H   UNL     1       3.154   4.840  17.814  0.00  0.00    +0.000 HD
BRANCH  10  15
ATOM     14  C   UNL     1       1.990   2.148  18.775  0.00  0.00    +0.000 C 
ATOM     15  C   UNL     1       2.429   3.494  19.319  0.00  0.00    +0.000 C 
ENDBRANCH  10  15
ENDBRANCH   1  11
BRANCH   7  16
ATOM     16  C   UNL     1       6.283   3.849  13.914  0.00  0.00    +0.000 C 
ATOM     17  C   UNL     1       6.621   3.834  12.431  0.00  0.00    +0.000 C 
ENDBRANCH   7  16
TORSDOF 3
ENDMDL
MODEL 5
REMARK VINA RESULT:      -6.3      1.997      5.130
REMARK  Name = 
REMARK  6 active torsions:
REMARK  status: ('A' for Active; 'I' for Inactive)
REMARK    1  A    between atoms: C_1  and  C_2
REMARK    2  A    between atoms: C_2  and  N_3
REMARK    3  A    between atoms: C_4  and  C_6
REMARK    4  A    between atoms: C_8  and  C_9
REMARK    5  A    between atoms: N_12  and  C_13
REMARK    6  A    between atoms: C_13  and  C_14
REMARK                            x       y       z     vdW  Elec       q    Type
REMARK                         _______ _______ _______ _____ _____    ______ ____
ROOT
ATOM      1  C   UNL     1       5.267   4.195  16.424  0.00  0.00    +0.000 A 
ATOM      2  N   UNL     1       5.401   3.737  15.177  0.00  0.00    +0.000 NA
ATOM      3  C   UNL     1       6.346   4.346  14.477  0.00  0.00    +0.000 A 
ATOM      4  C   UNL     1       6.588   3.878  13.077  0.00  0.00    +0.000 C 
ATOM      5  N   UNL     1       7.105   5.339  14.942  0.00  0.00    +0.000 NA
ATOM      6  C   UNL     1       6.893   5.711  16.202  0.00  0.00    +0.000 A 
ATOM      7  N   UNL     1       7.732   6.713  16.664  0.00  0.00    +0.000 N 
ATOM      8  N   UNL     1       5.979   5.174  16.997  0.00  0.00    +0.000 NA
ATOM      9  H   UNL     1       8.148   7.146  15.845  0.00  0.00    +0.000 HD
ENDROOT
BRANCH   1  11
ATOM     10  N   UNL     1       4.661   2.949  18.452  0.00  0.00    +0.000 N 
ATOM     11  C   UNL     1       4.208   3.534  17.275  0.00  0.00    +0.000 C 
ATOM     12  O   UNL     1       3.028   3.512  16.939  0.00  0.00    +0.000 OA
ATOM     13  H   UNL     1       5.668   2.875  18.562  0.00  0.00    +0.000 HD
BRANCH  10  15
ATOM     14  C   UNL     1       3.181   3.012  20.405  0.00  0.00    +0.000 C 
ATOM     15  C   UNL     1       3.779   2.170  19.295  0.00  0.00    +0.000 C 
ENDBRANCH  10  15
ENDBRANCH   1  11
BRANCH   7  16
ATOM     16  C   UNL     1       7.166   7.625  17.639  0.00  0.00    +0.000 C 
ATOM     17  C   UNL     1       8.138   8.770  17.878  0.00  0.00    +0.000 C 
ENDBRANCH   7  16
TORSDOF 3
ENDMDL
MODEL 6
REMARK VINA RESULT:      -6.3      2.261      5.197
REMARK  Name = 
REMARK  6 active torsions:
REMARK  status: ('A' for Active; 'I' for Inactive)
REMARK    1  A    between atoms: C_1  and  C_2
REMARK    2  A    between atoms: C_2  and  N_3
REMARK    3  A    between atoms: C_4  and  C_6
REMARK    4  A    between atoms: C_8  and  C_9
REMARK    5  A    between atoms: N_12  and  C_13
REMARK    6  A    between atoms: C_13  and  C_14
REMARK                            x       y       z     vdW  Elec       q    Type
REMARK                         _______ _______ _______ _____ _____    ______ ____
ROOT
ATOM      1  C   UNL     1       5.602   4.701  17.480  0.00  0.00    +0.000 A 
ATOM      2  N   UNL     1       5.569   4.033  16.325  0.00  0.00    +0.000 NA
ATOM      3  C   UNL     1       6.327   4.558  15.376  0.00  0.00    +0.000 A 
ATOM      4  C   UNL     1       6.375   3.860  14.053  0.00  0.00    +0.000 C 
ATOM      5  N   UNL     1       7.063   5.662  15.525  0.00  0.00    +0.000 NA
ATOM      6  C   UNL     1       7.029   6.242  16.721  0.00  0.00    +0.000 A 
ATOM      7  N   UNL     1       7.842   7.358  16.851  0.00  0.00    +0.000 N 
ATOM      8  N   UNL     1       6.310   5.806  17.744  0.00  0.00    +0.000 NA
ATOM      9  H   UNL     1       8.077   7.659  15.910  0.00  0.00    +0.000 HD
ENDROOT
BRANCH   1  11
ATOM     10  N   UNL     1       4.436   2.797  18.503  0.00  0.00    +0.000 N 
ATOM     11  C   UNL     1       4.761   4.144  18.605  0.00  0.00    +0.000 C 
ATOM     12  O   UNL     1       4.387   4.844  19.542  0.00  0.00    +0.000 OA
ATOM     13  H   UNL     1       4.649   2.345  17.619  0.00  0.00    +0.000 HD
BRANCH  10  15
ATOM     14  C   UNL     1       2.114   2.116  18.898  0.00  0.00    +0.000 C 
ATOM     15  C   UNL     1       3.529   2.166  19.440  0.00  0.00    +0.000 C 
ENDBRANCH  10  15
ENDBRANCH   1  11
BRANCH   7  16
ATOM     16  C   UNL     1       7.367   8.397  17.744  0.00  0.00    +0.000 C 
ATOM     17  C   UNL     1       8.537   9.277  18.157  0.00  0.00    +0.000 C 
ENDBRANCH   7  16
TORSDOF 3
ENDMDL
MODEL 7
REMARK VINA RESULT:      -6.2      2.268      4.622
REMARK  Name = 
REMARK  6 active torsions:
REMARK  status: ('A' for Active; 'I' for Inactive)
REMARK    1  A    between atoms: C_1  and  C_2
REMARK    2  A    between atoms: C_2  and  N_3
REMARK    3  A    between atoms: C_4  and  C_6
REMARK    4  A    between atoms: C_8  and  C_9
REMARK    5  A    between atoms: N_12  and  C_13
REMARK    6  A    between atoms: C_13  and  C_14
REMARK                            x       y       z     vdW  Elec       q    Type
REMARK                         _______ _______ _______ _____ _____    ______ ____
ROOT
ATOM      1  C   UNL     1       4.909   5.782  17.135  0.00  0.00    +0.000 A 
ATOM      2  N   UNL     1       5.765   6.459  17.903  0.00  0.00    +0.000 NA
ATOM      3  C   UNL     1       6.971   6.597  17.376  0.00  0.00    +0.000 A 
ATOM      4  C   UNL     1       7.989   7.369  18.155  0.00  0.00    +0.000 C 
ATOM      5  N   UNL     1       7.335   6.106  16.190  0.00  0.00    +0.000 NA
ATOM      6  C   UNL     1       6.400   5.455  15.504  0.00  0.00    +0.000 A 
ATOM      7  N   UNL     1       6.802   5.000  14.257  0.00  0.00    +0.000 N 
ATOM      8  N   UNL     1       5.161   5.257  15.928  0.00  0.00    +0.000 NA
ATOM      9  H   UNL     1       7.817   5.019  14.253  0.00  0.00    +0.000 HD
ENDROOT
BRANCH   1  11
ATOM     10  N   UNL     1       2.972   4.326  17.534  0.00  0.00    +0.000 N 
ATOM     11  C   UNL     1       3.512   5.598  17.680  0.00  0.00    +0.000 C 
ATOM     12  O   UNL     1       2.899   6.518  18.212  0.00  0.00    +0.000 OA
ATOM     13  H   UNL     1       3.486   3.681  16.941  0.00  0.00    +0.000 HD
BRANCH  10  15
ATOM     14  C   UNL     1       1.446   2.649  18.468  0.00  0.00    +0.000 C 
ATOM     15  C   UNL     1       1.598   4.043  17.893  0.00  0.00    +0.000 C 
ENDBRANCH  10  15
ENDBRANCH   1  11
BRANCH   7  16
ATOM     16  C   UNL     1       6.193   3.767  13.798  0.00  0.00    +0.000 C 
ATOM     17  C   UNL     1       6.448   3.607  12.306  0.00  0.00    +0.000 C 
ENDBRANCH   7  16
TORSDOF 3
ENDMDL
MODEL 8
REMARK VINA RESULT:      -6.2      4.070      7.083
REMARK  Name = 
REMARK  6 active torsions:
REMARK  status: ('A' for Active; 'I' for Inactive)
REMARK    1  A    between atoms: C_1  and  C_2
REMARK    2  A    between atoms: C_2  and  N_3
REMARK    3  A    between atoms: C_4  and  C_6
REMARK    4  A    between atoms: C_8  and  C_9
REMARK    5  A    between atoms: N_12  and  C_13
REMARK    6  A    between atoms: C_13  and  C_14
REMARK                            x       y       z     vdW  Elec       q    Type
REMARK                         _______ _______ _______ _____ _____    ______ ____
ROOT
ATOM      1  C   UNL     1       2.792   5.642  19.912  0.00  0.00    +0.000 A 
ATOM      2  N   UNL     1       2.055   4.783  20.619  0.00  0.00    +0.000 NA
ATOM      3  C   UNL     1       2.556   3.558  20.673  0.00  0.00    +0.000 A 
ATOM      4  C   UNL     1       1.812   2.533  21.469  0.00  0.00    +0.000 C 
ATOM      5  N   UNL     1       3.688   3.182  20.075  0.00  0.00    +0.000 NA
ATOM      6  C   UNL     1       4.348   4.122  19.404  0.00  0.00    +0.000 A 
ATOM      7  N   UNL     1       5.542   3.704  18.837  0.00  0.00    +0.000 N 
ATOM      8  N   UNL     1       3.945   5.378  19.284  0.00  0.00    +0.000 NA
ATOM      9  H   UNL     1       5.518   2.689  18.820  0.00  0.00    +0.000 HD
ENDROOT
BRANCH   1  11
ATOM     10  N   UNL     1       1.746   7.582  20.995  0.00  0.00    +0.000 N 
ATOM     11  C   UNL     1       2.274   7.058  19.821  0.00  0.00    +0.000 C 
ATOM     12  O   UNL     1       2.315   7.696  18.773  0.00  0.00    +0.000 OA
ATOM     13  H   UNL     1       1.607   6.929  21.759  0.00  0.00    +0.000 HD
BRANCH  10  15
ATOM     14  C   UNL     1      -0.249   8.813  21.714  0.00  0.00    +0.000 C 
ATOM     15  C   UNL     1       1.097   8.876  21.018  0.00  0.00    +0.000 C 
ENDBRANCH  10  15
ENDBRANCH   1  11
BRANCH   7  16
ATOM     16  C   UNL     1       5.920   4.346  17.592  0.00  0.00    +0.000 C 
ATOM     17  C   UNL     1       7.406   4.671  17.626  0.00  0.00    +0.000 C 
ENDBRANCH   7  16
TORSDOF 3
ENDMDL
MODEL 9
REMARK VINA RESULT:      -6.2      3.101      4.049
REMARK  Name = 
REMARK  6 active torsions:
REMARK  status: ('A' for Active; 'I' for Inactive)
REMARK    1  A    between atoms: C_1  and  C_2
REMARK    2  A    between atoms: C_2  and  N_3
REMARK    3  A    between atoms: C_4  and  C_6
REMARK    4  A    between atoms: C_8  and  C_9
REMARK    5  A    between atoms: N_12  and  C_13
REMARK    6  A    between atoms: C_13  and  C_14
REMARK                            x       y       z     vdW  Elec       q    Type
REMARK                         _______ _______ _______ _____ _____    ______ ____
ROOT
ATOM      1  C   UNL     1       4.420   5.673  18.341  0.00  0.00    +0.000 A 
ATOM      2  N   UNL     1       3.949   6.770  17.744  0.00  0.00    +0.000 NA
ATOM      3  C   UNL     1       2.889   7.295  18.339  0.00  0.00    +0.000 A 
ATOM      4  C   UNL     1       2.309   8.545  17.755  0.00  0.00    +0.000 C 
ATOM      5  N   UNL     1       2.313   6.792  19.432  0.00  0.00    +0.000 NA
ATOM      6  C   UNL     1       2.870   5.702  19.950  0.00  0.00    +0.000 A 
ATOM      7  N   UNL     1       2.272   5.236  21.111  0.00  0.00    +0.000 N 
ATOM      8  N   UNL     1       3.931   5.090  19.444  0.00  0.00    +0.000 NA
ATOM      9  H   UNL     1       1.356   5.671  21.162  0.00  0.00    +0.000 HD
ENDROOT
BRANCH   1  11
ATOM     10  N   UNL     1       5.843   5.326  16.370  0.00  0.00    +0.000 N 
ATOM     11  C   UNL     1       5.634   5.031  17.712  0.00  0.00    +0.000 C 
ATOM     12  O   UNL     1       6.380   4.293  18.349  0.00  0.00    +0.000 OA
ATOM     13  H   UNL     1       5.089   5.809  15.890  0.00  0.00    +0.000 HD
BRANCH  10  15
ATOM     14  C   UNL     1       6.336   3.975  14.384  0.00  0.00    +0.000 C 
ATOM     15  C   UNL     1       6.890   4.678  15.609  0.00  0.00    +0.000 C 
ENDBRANCH  10  15
ENDBRANCH   1  11
BRANCH   7  16
ATOM     16  C   UNL     1       2.300   3.800  21.316  0.00  0.00    +0.000 C 
ATOM     17  C   UNL     1       1.092   3.173  20.637  0.00  0.00    +0.000 C 
ENDBRANCH   7  16
TORSDOF 3
ENDMDL
