MODEL 1
REMARK VINA RESULT:      -9.1      0.000      0.000
REMARK  Name = 
REMARK  6 active torsions:
REMARK  status: ('A' for Active; 'I' for Inactive)
REMARK    1  A    between atoms: C_2  and  C_5
REMARK    2  A    between atoms: N_11  and  C_12
REMARK    3  A    between atoms: C_15  and  C_16
REMARK    4  A    between atoms: C_16  and  C_17
REMARK    5  A    between atoms: C_17  and  N_18
REMARK    6  A    between atoms: N_18  and  C_19
REMARK                            x       y       z     vdW  Elec       q    Type
REMARK                         _______ _______ _______ _____ _____    ______ ____
ROOT
ATOM      1  C   UNL     1       1.604   8.877  19.136  0.00  0.00    +0.000 A 
ATOM      2  C   UNL     1       1.479   7.919  20.141  0.00  0.00    +0.000 A 
ATOM      3  C   UNL     1       2.075   6.664  20.009  0.00  0.00    +0.000 A 
ATOM      4  C   UNL     1       2.797   6.320  18.856  0.00  0.00    +0.000 A 
ATOM      5  C   UNL     1       2.919   7.281  17.845  0.00  0.00    +0.000 A 
ATOM      6  C   UNL     1       2.325   8.539  17.982  0.00  0.00    +0.000 A 
ENDROOT
BRANCH   1  13
ATOM      7  C   UNL     1      -4.360  11.618  17.710  0.00  0.00    +0.000 A 
ATOM      8  C   UNL     1      -3.950  10.842  16.623  0.00  0.00    +0.000 A 
ATOM      9  N   UNL     1      -2.728  10.276  16.465  0.00  0.00    +0.000 NA
ATOM     10  C   UNL     1      -1.915  10.534  17.499  0.00  0.00    +0.000 A 
ATOM     11  N   UNL     1      -0.646  10.086  17.664  0.00  0.00    +0.000 N 
ATOM     12  C   UNL     1      -0.208  10.504  18.894  0.00  0.00    +0.000 A 
ATOM     13  N   UNL     1       1.013  10.143  19.335  0.00  0.00    +0.000 N 
ATOM     14  N   UNL     1      -1.086  11.293  19.475  0.00  0.00    +0.000 NA
ATOM     15  C   UNL     1      -2.174  11.287  18.637  0.00  0.00    +0.000 A 
ATOM     16  C   UNL     1      -3.442  11.868  18.749  0.00  0.00    +0.000 A 
ATOM     17  H   UNL     1      -0.134   9.502  17.025  0.00  0.00    +0.000 HD
ATOM     18  H   UNL     1       1.316  10.573  20.205  0.00  0.00    +0.000 HD
BRANCH   7  20
ATOM     19  F   UNL     1      -6.707  11.172  17.845  0.00  0.00    +0.000 F 
ATOM     20  C   UNL     1      -5.758  12.148  17.766  0.00  0.00    +0.000 C 
ATOM     21  F   UNL     1      -6.080  12.892  16.674  0.00  0.00    +0.000 F 
ATOM     22  F   UNL     1      -5.964  12.950  18.845  0.00  0.00    +0.000 F 
ENDBRANCH   7  20
ENDBRANCH   1  13
BRANCH   4  23
ATOM     23  C   UNL     1       3.429   4.958  18.646  0.00  0.00    +0.000 C 
BRANCH  23  24
ATOM     24  C   UNL     1       4.503   4.585  19.674  0.00  0.00    +0.000 C 
BRANCH  24  25
ATOM     25  N   UNL     1       5.670   3.981  19.043  0.00  0.00    +0.000 N 
ATOM     26  H   UNL     1       5.513   3.071  18.621  0.00  0.00    +0.000 HD
BRANCH  25  27
ATOM     27  C   UNL     1       6.310   4.847  18.141  0.00  0.00    +0.000 A 
ATOM     28  N   UNL     1       6.950   5.951  18.594  0.00  0.00    +0.000 NA
ATOM     29  C   UNL     1       7.556   6.762  17.716  0.00  0.00    +0.000 A 
ATOM     30  N   UNL     1       7.607   6.628  16.390  0.00  0.00    +0.000 NA
ATOM     31  C   UNL     1       6.967   5.529  15.926  0.00  0.00    +0.000 A 
ATOM     32  C   UNL     1       6.872   5.160  14.552  0.00  0.00    +0.000 A 
ATOM     33  C   UNL     1       6.152   4.002  14.367  0.00  0.00    +0.000 A 
ATOM     34  S   UNL     1       5.597   3.353  15.846  0.00  0.00    +0.000 S 
ATOM     35  C   UNL     1       6.316   4.625  16.758  0.00  0.00    +0.000 A 
ENDBRANCH  25  27
ENDBRANCH  24  25
ENDBRANCH  23  24
ENDBRANCH   4  23
TORSDOF 6
ENDMDL
MODEL 2
REMARK VINA RESULT:      -9.0      1.044      1.152
REMARK  Name = 
REMARK  6 active torsions:
REMARK  status: ('A' for Active; 'I' for Inactive)
REMARK    1  A    between atoms: C_2  and  C_5
REMARK    2  A    between atoms: N_11  and  C_12
REMARK    3  A    between atoms: C_15  and  C_16
REMARK    4  A    between atoms: C_16  and  C_17
REMARK    5  A    between atoms: C_17  and  N_18
REMARK    6  A    between atoms: N_18  and  C_19
REMARK                            x       y       z     vdW  Elec       q    Type
REMARK                         _______ _______ _______ _____ _____    ______ ____
ROOT
ATOM      1  C   UNL     1       1.013   9.878  19.272  0.00  0.00    +0.000 A 
ATOM      2  C   UNL     1       1.097   8.899  20.262  0.00  0.00    +0.000 A 
ATOM      3  C   UNL     1       1.855   7.744  20.062  0.00  0.00    +0.000 A 
ATOM      4  C   UNL     1       2.536   7.522  18.855  0.00  0.00    +0.000 A 
ATOM      5  C   UNL     1       2.448   8.502  17.859  0.00  0.00    +0.000 A 
ATOM      6  C   UNL     1       1.692   9.661  18.065  0.00  0.00    +0.000 A 
ENDROOT
BRANCH   1  13
ATOM      7  C   UNL     1      -5.191  11.983  17.794  0.00  0.00    +0.000 A 
ATOM      8  C   UNL     1      -4.651  11.351  16.671  0.00  0.00    +0.000 A 
ATOM      9  N   UNL     1      -3.364  10.951  16.525  0.00  0.00    +0.000 NA
ATOM     10  C   UNL     1      -2.625  11.222  17.610  0.00  0.00    +0.000 A 
ATOM     11  N   UNL     1      -1.317  10.919  17.797  0.00  0.00    +0.000 N 
ATOM     12  C   UNL     1      -0.977  11.288  19.072  0.00  0.00    +0.000 A 
ATOM     13  N   UNL     1       0.263  11.043  19.538  0.00  0.00    +0.000 N 
ATOM     14  N   UNL     1      -1.965  11.917  19.672  0.00  0.00    +0.000 NA
ATOM     15  C   UNL     1      -3.015  11.845  18.789  0.00  0.00    +0.000 A 
ATOM     16  C   UNL     1      -4.347  12.258  18.888  0.00  0.00    +0.000 A 
ATOM     17  H   UNL     1      -0.715  10.453  17.139  0.00  0.00    +0.000 HD
ATOM     18  H   UNL     1       0.481  11.436  20.451  0.00  0.00    +0.000 HD
BRANCH   7  20
ATOM     19  F   UNL     1      -7.455  11.271  18.097  0.00  0.00    +0.000 F 
ATOM     20  C   UNL     1      -6.645  12.334  17.828  0.00  0.00    +0.000 C 
ATOM     21  F   UNL     1      -7.087  12.848  16.649  0.00  0.00    +0.000 F 
ATOM     22  F   UNL     1      -6.930  13.265  18.778  0.00  0.00    +0.000 F 
ENDBRANCH   7  20
ENDBRANCH   1  13
BRANCH   4  23
ATOM     23  C   UNL     1       3.339   6.267  18.573  0.00  0.00    +0.000 C 
BRANCH  23  24
ATOM     24  C   UNL     1       3.371   5.255  19.723  0.00  0.00    +0.000 C 
BRANCH  24  25
ATOM     25  N   UNL     1       4.328   4.184  19.474  0.00  0.00    +0.000 N 
ATOM     26  H   UNL     1       3.962   3.384  18.967  0.00  0.00    +0.000 HD
BRANCH  25  27
ATOM     27  C   UNL     1       5.520   4.643  18.890  0.00  0.00    +0.000 A 
ATOM     28  N   UNL     1       6.454   5.266  19.647  0.00  0.00    +0.000 NA
ATOM     29  C   UNL     1       7.584   5.695  19.068  0.00  0.00    +0.000 A 
ATOM     30  N   UNL     1       7.927   5.594  17.783  0.00  0.00    +0.000 NA
ATOM     31  C   UNL     1       6.998   4.975  17.017  0.00  0.00    +0.000 A 
ATOM     32  C   UNL     1       7.120   4.746  15.615  0.00  0.00    +0.000 A 
ATOM     33  C   UNL     1       6.020   4.107  15.089  0.00  0.00    +0.000 A 
ATOM     34  S   UNL     1       4.844   3.775  16.282  0.00  0.00    +0.000 S 
ATOM     35  C   UNL     1       5.797   4.491  17.526  0.00  0.00    +0.000 A 
ENDBRANCH  25  27
ENDBRANCH  24  25
ENDBRANCH  23  24
ENDBRANCH   4  23
TORSDOF 6
ENDMDL
MODEL 3
REMARK VINA RESULT:      -8.9      1.248      1.903
REMARK  Name = 
REMARK  6 active torsions:
REMARK  status: ('A' for Active; 'I' for Inactive)
REMARK    1  A    between atoms: C_2  and  C_5
REMARK    2  A    between atoms: N_11  and  C_12
REMARK    3  A    between atoms: C_15  and  C_16
REMARK    4  A    between atoms: C_16  and  C_17
REMARK    5  A    between atoms: C_17  and  N_18
REMARK    6  A    between atoms: N_18  and  C_19
REMARK                            x       y       z     vdW  Elec       q    Type
REMARK                         _______ _______ _______ _____ _____    ______ ____
ROOT
ATOM      1  C   UNL     1       1.620   8.387  19.314  0.00  0.00    +0.000 A 
ATOM      2  C   UNL     1       1.413   7.565  20.421  0.00  0.00    +0.000 A 
ATOM      3  C   UNL     1       1.876   6.248  20.430  0.00  0.00    +0.000 A 
ATOM      4  C   UNL     1       2.544   5.705  19.322  0.00  0.00    +0.000 A 
ATOM      5  C   UNL     1       2.748   6.529  18.208  0.00  0.00    +0.000 A 
ATOM      6  C   UNL     1       2.287   7.849  18.204  0.00  0.00    +0.000 A 
ENDROOT
BRANCH   1  13
ATOM      7  C   UNL     1      -4.087  11.531  17.688  0.00  0.00    +0.000 A 
ATOM      8  C   UNL     1      -3.791  10.594  16.695  0.00  0.00    +0.000 A 
ATOM      9  N   UNL     1      -2.637   9.893  16.582  0.00  0.00    +0.000 NA
ATOM     10  C   UNL     1      -1.769  10.187  17.560  0.00  0.00    +0.000 A 
ATOM     11  N   UNL     1      -0.546   9.635  17.753  0.00  0.00    +0.000 N 
ATOM     12  C   UNL     1      -0.029  10.149  18.913  0.00  0.00    +0.000 A 
ATOM     13  N   UNL     1       1.163   9.720  19.370  0.00  0.00    +0.000 N 
ATOM     14  N   UNL     1      -0.806  11.086  19.413  0.00  0.00    +0.000 NA
ATOM     15  C   UNL     1      -1.916  11.091  18.604  0.00  0.00    +0.000 A 
ATOM     16  C   UNL     1      -3.116  11.807  18.670  0.00  0.00    +0.000 A 
ATOM     17  H   UNL     1      -0.115   8.930  17.178  0.00  0.00    +0.000 HD
ATOM     18  H   UNL     1       1.535  10.217  20.176  0.00  0.00    +0.000 HD
BRANCH   7  20
ATOM     19  F   UNL     1      -5.632  12.967  18.818  0.00  0.00    +0.000 F 
ATOM     20  C   UNL     1      -5.424  12.203  17.708  0.00  0.00    +0.000 C 
ATOM     21  F   UNL     1      -6.456  11.319  17.666  0.00  0.00    +0.000 F 
ATOM     22  F   UNL     1      -5.599  13.039  16.648  0.00  0.00    +0.000 F 
ENDBRANCH   7  20
ENDBRANCH   1  13
BRANCH   4  23
ATOM     23  C   UNL     1       3.032   4.271  19.266  0.00  0.00    +0.000 C 
BRANCH  23  24
ATOM     24  C   UNL     1       4.479   4.068  19.727  0.00  0.00    +0.000 C 
BRANCH  24  25
ATOM     25  N   UNL     1       5.307   3.492  18.674  0.00  0.00    +0.000 N 
ATOM     26  H   UNL     1       4.959   2.626  18.274  0.00  0.00    +0.000 HD
BRANCH  25  27
ATOM     27  C   UNL     1       5.628   4.416  17.667  0.00  0.00    +0.000 A 
ATOM     28  N   UNL     1       5.076   4.303  16.437  0.00  0.00    +0.000 NA
ATOM     29  C   UNL     1       5.397   5.198  15.492  0.00  0.00    +0.000 A 
ATOM     30  N   UNL     1       6.235   6.230  15.602  0.00  0.00    +0.000 NA
ATOM     31  C   UNL     1       6.795   6.350  16.829  0.00  0.00    +0.000 A 
ATOM     32  C   UNL     1       7.725   7.364  17.204  0.00  0.00    +0.000 A 
ATOM     33  C   UNL     1       8.142   7.237  18.509  0.00  0.00    +0.000 A 
ATOM     34  S   UNL     1       7.409   5.905  19.287  0.00  0.00    +0.000 S 
ATOM     35  C   UNL     1       6.521   5.475  17.875  0.00  0.00    +0.000 A 
ENDBRANCH  25  27
ENDBRANCH  24  25
ENDBRANCH  23  24
ENDBRANCH   4  23
TORSDOF 6
ENDMDL
MODEL 4
REMARK VINA RESULT:      -8.8      2.789      3.678
REMARK  Name = 
REMARK  6 active torsions:
REMARK  status: ('A' for Active; 'I' for Inactive)
REMARK    1  A    between atoms: C_2  and  C_5
REMARK    2  A    between atoms: N_11  and  C_12
REMARK    3  A    between atoms: C_15  and  C_16
REMARK    4  A    between atoms: C_16  and  C_17
REMARK    5  A    between atoms: C_17  and  N_18
REMARK    6  A    between atoms: N_18  and  C_19
REMARK                            x       y       z     vdW  Elec       q    Type
REMARK                         _______ _______ _______ _____ _____    ______ ____
ROOT
ATOM      1  C   UNL     1       1.994   7.210  20.533  0.00  0.00    +0.000 A 
ATOM      2  C   UNL     1       1.595   5.893  20.761  0.00  0.00    +0.000 A 
ATOM      3  C   UNL     1       1.697   4.931  19.755  0.00  0.00    +0.000 A 
ATOM      4  C   UNL     1       2.183   5.262  18.481  0.00  0.00    +0.000 A 
ATOM      5  C   UNL     1       2.579   6.585  18.250  0.00  0.00    +0.000 A 
ATOM      6  C   UNL     1       2.480   7.545  19.262  0.00  0.00    +0.000 A 
ENDROOT
BRANCH   1  13
ATOM      7  C   UNL     1      -2.272  12.117  22.214  0.00  0.00    +0.000 A 
ATOM      8  C   UNL     1      -2.054  12.164  20.836  0.00  0.00    +0.000 A 
ATOM      9  N   UNL     1      -1.126  11.450  20.153  0.00  0.00    +0.000 NA
ATOM     10  C   UNL     1      -0.410  10.652  20.957  0.00  0.00    +0.000 A 
ATOM     11  N   UNL     1       0.566   9.787  20.583  0.00  0.00    +0.000 N 
ATOM     12  C   UNL     1       0.973   9.104  21.699  0.00  0.00    +0.000 A 
ATOM     13  N   UNL     1       1.903   8.135  21.595  0.00  0.00    +0.000 N 
ATOM     14  N   UNL     1       0.392   9.565  22.786  0.00  0.00    +0.000 NA
ATOM     15  C   UNL     1      -0.505  10.501  22.334  0.00  0.00    +0.000 A 
ATOM     16  C   UNL     1      -1.464  11.272  23.001  0.00  0.00    +0.000 A 
ATOM     17  H   UNL     1       0.895   9.633  19.645  0.00  0.00    +0.000 HD
ATOM     18  H   UNL     1       2.236   7.742  22.472  0.00  0.00    +0.000 HD
BRANCH   7  20
ATOM     19  F   UNL     1      -4.544  12.864  22.151  0.00  0.00    +0.000 F 
ATOM     20  C   UNL     1      -3.363  12.938  22.827  0.00  0.00    +0.000 C 
ATOM     21  F   UNL     1      -3.052  14.260  22.889  0.00  0.00    +0.000 F 
ATOM     22  F   UNL     1      -3.644  12.554  24.103  0.00  0.00    +0.000 F 
ENDBRANCH   7  20
ENDBRANCH   1  13
BRANCH   4  23
ATOM     23  C   UNL     1       2.277   4.264  17.342  0.00  0.00    +0.000 C 
BRANCH  23  24
ATOM     24  C   UNL     1       3.012   2.965  17.688  0.00  0.00    +0.000 C 
BRANCH  24  25
ATOM     25  N   UNL     1       4.403   3.211  18.051  0.00  0.00    +0.000 N 
ATOM     26  H   UNL     1       4.943   2.384  18.285  0.00  0.00    +0.000 HD
BRANCH  25  27
ATOM     27  C   UNL     1       5.080   4.001  17.107  0.00  0.00    +0.000 A 
ATOM     28  N   UNL     1       4.867   3.814  15.784  0.00  0.00    +0.000 NA
ATOM     29  C   UNL     1       5.523   4.581  14.902  0.00  0.00    +0.000 A 
ATOM     30  N   UNL     1       6.409   5.543  15.164  0.00  0.00    +0.000 NA
ATOM     31  C   UNL     1       6.632   5.736  16.486  0.00  0.00    +0.000 A 
ATOM     32  C   UNL     1       7.533   6.698  17.028  0.00  0.00    +0.000 A 
ATOM     33  C   UNL     1       7.570   6.667  18.404  0.00  0.00    +0.000 A 
ATOM     34  S   UNL     1       6.515   5.485  19.044  0.00  0.00    +0.000 S 
ATOM     35  C   UNL     1       5.995   4.995  17.476  0.00  0.00    +0.000 A 
ENDBRANCH  25  27
ENDBRANCH  24  25
ENDBRANCH  23  24
ENDBRANCH   4  23
TORSDOF 6
ENDMDL
MODEL 5
REMARK VINA RESULT:      -8.8      2.151      3.149
REMARK  Name = 
REMARK  6 active torsions:
REMARK  status: ('A' for Active; 'I' for Inactive)
REMARK    1  A    between atoms: C_2  and  C_5
REMARK    2  A    between atoms: N_11  and  C_12
REMARK    3  A    between atoms: C_15  and  C_16
REMARK    4  A    between atoms: C_16  and  C_17
REMARK    5  A    between atoms: C_17  and  N_18
REMARK    6  A    between atoms: N_18  and  C_19
REMARK                            x       y       z     vdW  Elec       q    Type
REMARK                         _______ _______ _______ _____ _____    ______ ____
ROOT
ATOM      1  C   UNL     1       1.934   6.923  20.272  0.00  0.00    +0.000 A 
ATOM      2  C   UNL     1       1.459   5.734  20.825  0.00  0.00    +0.000 A 
ATOM      3  C   UNL     1       1.520   4.539  20.107  0.00  0.00    +0.000 A 
ATOM      4  C   UNL     1       2.039   4.499  18.804  0.00  0.00    +0.000 A 
ATOM      5  C   UNL     1       2.512   5.693  18.247  0.00  0.00    +0.000 A 
ATOM      6  C   UNL     1       2.454   6.889  18.971  0.00  0.00    +0.000 A 
ENDROOT
BRANCH   1  13
ATOM      7  C   UNL     1      -2.106  12.281  20.540  0.00  0.00    +0.000 A 
ATOM      8  C   UNL     1      -1.880  11.955  19.201  0.00  0.00    +0.000 A 
ATOM      9  N   UNL     1      -0.983  11.047  18.744  0.00  0.00    +0.000 NA
ATOM     10  C   UNL     1      -0.309  10.457  19.741  0.00  0.00    +0.000 A 
ATOM     11  N   UNL     1       0.627   9.484  19.622  0.00  0.00    +0.000 N 
ATOM     12  C   UNL     1       0.998   9.099  20.884  0.00  0.00    +0.000 A 
ATOM     13  N   UNL     1       1.882   8.097  21.053  0.00  0.00    +0.000 N 
ATOM     14  N   UNL     1       0.434   9.854  21.803  0.00  0.00    +0.000 NA
ATOM     15  C   UNL     1      -0.417  10.678  21.108  0.00  0.00    +0.000 A 
ATOM     16  C   UNL     1      -1.342  11.638  21.533  0.00  0.00    +0.000 A 
ATOM     17  H   UNL     1       0.953   9.074  18.763  0.00  0.00    +0.000 HD
ATOM     18  H   UNL     1       2.192   7.934  22.008  0.00  0.00    +0.000 HD
BRANCH   7  20
ATOM     19  F   UNL     1      -4.246  13.247  20.075  0.00  0.00    +0.000 F 
ATOM     20  C   UNL     1      -3.160  13.281  20.899  0.00  0.00    +0.000 C 
ATOM     21  F   UNL     1      -2.704  14.561  20.860  0.00  0.00    +0.000 F 
ATOM     22  F   UNL     1      -3.647  13.091  22.156  0.00  0.00    +0.000 F 
ENDBRANCH   7  20
ENDBRANCH   1  13
BRANCH   4  23
ATOM     23  C   UNL     1       2.092   3.235  17.968  0.00  0.00    +0.000 C 
BRANCH  23  24
ATOM     24  C   UNL     1       3.108   3.266  16.822  0.00  0.00    +0.000 C 
BRANCH  24  25
ATOM     25  N   UNL     1       4.464   3.012  17.294  0.00  0.00    +0.000 N 
ATOM     26  H   UNL     1       4.772   2.047  17.227  0.00  0.00    +0.000 HD
BRANCH  25  27
ATOM     27  C   UNL     1       5.410   3.880  16.726  0.00  0.00    +0.000 A 
ATOM     28  N   UNL     1       5.633   3.867  15.391  0.00  0.00    +0.000 NA
ATOM     29  C   UNL     1       6.539   4.706  14.871  0.00  0.00    +0.000 A 
ATOM     30  N   UNL     1       7.297   5.589  15.524  0.00  0.00    +0.000 NA
ATOM     31  C   UNL     1       7.084   5.608  16.862  0.00  0.00    +0.000 A 
ATOM     32  C   UNL     1       7.766   6.455  17.783  0.00  0.00    +0.000 A 
ATOM     33  C   UNL     1       7.360   6.254  19.082  0.00  0.00    +0.000 A 
ATOM     34  S   UNL     1       6.152   5.050  19.194  0.00  0.00    +0.000 S 
ATOM     35  C   UNL     1       6.161   4.780  17.493  0.00  0.00    +0.000 A 
ENDBRANCH  25  27
ENDBRANCH  24  25
ENDBRANCH  23  24
ENDBRANCH   4  23
TORSDOF 6
ENDMDL
MODEL 6
REMARK VINA RESULT:      -8.8      1.261      2.153
REMARK  Name = 
REMARK  6 active torsions:
REMARK  status: ('A' for Active; 'I' for Inactive)
REMARK    1  A    between atoms: C_2  and  C_5
REMARK    2  A    between atoms: N_11  and  C_12
REMARK    3  A    between atoms: C_15  and  C_16
REMARK    4  A    between atoms: C_16  and  C_17
REMARK    5  A    between atoms: C_17  and  N_18
REMARK    6  A    between atoms: N_18  and  C_19
REMARK                            x       y       z     vdW  Elec       q    Type
REMARK                         _______ _______ _______ _____ _____    ______ ____
ROOT
ATOM      1  C   UNL     1       1.661   8.559  19.229  0.00  0.00    +0.000 A 
ATOM      2  C   UNL     1       2.242   7.946  18.119  0.00  0.00    +0.000 A 
ATOM      3  C   UNL     1       2.637   6.608  18.168  0.00  0.00    +0.000 A 
ATOM      4  C   UNL     1       2.482   5.847  19.336  0.00  0.00    +0.000 A 
ATOM      5  C   UNL     1       1.903   6.464  20.452  0.00  0.00    +0.000 A 
ATOM      6  C   UNL     1       1.505   7.803  20.399  0.00  0.00    +0.000 A 
ENDROOT
BRANCH   1  13
ATOM      7  C   UNL     1      -4.219  11.658  18.266  0.00  0.00    +0.000 A 
ATOM      8  C   UNL     1      -4.162  10.534  17.439  0.00  0.00    +0.000 A 
ATOM      9  N   UNL     1      -3.071   9.759  17.224  0.00  0.00    +0.000 NA
ATOM     10  C   UNL     1      -2.005  10.184  17.917  0.00  0.00    +0.000 A 
ATOM     11  N   UNL     1      -0.777   9.609  17.950  0.00  0.00    +0.000 N 
ATOM     12  C   UNL     1      -0.011  10.305  18.848  0.00  0.00    +0.000 A 
ATOM     13  N   UNL     1       1.247   9.903  19.116  0.00  0.00    +0.000 N 
ATOM     14  N   UNL     1      -0.645  11.363  19.306  0.00  0.00    +0.000 NA
ATOM     15  C   UNL     1      -1.906  11.277  18.767  0.00  0.00    +0.000 A 
ATOM     16  C   UNL     1      -3.051  12.060  18.945  0.00  0.00    +0.000 A 
ATOM     17  H   UNL     1      -0.493   8.785  17.448  0.00  0.00    +0.000 HD
ATOM     18  H   UNL     1       1.794  10.522  19.710  0.00  0.00    +0.000 HD
BRANCH   7  20
ATOM     19  F   UNL     1      -5.424  13.444  19.306  0.00  0.00    +0.000 F 
ATOM     20  C   UNL     1      -5.508  12.397  18.436  0.00  0.00    +0.000 C 
ATOM     21  F   UNL     1      -6.509  11.604  18.905  0.00  0.00    +0.000 F 
ATOM     22  F   UNL     1      -5.961  12.925  17.267  0.00  0.00    +0.000 F 
ENDBRANCH   7  20
ENDBRANCH   1  13
BRANCH   4  23
ATOM     23  C   UNL     1       2.930   4.403  19.453  0.00  0.00    +0.000 C 
BRANCH  23  24
ATOM     24  C   UNL     1       3.118   3.680  18.115  0.00  0.00    +0.000 C 
BRANCH  24  25
ATOM     25  N   UNL     1       4.505   3.284  17.904  0.00  0.00    +0.000 N 
ATOM     26  H   UNL     1       4.642   2.320  17.616  0.00  0.00    +0.000 HD
BRANCH  25  27
ATOM     27  C   UNL     1       5.199   4.163  17.057  0.00  0.00    +0.000 A 
ATOM     28  N   UNL     1       4.984   4.135  15.721  0.00  0.00    +0.000 NA
ATOM     29  C   UNL     1       5.656   4.984  14.932  0.00  0.00    +0.000 A 
ATOM     30  N   UNL     1       6.561   5.892  15.303  0.00  0.00    +0.000 NA
ATOM     31  C   UNL     1       6.787   5.926  16.637  0.00  0.00    +0.000 A 
ATOM     32  C   UNL     1       7.707   6.801  17.286  0.00  0.00    +0.000 A 
ATOM     33  C   UNL     1       7.742   6.610  18.648  0.00  0.00    +0.000 A 
ATOM     34  S   UNL     1       6.663   5.384  19.149  0.00  0.00    +0.000 S 
ATOM     35  C   UNL     1       6.134   5.089  17.537  0.00  0.00    +0.000 A 
ENDBRANCH  25  27
ENDBRANCH  24  25
ENDBRANCH  23  24
ENDBRANCH   4  23
TORSDOF 6
ENDMDL
MODEL 7
REMARK VINA RESULT:      -8.8      2.783      3.811
REMARK  Name = 
REMARK  6 active torsions:
REMARK  status: ('A' for Active; 'I' for Inactive)
REMARK    1  A    between atoms: C_2  and  C_5
REMARK    2  A    between atoms: N_11  and  C_12
REMARK    3  A    between atoms: C_15  and  C_16
REMARK    4  A    between atoms: C_16  and  C_17
REMARK    5  A    between atoms: C_17  and  N_18
REMARK    6  A    between atoms: N_18  and  C_19
REMARK                            x       y       z     vdW  Elec       q    Type
REMARK                         _______ _______ _______ _____ _____    ______ ____
ROOT
ATOM      1  C   UNL     1       2.036   6.846  20.517  0.00  0.00    +0.000 A 
ATOM      2  C   UNL     1       2.483   7.164  19.235  0.00  0.00    +0.000 A 
ATOM      3  C   UNL     1       2.468   6.209  18.217  0.00  0.00    +0.000 A 
ATOM      4  C   UNL     1       2.025   4.899  18.455  0.00  0.00    +0.000 A 
ATOM      5  C   UNL     1       1.581   4.579  19.744  0.00  0.00    +0.000 A 
ATOM      6  C   UNL     1       1.593   5.539  20.761  0.00  0.00    +0.000 A 
ENDROOT
BRANCH   1  13
ATOM      7  C   UNL     1      -1.990  11.999  22.049  0.00  0.00    +0.000 A 
ATOM      8  C   UNL     1      -1.862  11.925  20.660  0.00  0.00    +0.000 A 
ATOM      9  N   UNL     1      -0.999  11.131  19.981  0.00  0.00    +0.000 NA
ATOM     10  C   UNL     1      -0.251  10.381  20.803  0.00  0.00    +0.000 A 
ATOM     11  N   UNL     1       0.677   9.460  20.441  0.00  0.00    +0.000 N 
ATOM     12  C   UNL     1       1.141   8.860  21.582  0.00  0.00    +0.000 A 
ATOM     13  N   UNL     1       2.039   7.858  21.501  0.00  0.00    +0.000 N 
ATOM     14  N   UNL     1       0.645   9.426  22.662  0.00  0.00    +0.000 NA
ATOM     15  C   UNL     1      -0.258  10.348  22.191  0.00  0.00    +0.000 A 
ATOM     16  C   UNL     1      -1.152  11.199  22.850  0.00  0.00    +0.000 A 
ATOM     17  H   UNL     1       0.939   9.219  19.500  0.00  0.00    +0.000 HD
ATOM     18  H   UNL     1       2.419   7.529  22.385  0.00  0.00    +0.000 HD
BRANCH   7  20
ATOM     19  F   UNL     1      -3.041  12.852  24.022  0.00  0.00    +0.000 F 
ATOM     20  C   UNL     1      -3.017  12.899  22.659  0.00  0.00    +0.000 C 
ATOM     21  F   UNL     1      -4.281  12.601  22.255  0.00  0.00    +0.000 F 
ATOM     22  F   UNL     1      -2.816  14.206  22.339  0.00  0.00    +0.000 F 
ENDBRANCH   7  20
ENDBRANCH   1  13
BRANCH   4  23
ATOM     23  C   UNL     1       2.026   3.815  17.395  0.00  0.00    +0.000 C 
BRANCH  23  24
ATOM     24  C   UNL     1       3.116   2.752  17.568  0.00  0.00    +0.000 C 
BRANCH  24  25
ATOM     25  N   UNL     1       4.339   3.316  18.127  0.00  0.00    +0.000 N 
ATOM     26  H   UNL     1       4.945   2.653  18.600  0.00  0.00    +0.000 HD
BRANCH  25  27
ATOM     27  C   UNL     1       5.061   4.080  17.196  0.00  0.00    +0.000 A 
ATOM     28  N   UNL     1       4.856   3.910  15.869  0.00  0.00    +0.000 NA
ATOM     29  C   UNL     1       5.556   4.651  14.999  0.00  0.00    +0.000 A 
ATOM     30  N   UNL     1       6.480   5.572  15.277  0.00  0.00    +0.000 NA
ATOM     31  C   UNL     1       6.695   5.747  16.602  0.00  0.00    +0.000 A 
ATOM     32  C   UNL     1       7.631   6.666  17.161  0.00  0.00    +0.000 A 
ATOM     33  C   UNL     1       7.651   6.625  18.537  0.00  0.00    +0.000 A 
ATOM     34  S   UNL     1       6.538   5.488  19.157  0.00  0.00    +0.000 S 
ATOM     35  C   UNL     1       6.015   5.031  17.581  0.00  0.00    +0.000 A 
ENDBRANCH  25  27
ENDBRANCH  24  25
ENDBRANCH  23  24
ENDBRANCH   4  23
TORSDOF 6
ENDMDL
MODEL 8
REMARK VINA RESULT:      -8.7      1.280      1.710
REMARK  Name = 
REMARK  6 active torsions:
REMARK  status: ('A' for Active; 'I' for Inactive)
REMARK    1  A    between atoms: C_2  and  C_5
REMARK    2  A    between atoms: N_11  and  C_12
REMARK    3  A    between atoms: C_15  and  C_16
REMARK    4  A    between atoms: C_16  and  C_17
REMARK    5  A    between atoms: C_17  and  N_18
REMARK    6  A    between atoms: N_18  and  C_19
REMARK                            x       y       z     vdW  Elec       q    Type
REMARK                         _______ _______ _______ _____ _____    ______ ____
ROOT
ATOM      1  C   UNL     1       1.000   9.976  19.473  0.00  0.00    +0.000 A 
ATOM      2  C   UNL     1       1.476   9.736  18.184  0.00  0.00    +0.000 A 
ATOM      3  C   UNL     1       2.085   8.523  17.862  0.00  0.00    +0.000 A 
ATOM      4  C   UNL     1       2.257   7.517  18.826  0.00  0.00    +0.000 A 
ATOM      5  C   UNL     1       1.783   7.760  20.121  0.00  0.00    +0.000 A 
ATOM      6  C   UNL     1       1.169   8.976  20.440  0.00  0.00    +0.000 A 
ENDROOT
BRANCH   1  13
ATOM      7  C   UNL     1      -5.292  12.269  18.962  0.00  0.00    +0.000 A 
ATOM      8  C   UNL     1      -5.005  11.487  17.841  0.00  0.00    +0.000 A 
ATOM      9  N   UNL     1      -3.787  10.998  17.501  0.00  0.00    +0.000 NA
ATOM     10  C   UNL     1      -2.841  11.343  18.386  0.00  0.00    +0.000 A 
ATOM     11  N   UNL     1      -1.533  10.985  18.355  0.00  0.00    +0.000 N 
ATOM     12  C   UNL     1      -0.937  11.472  19.489  0.00  0.00    +0.000 A 
ATOM     13  N   UNL     1       0.361  11.206  19.736  0.00  0.00    +0.000 N 
ATOM     14  N   UNL     1      -1.765  12.219  20.187  0.00  0.00    +0.000 NA
ATOM     15  C   UNL     1      -2.969  12.113  19.534  0.00  0.00    +0.000 A 
ATOM     16  C   UNL     1      -4.240  12.613  19.835  0.00  0.00    +0.000 A 
ATOM     17  H   UNL     1      -1.089  10.415  17.654  0.00  0.00    +0.000 HD
ATOM     18  H   UNL     1       0.767  11.683  20.538  0.00  0.00    +0.000 HD
BRANCH   7  20
ATOM     19  F   UNL     1      -7.633  11.965  18.571  0.00  0.00    +0.000 F 
ATOM     20  C   UNL     1      -6.697  12.707  19.230  0.00  0.00    +0.000 C 
ATOM     21  F   UNL     1      -6.922  13.998  18.865  0.00  0.00    +0.000 F 
ATOM     22  F   UNL     1      -7.023  12.624  20.548  0.00  0.00    +0.000 F 
ENDBRANCH   7  20
ENDBRANCH   1  13
BRANCH   4  23
ATOM     23  C   UNL     1       2.946   6.198  18.538  0.00  0.00    +0.000 C 
BRANCH  23  24
ATOM     24  C   UNL     1       3.347   5.400  19.783  0.00  0.00    +0.000 C 
BRANCH  24  25
ATOM     25  N   UNL     1       4.216   4.278  19.449  0.00  0.00    +0.000 N 
ATOM     26  H   UNL     1       3.787   3.549  18.887  0.00  0.00    +0.000 HD
BRANCH  25  27
ATOM     27  C   UNL     1       5.440   4.684  18.892  0.00  0.00    +0.000 A 
ATOM     28  N   UNL     1       6.372   5.290  19.664  0.00  0.00    +0.000 NA
ATOM     29  C   UNL     1       7.533   5.668  19.112  0.00  0.00    +0.000 A 
ATOM     30  N   UNL     1       7.910   5.528  17.840  0.00  0.00    +0.000 NA
ATOM     31  C   UNL     1       6.983   4.925  17.058  0.00  0.00    +0.000 A 
ATOM     32  C   UNL     1       7.139   4.662  15.665  0.00  0.00    +0.000 A 
ATOM     33  C   UNL     1       6.034   4.050  15.120  0.00  0.00    +0.000 A 
ATOM     34  S   UNL     1       4.812   3.784  16.283  0.00  0.00    +0.000 S 
ATOM     35  C   UNL     1       5.752   4.493  17.540  0.00  0.00    +0.000 A 
ENDBRANCH  25  27
ENDBRANCH  24  25
ENDBRANCH  23  24
ENDBRANCH   4  23
TORSDOF 6
ENDMDL
MODEL 9
REMARK VINA RESULT:      -8.6      0.673      1.078
REMARK  Name = 
REMARK  6 active torsions:
REMARK  status: ('A' for Active; 'I' for Inactive)
REMARK    1  A    between atoms: C_2  and  C_5
REMARK    2  A    between atoms: N_11  and  C_12
REMARK    3  A    between atoms: C_15  and  C_16
REMARK    4  A    between atoms: C_16  and  C_17
REMARK    5  A    between atoms: C_17  and  N_18
REMARK    6  A    between atoms: N_18  and  C_19
REMARK                            x       y       z     vdW  Elec       q    Type
REMARK                         _______ _______ _______ _____ _____    ______ ____
ROOT
ATOM      1  C   UNL     1       1.819   8.836  18.949  0.00  0.00    +0.000 A 
ATOM      2  C   UNL     1       2.579   8.136  18.012  0.00  0.00    +0.000 A 
ATOM      3  C   UNL     1       3.044   6.849  18.287  0.00  0.00    +0.000 A 
ATOM      4  C   UNL     1       2.780   6.229  19.518  0.00  0.00    +0.000 A 
ATOM      5  C   UNL     1       2.021   6.933  20.461  0.00  0.00    +0.000 A 
ATOM      6  C   UNL     1       1.552   8.221  20.180  0.00  0.00    +0.000 A 
ENDROOT
BRANCH   1  13
ATOM      7  C   UNL     1      -4.249  11.628  18.251  0.00  0.00    +0.000 A 
ATOM      8  C   UNL     1      -4.277  10.348  17.695  0.00  0.00    +0.000 A 
ATOM      9  N   UNL     1      -3.203   9.546  17.490  0.00  0.00    +0.000 NA
ATOM     10  C   UNL     1      -2.061  10.117  17.896  0.00  0.00    +0.000 A 
ATOM     11  N   UNL     1      -0.822   9.567  17.864  0.00  0.00    +0.000 N 
ATOM     12  C   UNL     1       0.045  10.448  18.455  0.00  0.00    +0.000 A 
ATOM     13  N   UNL     1       1.343  10.119  18.606  0.00  0.00    +0.000 N 
ATOM     14  N   UNL     1      -0.551  11.581  18.761  0.00  0.00    +0.000 NA
ATOM     15  C   UNL     1      -1.875  11.374  18.457  0.00  0.00    +0.000 A 
ATOM     16  C   UNL     1      -3.008  12.175  18.633  0.00  0.00    +0.000 A 
ATOM     17  H   UNL     1      -0.588   8.651  17.520  0.00  0.00    +0.000 HD
ATOM     18  H   UNL     1       1.951  10.857  18.955  0.00  0.00    +0.000 HD
BRANCH   7  20
ATOM     19  F   UNL     1      -6.583  11.589  18.778  0.00  0.00    +0.000 F 
ATOM     20  C   UNL     1      -5.524  12.385  18.452  0.00  0.00    +0.000 C 
ATOM     21  F   UNL     1      -5.906  13.073  17.343  0.00  0.00    +0.000 F 
ATOM     22  F   UNL     1      -5.430  13.301  19.454  0.00  0.00    +0.000 F 
ENDBRANCH   7  20
ENDBRANCH   1  13
BRANCH   4  23
ATOM     23  C   UNL     1       3.295   4.850  19.882  0.00  0.00    +0.000 C 
BRANCH  23  24
ATOM     24  C   UNL     1       3.823   4.031  18.699  0.00  0.00    +0.000 C 
BRANCH  24  25
ATOM     25  N   UNL     1       5.251   3.763  18.821  0.00  0.00    +0.000 N 
ATOM     26  H   UNL     1       5.527   2.800  18.654  0.00  0.00    +0.000 HD
BRANCH  25  27
ATOM     27  C   UNL     1       6.038   4.648  18.067  0.00  0.00    +0.000 A 
ATOM     28  N   UNL     1       6.671   5.680  18.671  0.00  0.00    +0.000 NA
ATOM     29  C   UNL     1       7.418   6.512  17.932  0.00  0.00    +0.000 A 
ATOM     30  N   UNL     1       7.625   6.463  16.615  0.00  0.00    +0.000 NA
ATOM     31  C   UNL     1       6.993   5.435  16.000  0.00  0.00    +0.000 A 
ATOM     32  C   UNL     1       7.048   5.164  14.602  0.00  0.00    +0.000 A 
ATOM     33  C   UNL     1       6.300   4.064  14.250  0.00  0.00    +0.000 A 
ATOM     34  S   UNL     1       5.537   3.351  15.602  0.00  0.00    +0.000 S 
ATOM     35  C   UNL     1       6.201   4.517  16.682  0.00  0.00    +0.000 A 
ENDBRANCH  25  27
ENDBRANCH  24  25
ENDBRANCH  23  24
ENDBRANCH   4  23
TORSDOF 6
ENDMDL
