MODEL 1
REMARK VINA RESULT:      -8.0      0.000      0.000
REMARK  Name = 
REMARK  4 active torsions:
REMARK  status: ('A' for Active; 'I' for Inactive)
REMARK    1  A    between atoms: C_2  and  C_3
REMARK    2  A    between atoms: C_2  and  C_9
REMARK    3  A    between atoms: C_13  and  N_14
REMARK    4  A    between atoms: C_15  and  C_17
REMARK                            x       y       z     vdW  Elec       q    Type
REMARK                         _______ _______ _______ _____ _____    ______ ____
ROOT
ATOM      1  C   UNL     1       4.859   5.422  17.775  0.00  0.00    +0.000 A 
ATOM      2  C   UNL     1       6.030   5.626  18.514  0.00  0.00    +0.000 A 
ATOM      3  C   UNL     1       7.253   5.234  17.988  0.00  0.00    +0.000 A 
ATOM      4  C   UNL     1       7.305   4.595  16.748  0.00  0.00    +0.000 A 
ATOM      5  C   UNL     1       6.139   4.321  16.027  0.00  0.00    +0.000 A 
ATOM      6  C   UNL     1       4.911   4.754  16.541  0.00  0.00    +0.000 A 
ENDROOT
BRANCH   5   7
ATOM      7  N   UNL     1       6.145   3.631  14.795  0.00  0.00    +0.000 N 
ATOM      8  C   UNL     1       6.618   4.110  13.581  0.00  0.00    +0.000 C 
ATOM      9  O   UNL     1       7.134   5.208  13.408  0.00  0.00    +0.000 OA
ATOM     10  H   UNL     1       5.847   2.662  14.793  0.00  0.00    +0.000 HD
BRANCH   8  11
ATOM     11  C   UNL     1       6.485   3.167  12.486  0.00  0.00    +0.000 A 
ATOM     12  C   UNL     1       5.354   2.562  11.969  0.00  0.00    +0.000 A 
ATOM     13  C   UNL     1       5.786   1.732  10.910  0.00  0.00    +0.000 A 
ATOM     14  C   UNL     1       7.152   1.875  10.846  0.00  0.00    +0.000 A 
ATOM     15  O   UNL     1       7.590   2.746  11.795  0.00  0.00    +0.000 OA
ENDBRANCH   8  11
ENDBRANCH   5   7
BRANCH   1  17
ATOM     16  O   UNL     1       3.260   7.087  18.198  0.00  0.00    +0.000 OA
ATOM     17  C   UNL     1       3.548   5.897  18.291  0.00  0.00    +0.000 C 
BRANCH  17  18
ATOM     18  C   UNL     1       2.589   4.949  18.928  0.00  0.00    +0.000 A 
ATOM     19  C   UNL     1       1.878   4.054  18.120  0.00  0.00    +0.000 A 
ATOM     20  C   UNL     1       0.973   3.158  18.697  0.00  0.00    +0.000 A 
ATOM     21  C   UNL     1       0.772   3.155  20.077  0.00  0.00    +0.000 A 
ATOM     22  C   UNL     1       1.469   4.052  20.885  0.00  0.00    +0.000 A 
ATOM     23  C   UNL     1       2.364   4.957  20.312  0.00  0.00    +0.000 A 
ENDBRANCH  17  18
ENDBRANCH   1  17
TORSDOF 4
ENDMDL
MODEL 2
REMARK VINA RESULT:      -7.9      0.485      1.121
REMARK  Name = 
REMARK  4 active torsions:
REMARK  status: ('A' for Active; 'I' for Inactive)
REMARK    1  A    between atoms: C_2  and  C_3
REMARK    2  A    between atoms: C_2  and  C_9
REMARK    3  A    between atoms: C_13  and  N_14
REMARK    4  A    between atoms: C_15  and  C_17
REMARK                            x       y       z     vdW  Elec       q    Type
REMARK                         _______ _______ _______ _____ _____    ______ ____
ROOT
ATOM      1  C   UNL     1       4.782   5.331  18.162  0.00  0.00    +0.000 A 
ATOM      2  C   UNL     1       5.967   5.534  18.880  0.00  0.00    +0.000 A 
ATOM      3  C   UNL     1       7.187   5.212  18.300  0.00  0.00    +0.000 A 
ATOM      4  C   UNL     1       7.223   4.643  17.026  0.00  0.00    +0.000 A 
ATOM      5  C   UNL     1       6.046   4.369  16.322  0.00  0.00    +0.000 A 
ATOM      6  C   UNL     1       4.820   4.733  16.893  0.00  0.00    +0.000 A 
ENDROOT
BRANCH   5   7
ATOM      7  N   UNL     1       6.039   3.748  15.055  0.00  0.00    +0.000 N 
ATOM      8  C   UNL     1       6.543   4.273  13.873  0.00  0.00    +0.000 C 
ATOM      9  O   UNL     1       7.102   5.358  13.765  0.00  0.00    +0.000 OA
ATOM     10  H   UNL     1       5.704   2.792  14.998  0.00  0.00    +0.000 HD
BRANCH   8  11
ATOM     11  C   UNL     1       6.385   3.397  12.727  0.00  0.00    +0.000 A 
ATOM     12  C   UNL     1       5.237   2.872  12.163  0.00  0.00    +0.000 A 
ATOM     13  C   UNL     1       5.648   2.081  11.067  0.00  0.00    +0.000 A 
ATOM     14  C   UNL     1       7.020   2.165  11.028  0.00  0.00    +0.000 A 
ATOM     15  O   UNL     1       7.481   2.964  12.029  0.00  0.00    +0.000 OA
ENDBRANCH   8  11
ENDBRANCH   5   7
BRANCH   1  17
ATOM     16  O   UNL     1       3.117   6.905  18.667  0.00  0.00    +0.000 OA
ATOM     17  C   UNL     1       3.472   5.732  18.739  0.00  0.00    +0.000 C 
BRANCH  17  18
ATOM     18  C   UNL     1       2.594   4.731  19.412  0.00  0.00    +0.000 A 
ATOM     19  C   UNL     1       2.724   4.530  20.790  0.00  0.00    +0.000 A 
ATOM     20  C   UNL     1       1.913   3.595  21.441  0.00  0.00    +0.000 A 
ATOM     21  C   UNL     1       0.975   2.857  20.717  0.00  0.00    +0.000 A 
ATOM     22  C   UNL     1       0.851   3.045  19.342  0.00  0.00    +0.000 A 
ATOM     23  C   UNL     1       1.667   3.968  18.687  0.00  0.00    +0.000 A 
ENDBRANCH  17  18
ENDBRANCH   1  17
TORSDOF 4
ENDMDL
MODEL 3
REMARK VINA RESULT:      -7.7      3.459      5.883
REMARK  Name = 
REMARK  4 active torsions:
REMARK  status: ('A' for Active; 'I' for Inactive)
REMARK    1  A    between atoms: C_2  and  C_3
REMARK    2  A    between atoms: C_2  and  C_9
REMARK    3  A    between atoms: C_13  and  N_14
REMARK    4  A    between atoms: C_15  and  C_17
REMARK                            x       y       z     vdW  Elec       q    Type
REMARK                         _______ _______ _______ _____ _____    ______ ____
ROOT
ATOM      1  C   UNL     1       5.036   4.452  17.756  0.00  0.00    +0.000 A 
ATOM      2  C   UNL     1       4.787   4.047  16.440  0.00  0.00    +0.000 A 
ATOM      3  C   UNL     1       5.304   4.786  15.383  0.00  0.00    +0.000 A 
ATOM      4  C   UNL     1       6.026   5.954  15.637  0.00  0.00    +0.000 A 
ATOM      5  C   UNL     1       6.225   6.410  16.944  0.00  0.00    +0.000 A 
ATOM      6  C   UNL     1       5.738   5.641  18.008  0.00  0.00    +0.000 A 
ENDROOT
BRANCH   5   7
ATOM      7  N   UNL     1       6.904   7.612  17.240  0.00  0.00    +0.000 N 
ATOM      8  C   UNL     1       7.908   7.784  18.182  0.00  0.00    +0.000 C 
ATOM      9  O   UNL     1       8.378   6.896  18.884  0.00  0.00    +0.000 OA
ATOM     10  H   UNL     1       6.703   8.423  16.665  0.00  0.00    +0.000 HD
BRANCH   8  11
ATOM     11  C   UNL     1       8.411   9.143  18.261  0.00  0.00    +0.000 A 
ATOM     12  C   UNL     1       8.122  10.244  17.477  0.00  0.00    +0.000 A 
ATOM     13  C   UNL     1       8.887  11.318  17.985  0.00  0.00    +0.000 A 
ATOM     14  C   UNL     1       9.601  10.810  19.045  0.00  0.00    +0.000 A 
ATOM     15  O   UNL     1       9.319   9.490  19.226  0.00  0.00    +0.000 OA
ENDBRANCH   8  11
ENDBRANCH   5   7
BRANCH   1  17
ATOM     16  O   UNL     1       5.365   3.076  19.628  0.00  0.00    +0.000 OA
ATOM     17  C   UNL     1       4.550   3.636  18.901  0.00  0.00    +0.000 C 
BRANCH  17  18
ATOM     18  C   UNL     1       3.090   3.485  19.165  0.00  0.00    +0.000 A 
ATOM     19  C   UNL     1       2.471   4.343  20.080  0.00  0.00    +0.000 A 
ATOM     20  C   UNL     1       1.104   4.217  20.344  0.00  0.00    +0.000 A 
ATOM     21  C   UNL     1       0.353   3.233  19.699  0.00  0.00    +0.000 A 
ATOM     22  C   UNL     1       0.968   2.368  18.796  0.00  0.00    +0.000 A 
ATOM     23  C   UNL     1       2.334   2.482  18.539  0.00  0.00    +0.000 A 
ENDBRANCH  17  18
ENDBRANCH   1  17
TORSDOF 4
ENDMDL
MODEL 4
REMARK VINA RESULT:      -7.7      3.302      5.718
REMARK  Name = 
REMARK  4 active torsions:
REMARK  status: ('A' for Active; 'I' for Inactive)
REMARK    1  A    between atoms: C_2  and  C_3
REMARK    2  A    between atoms: C_2  and  C_9
REMARK    3  A    between atoms: C_13  and  N_14
REMARK    4  A    between atoms: C_15  and  C_17
REMARK                            x       y       z     vdW  Elec       q    Type
REMARK                         _______ _______ _______ _____ _____    ______ ____
ROOT
ATOM      1  C   UNL     1       4.057   4.945  17.237  0.00  0.00    +0.000 A 
ATOM      2  C   UNL     1       4.511   4.036  16.275  0.00  0.00    +0.000 A 
ATOM      3  C   UNL     1       5.754   4.222  15.685  0.00  0.00    +0.000 A 
ATOM      4  C   UNL     1       6.523   5.338  16.017  0.00  0.00    +0.000 A 
ATOM      5  C   UNL     1       6.055   6.293  16.925  0.00  0.00    +0.000 A 
ATOM      6  C   UNL     1       4.819   6.082  17.549  0.00  0.00    +0.000 A 
ENDROOT
BRANCH   5   7
ATOM      7  N   UNL     1       6.780   7.461  17.248  0.00  0.00    +0.000 N 
ATOM      8  C   UNL     1       7.805   7.569  18.177  0.00  0.00    +0.000 C 
ATOM      9  O   UNL     1       8.256   6.642  18.840  0.00  0.00    +0.000 OA
ATOM     10  H   UNL     1       6.596   8.298  16.705  0.00  0.00    +0.000 HD
BRANCH   8  11
ATOM     11  C   UNL     1       8.355   8.906  18.293  0.00  0.00    +0.000 A 
ATOM     12  C   UNL     1       8.180  10.011  17.480  0.00  0.00    +0.000 A 
ATOM     13  C   UNL     1       8.941  11.058  18.047  0.00  0.00    +0.000 A 
ATOM     14  C   UNL     1       9.539  10.531  19.167  0.00  0.00    +0.000 A 
ATOM     15  O   UNL     1       9.189   9.226  19.331  0.00  0.00    +0.000 OA
ENDBRANCH   8  11
ENDBRANCH   5   7
BRANCH   1  17
ATOM     16  O   UNL     1       1.732   5.187  17.441  0.00  0.00    +0.000 OA
ATOM     17  C   UNL     1       2.759   4.727  17.930  0.00  0.00    +0.000 C 
BRANCH  17  18
ATOM     18  C   UNL     1       2.696   3.967  19.212  0.00  0.00    +0.000 A 
ATOM     19  C   UNL     1       1.565   4.095  20.024  0.00  0.00    +0.000 A 
ATOM     20  C   UNL     1       1.487   3.394  21.231  0.00  0.00    +0.000 A 
ATOM     21  C   UNL     1       2.537   2.568  21.632  0.00  0.00    +0.000 A 
ATOM     22  C   UNL     1       3.672   2.446  20.831  0.00  0.00    +0.000 A 
ATOM     23  C   UNL     1       3.759   3.154  19.632  0.00  0.00    +0.000 A 
ENDBRANCH  17  18
ENDBRANCH   1  17
TORSDOF 4
ENDMDL
MODEL 5
REMARK VINA RESULT:      -7.7      4.687      7.098
REMARK  Name = 
REMARK  4 active torsions:
REMARK  status: ('A' for Active; 'I' for Inactive)
REMARK    1  A    between atoms: C_2  and  C_3
REMARK    2  A    between atoms: C_2  and  C_9
REMARK    3  A    between atoms: C_13  and  N_14
REMARK    4  A    between atoms: C_15  and  C_17
REMARK                            x       y       z     vdW  Elec       q    Type
REMARK                         _______ _______ _______ _____ _____    ______ ____
ROOT
ATOM      1  C   UNL     1       6.368   6.458  17.339  0.00  0.00    +0.000 A 
ATOM      2  C   UNL     1       6.901   5.571  18.282  0.00  0.00    +0.000 A 
ATOM      3  C   UNL     1       7.930   5.990  19.115  0.00  0.00    +0.000 A 
ATOM      4  C   UNL     1       8.460   7.274  18.976  0.00  0.00    +0.000 A 
ATOM      5  C   UNL     1       7.986   8.149  17.994  0.00  0.00    +0.000 A 
ATOM      6  C   UNL     1       6.921   7.738  17.183  0.00  0.00    +0.000 A 
ENDROOT
BRANCH   5   7
ATOM      7  N   UNL     1       8.530   9.435  17.788  0.00  0.00    +0.000 N 
ATOM      8  C   UNL     1       9.076  10.268  18.755  0.00  0.00    +0.000 C 
ATOM      9  O   UNL     1       9.192   9.988  19.943  0.00  0.00    +0.000 OA
ATOM     10  H   UNL     1       8.605   9.770  16.834  0.00  0.00    +0.000 HD
BRANCH   8  11
ATOM     11  C   UNL     1       9.551  11.537  18.237  0.00  0.00    +0.000 A 
ATOM     12  C   UNL     1      10.763  11.861  17.657  0.00  0.00    +0.000 A 
ATOM     13  C   UNL     1      10.705  13.235  17.333  0.00  0.00    +0.000 A 
ATOM     14  C   UNL     1       9.465  13.669  17.737  0.00  0.00    +0.000 A 
ATOM     15  O   UNL     1       8.751  12.648  18.285  0.00  0.00    +0.000 OA
ENDBRANCH   8  11
ENDBRANCH   5   7
BRANCH   1  17
ATOM     16  O   UNL     1       5.204   6.381  15.304  0.00  0.00    +0.000 OA
ATOM     17  C   UNL     1       5.220   6.051  16.485  0.00  0.00    +0.000 C 
BRANCH  17  18
ATOM     18  C   UNL     1       4.090   5.259  17.052  0.00  0.00    +0.000 A 
ATOM     19  C   UNL     1       3.162   5.896  17.881  0.00  0.00    +0.000 A 
ATOM     20  C   UNL     1       2.096   5.172  18.424  0.00  0.00    +0.000 A 
ATOM     21  C   UNL     1       1.956   3.812  18.144  0.00  0.00    +0.000 A 
ATOM     22  C   UNL     1       2.886   3.170  17.327  0.00  0.00    +0.000 A 
ATOM     23  C   UNL     1       3.958   3.887  16.793  0.00  0.00    +0.000 A 
ENDBRANCH  17  18
ENDBRANCH   1  17
TORSDOF 4
ENDMDL
MODEL 6
REMARK VINA RESULT:      -7.6      1.844      2.725
REMARK  Name = 
REMARK  4 active torsions:
REMARK  status: ('A' for Active; 'I' for Inactive)
REMARK    1  A    between atoms: C_2  and  C_3
REMARK    2  A    between atoms: C_2  and  C_9
REMARK    3  A    between atoms: C_13  and  N_14
REMARK    4  A    between atoms: C_15  and  C_17
REMARK                            x       y       z     vdW  Elec       q    Type
REMARK                         _______ _______ _______ _____ _____    ______ ____
ROOT
ATOM      1  C   UNL     1       4.892   5.144  18.619  0.00  0.00    +0.000 A 
ATOM      2  C   UNL     1       6.149   5.361  19.197  0.00  0.00    +0.000 A 
ATOM      3  C   UNL     1       7.298   5.130  18.452  0.00  0.00    +0.000 A 
ATOM      4  C   UNL     1       7.197   4.638  17.150  0.00  0.00    +0.000 A 
ATOM      5  C   UNL     1       5.953   4.350  16.581  0.00  0.00    +0.000 A 
ATOM      6  C   UNL     1       4.794   4.623  17.320  0.00  0.00    +0.000 A 
ENDROOT
BRANCH   5   7
ATOM      7  N   UNL     1       5.811   3.803  15.287  0.00  0.00    +0.000 N 
ATOM      8  C   UNL     1       6.260   4.362  14.099  0.00  0.00    +0.000 C 
ATOM      9  O   UNL     1       6.881   5.415  14.004  0.00  0.00    +0.000 OA
ATOM     10  H   UNL     1       5.409   2.875  15.207  0.00  0.00    +0.000 HD
BRANCH   8  11
ATOM     11  C   UNL     1       5.960   3.564  12.925  0.00  0.00    +0.000 A 
ATOM     12  C   UNL     1       6.781   2.739  12.180  0.00  0.00    +0.000 A 
ATOM     13  C   UNL     1       5.986   2.202  11.143  0.00  0.00    +0.000 A 
ATOM     14  C   UNL     1       4.729   2.734  11.312  0.00  0.00    +0.000 A 
ATOM     15  O   UNL     1       4.698   3.560  12.393  0.00  0.00    +0.000 OA
ENDBRANCH   8  11
ENDBRANCH   5   7
BRANCH   1  17
ATOM     16  O   UNL     1       3.222   4.632  20.185  0.00  0.00    +0.000 OA
ATOM     17  C   UNL     1       3.650   5.450  19.377  0.00  0.00    +0.000 C 
BRANCH  17  18
ATOM     18  C   UNL     1       2.917   6.731  19.157  0.00  0.00    +0.000 A 
ATOM     19  C   UNL     1       2.095   7.228  20.173  0.00  0.00    +0.000 A 
ATOM     20  C   UNL     1       1.397   8.425  19.986  0.00  0.00    +0.000 A 
ATOM     21  C   UNL     1       1.516   9.126  18.786  0.00  0.00    +0.000 A 
ATOM     22  C   UNL     1       2.325   8.628  17.765  0.00  0.00    +0.000 A 
ATOM     23  C   UNL     1       3.013   7.427  17.943  0.00  0.00    +0.000 A 
ENDBRANCH  17  18
ENDBRANCH   1  17
TORSDOF 4
ENDMDL
MODEL 7
REMARK VINA RESULT:      -7.6      1.876      2.618
REMARK  Name = 
REMARK  4 active torsions:
REMARK  status: ('A' for Active; 'I' for Inactive)
REMARK    1  A    between atoms: C_2  and  C_3
REMARK    2  A    between atoms: C_2  and  C_9
REMARK    3  A    between atoms: C_13  and  N_14
REMARK    4  A    between atoms: C_15  and  C_17
REMARK                            x       y       z     vdW  Elec       q    Type
REMARK                         _______ _______ _______ _____ _____    ______ ____
ROOT
ATOM      1  C   UNL     1       4.822   5.229  18.659  0.00  0.00    +0.000 A 
ATOM      2  C   UNL     1       6.081   5.448  19.230  0.00  0.00    +0.000 A 
ATOM      3  C   UNL     1       7.227   5.225  18.477  0.00  0.00    +0.000 A 
ATOM      4  C   UNL     1       7.119   4.737  17.173  0.00  0.00    +0.000 A 
ATOM      5  C   UNL     1       5.873   4.447  16.610  0.00  0.00    +0.000 A 
ATOM      6  C   UNL     1       4.718   4.712  17.358  0.00  0.00    +0.000 A 
ENDROOT
BRANCH   5   7
ATOM      7  N   UNL     1       5.725   3.905  15.315  0.00  0.00    +0.000 N 
ATOM      8  C   UNL     1       6.318   4.371  14.151  0.00  0.00    +0.000 C 
ATOM      9  O   UNL     1       7.092   5.319  14.083  0.00  0.00    +0.000 OA
ATOM     10  H   UNL     1       5.195   3.045  15.220  0.00  0.00    +0.000 HD
BRANCH   8  11
ATOM     11  C   UNL     1       5.970   3.605  12.968  0.00  0.00    +0.000 A 
ATOM     12  C   UNL     1       6.764   2.817  12.156  0.00  0.00    +0.000 A 
ATOM     13  C   UNL     1       5.924   2.301  11.144  0.00  0.00    +0.000 A 
ATOM     14  C   UNL     1       4.670   2.807  11.394  0.00  0.00    +0.000 A 
ATOM     15  O   UNL     1       4.683   3.598  12.501  0.00  0.00    +0.000 OA
ENDBRANCH   8  11
ENDBRANCH   5   7
BRANCH   1  17
ATOM     16  O   UNL     1       3.168   4.708  20.239  0.00  0.00    +0.000 OA
ATOM     17  C   UNL     1       3.583   5.527  19.425  0.00  0.00    +0.000 C 
BRANCH  17  18
ATOM     18  C   UNL     1       2.839   6.802  19.207  0.00  0.00    +0.000 A 
ATOM     19  C   UNL     1       2.956   7.456  17.977  0.00  0.00    +0.000 A 
ATOM     20  C   UNL     1       2.268   8.653  17.752  0.00  0.00    +0.000 A 
ATOM     21  C   UNL     1       1.466   9.199  18.754  0.00  0.00    +0.000 A 
ATOM     22  C   UNL     1       1.356   8.557  19.987  0.00  0.00    +0.000 A 
ATOM     23  C   UNL     1       2.051   7.369  20.219  0.00  0.00    +0.000 A 
ENDBRANCH  17  18
ENDBRANCH   1  17
TORSDOF 4
ENDMDL
MODEL 8
REMARK VINA RESULT:      -7.6      4.710      6.921
REMARK  Name = 
REMARK  4 active torsions:
REMARK  status: ('A' for Active; 'I' for Inactive)
REMARK    1  A    between atoms: C_2  and  C_3
REMARK    2  A    between atoms: C_2  and  C_9
REMARK    3  A    between atoms: C_13  and  N_14
REMARK    4  A    between atoms: C_15  and  C_17
REMARK                            x       y       z     vdW  Elec       q    Type
REMARK                         _______ _______ _______ _____ _____    ______ ____
ROOT
ATOM      1  C   UNL     1       6.340   6.376  17.359  0.00  0.00    +0.000 A 
ATOM      2  C   UNL     1       6.876   5.502  18.312  0.00  0.00    +0.000 A 
ATOM      3  C   UNL     1       7.910   5.930  19.133  0.00  0.00    +0.000 A 
ATOM      4  C   UNL     1       8.443   7.210  18.973  0.00  0.00    +0.000 A 
ATOM      5  C   UNL     1       7.967   8.072  17.981  0.00  0.00    +0.000 A 
ATOM      6  C   UNL     1       6.896   7.653  17.181  0.00  0.00    +0.000 A 
ENDROOT
BRANCH   5   7
ATOM      7  N   UNL     1       8.513   9.354  17.753  0.00  0.00    +0.000 N 
ATOM      8  C   UNL     1       9.056  10.203  18.707  0.00  0.00    +0.000 C 
ATOM      9  O   UNL     1       9.168   9.945  19.900  0.00  0.00    +0.000 OA
ATOM     10  H   UNL     1       8.592   9.671  16.793  0.00  0.00    +0.000 HD
BRANCH   8  11
ATOM     11  C   UNL     1       9.535  11.462  18.167  0.00  0.00    +0.000 A 
ATOM     12  C   UNL     1       8.859  12.648  17.948  0.00  0.00    +0.000 A 
ATOM     13  C   UNL     1       9.796  13.556  17.406  0.00  0.00    +0.000 A 
ATOM     14  C   UNL     1      10.985  12.871  17.321  0.00  0.00    +0.000 A 
ATOM     15  O   UNL     1      10.842  11.599  17.783  0.00  0.00    +0.000 OA
ENDBRANCH   8  11
ENDBRANCH   5   7
BRANCH   1  17
ATOM     16  O   UNL     1       5.185   6.238  15.321  0.00  0.00    +0.000 OA
ATOM     17  C   UNL     1       5.187   5.960  16.516  0.00  0.00    +0.000 C 
BRANCH  17  18
ATOM     18  C   UNL     1       4.035   5.222  17.110  0.00  0.00    +0.000 A 
ATOM     19  C   UNL     1       3.899   3.853  16.855  0.00  0.00    +0.000 A 
ATOM     20  C   UNL     1       2.826   3.142  17.401  0.00  0.00    +0.000 A 
ATOM     21  C   UNL     1       1.885   3.796  18.197  0.00  0.00    +0.000 A 
ATOM     22  C   UNL     1       2.009   5.162  18.444  0.00  0.00    +0.000 A 
ATOM     23  C   UNL     1       3.072   5.877  17.892  0.00  0.00    +0.000 A 
ENDBRANCH  17  18
ENDBRANCH   1  17
TORSDOF 4
ENDMDL
MODEL 9
REMARK VINA RESULT:      -7.6      2.893      8.086
REMARK  Name = 
REMARK  4 active torsions:
REMARK  status: ('A' for Active; 'I' for Inactive)
REMARK    1  A    between atoms: C_2  and  C_3
REMARK    2  A    between atoms: C_2  and  C_9
REMARK    3  A    between atoms: C_13  and  N_14
REMARK    4  A    between atoms: C_15  and  C_17
REMARK                            x       y       z     vdW  Elec       q    Type
REMARK                         _______ _______ _______ _____ _____    ______ ____
ROOT
ATOM      1  C   UNL     1       5.185   4.581  16.749  0.00  0.00    +0.000 A 
ATOM      2  C   UNL     1       4.538   3.376  17.046  0.00  0.00    +0.000 A 
ATOM      3  C   UNL     1       3.253   3.397  17.572  0.00  0.00    +0.000 A 
ATOM      4  C   UNL     1       2.632   4.616  17.847  0.00  0.00    +0.000 A 
ATOM      5  C   UNL     1       3.291   5.829  17.622  0.00  0.00    +0.000 A 
ATOM      6  C   UNL     1       4.571   5.806  17.053  0.00  0.00    +0.000 A 
ENDROOT
BRANCH   5   7
ATOM      7  N   UNL     1       2.718   7.081  17.935  0.00  0.00    +0.000 N 
ATOM      8  C   UNL     1       2.208   7.472  19.165  0.00  0.00    +0.000 C 
ATOM      9  O   UNL     1       2.208   6.786  20.181  0.00  0.00    +0.000 OA
ATOM     10  H   UNL     1       2.741   7.803  17.224  0.00  0.00    +0.000 HD
BRANCH   8  11
ATOM     11  C   UNL     1       1.679   8.823  19.178  0.00  0.00    +0.000 A 
ATOM     12  C   UNL     1       1.629   9.766  18.168  0.00  0.00    +0.000 A 
ATOM     13  C   UNL     1       1.013  10.915  18.714  0.00  0.00    +0.000 A 
ATOM     14  C   UNL     1       0.728  10.608  20.024  0.00  0.00    +0.000 A 
ATOM     15  O   UNL     1       1.124   9.340  20.318  0.00  0.00    +0.000 OA
ENDBRANCH   8  11
ENDBRANCH   5   7
BRANCH   1  17
ATOM     16  O   UNL     1       7.527   4.692  16.833  0.00  0.00    +0.000 OA
ATOM     17  C   UNL     1       6.534   4.579  16.122  0.00  0.00    +0.000 C 
BRANCH  17  18
ATOM     18  C   UNL     1       6.688   4.452  14.644  0.00  0.00    +0.000 A 
ATOM     19  C   UNL     1       7.611   5.270  13.983  0.00  0.00    +0.000 A 
ATOM     20  C   UNL     1       7.771   5.169  12.598  0.00  0.00    +0.000 A 
ATOM     21  C   UNL     1       7.007   4.256  11.869  0.00  0.00    +0.000 A 
ATOM     22  C   UNL     1       6.078   3.447  12.521  0.00  0.00    +0.000 A 
ATOM     23  C   UNL     1       5.907   3.554  13.902  0.00  0.00    +0.000 A 
ENDBRANCH  17  18
ENDBRANCH   1  17
TORSDOF 4
ENDMDL
