MODEL 1
REMARK VINA RESULT:      -8.1      0.000      0.000
REMARK  Name = 
REMARK  6 active torsions:
REMARK  status: ('A' for Active; 'I' for Inactive)
REMARK    1  A    between atoms: C_2  and  C_26
REMARK    2  A    between atoms: N_3  and  C_4
REMARK    3  A    between atoms: C_7  and  O_8
REMARK    4  A    between atoms: O_8  and  C_9
REMARK    5  A    between atoms: C_12  and  S_13
REMARK    6  A    between atoms: S_13  and  N_16
REMARK                            x       y       z     vdW  Elec       q    Type
REMARK                         _______ _______ _______ _____ _____    ______ ____
ROOT
ATOM      1  O   UNL     1       2.061   9.544  17.475  0.00  0.00    +0.000 OA
ENDROOT
BRANCH   1   5
ATOM      2  C   UNL     1      -0.419  11.577  20.188  0.00  0.00    +0.000 A 
ATOM      3  C   UNL     1       0.878  12.024  19.929  0.00  0.00    +0.000 A 
ATOM      4  C   UNL     1       1.690  11.387  18.997  0.00  0.00    +0.000 A 
ATOM      5  C   UNL     1       1.248  10.240  18.345  0.00  0.00    +0.000 A 
ATOM      6  C   UNL     1      -0.063   9.805  18.549  0.00  0.00    +0.000 A 
ATOM      7  C   UNL     1      -0.893  10.465  19.477  0.00  0.00    +0.000 A 
BRANCH   2  10
ATOM      8  O   UNL     1      -0.512  11.054  23.048  0.00  0.00    +0.000 OA
ATOM      9  C   UNL     1      -1.292  11.834  22.507  0.00  0.00    +0.000 C 
ATOM     10  N   UNL     1      -1.240  12.192  21.164  0.00  0.00    +0.000 N 
ATOM     11  H   UNL     1      -1.833  12.962  20.878  0.00  0.00    +0.000 HD
BRANCH   9  12
ATOM     12  C   UNL     1      -2.333  12.464  23.289  0.00  0.00    +0.000 A 
ATOM     13  C   UNL     1      -2.462  13.796  23.634  0.00  0.00    +0.000 A 
ATOM     14  C   UNL     1      -3.615  13.901  24.438  0.00  0.00    +0.000 A 
ATOM     15  C   UNL     1      -4.122  12.630  24.543  0.00  0.00    +0.000 A 
ATOM     16  O   UNL     1      -3.356  11.742  23.841  0.00  0.00    +0.000 OA
ENDBRANCH   9  12
ENDBRANCH   2  10
ENDBRANCH   1   5
BRANCH   1  17
ATOM     17  C   UNL     1       2.589   8.337  17.939  0.00  0.00    +0.000 A 
ATOM     18  C   UNL     1       3.602   7.748  17.190  0.00  0.00    +0.000 A 
ATOM     19  C   UNL     1       4.141   6.535  17.635  0.00  0.00    +0.000 A 
ATOM     20  C   UNL     1       3.648   5.966  18.810  0.00  0.00    +0.000 A 
ATOM     21  C   UNL     1       2.633   6.614  19.489  0.00  0.00    +0.000 A 
ATOM     22  N   UNL     1       2.090   7.782  19.072  0.00  0.00    +0.000 NA
BRANCH  20  23
ATOM     23  S   UNL     1       4.153   4.375  19.380  0.00  0.00    +0.000 S 
ATOM     24  O   UNL     1       5.595   4.347  19.279  0.00  0.00    +0.000 OA
ATOM     25  O   UNL     1       3.486   4.124  20.640  0.00  0.00    +0.000 OA
BRANCH  23  26
ATOM     26  N   UNL     1       3.513   3.303  18.223  0.00  0.00    +0.000 NA
ATOM     27  C   UNL     1       2.302   3.757  17.467  0.00  0.00    +0.000 C 
ATOM     28  C   UNL     1       1.010   3.491  18.258  0.00  0.00    +0.000 C 
ATOM     29  O   UNL     1       0.896   2.113  18.640  0.00  0.00    +0.000 OA
ATOM     30  C   UNL     1       2.017   1.700  19.436  0.00  0.00    +0.000 C 
ATOM     31  C   UNL     1       3.329   1.884  18.669  0.00  0.00    +0.000 C 
ENDBRANCH  23  26
ENDBRANCH  20  23
ENDBRANCH   1  17
TORSDOF 6
ENDMDL
MODEL 2
REMARK VINA RESULT:      -8.1      1.857      2.527
REMARK  Name = 
REMARK  6 active torsions:
REMARK  status: ('A' for Active; 'I' for Inactive)
REMARK    1  A    between atoms: C_2  and  C_26
REMARK    2  A    between atoms: N_3  and  C_4
REMARK    3  A    between atoms: C_7  and  O_8
REMARK    4  A    between atoms: O_8  and  C_9
REMARK    5  A    between atoms: C_12  and  S_13
REMARK    6  A    between atoms: S_13  and  N_16
REMARK                            x       y       z     vdW  Elec       q    Type
REMARK                         _______ _______ _______ _____ _____    ______ ____
ROOT
ATOM      1  O   UNL     1       0.945  11.082  18.586  0.00  0.00    +0.000 OA
ENDROOT
BRANCH   1   5
ATOM      2  C   UNL     1      -2.450  12.414  20.672  0.00  0.00    +0.000 A 
ATOM      3  C   UNL     1      -2.576  11.653  19.508  0.00  0.00    +0.000 A 
ATOM      4  C   UNL     1      -1.460  11.166  18.837  0.00  0.00    +0.000 A 
ATOM      5  C   UNL     1      -0.179  11.486  19.277  0.00  0.00    +0.000 A 
ATOM      6  C   UNL     1      -0.028  12.202  20.467  0.00  0.00    +0.000 A 
ATOM      7  C   UNL     1      -1.161  12.676  21.158  0.00  0.00    +0.000 A 
BRANCH   2  10
ATOM      8  O   UNL     1      -3.310  11.941  23.411  0.00  0.00    +0.000 OA
ATOM      9  C   UNL     1      -3.978  12.614  22.629  0.00  0.00    +0.000 C 
ATOM     10  N   UNL     1      -3.578  12.949  21.340  0.00  0.00    +0.000 N 
ATOM     11  H   UNL     1      -4.141  13.638  20.857  0.00  0.00    +0.000 HD
BRANCH   9  12
ATOM     12  C   UNL     1      -5.261  13.134  23.048  0.00  0.00    +0.000 A 
ATOM     13  C   UNL     1      -5.551  14.370  23.596  0.00  0.00    +0.000 A 
ATOM     14  C   UNL     1      -6.933  14.381  23.873  0.00  0.00    +0.000 A 
ATOM     15  C   UNL     1      -7.408  13.152  23.486  0.00  0.00    +0.000 A 
ATOM     16  O   UNL     1      -6.402  12.382  22.972  0.00  0.00    +0.000 OA
ENDBRANCH   9  12
ENDBRANCH   2  10
ENDBRANCH   1   5
BRANCH   1  17
ATOM     17  C   UNL     1       1.403   9.787  18.835  0.00  0.00    +0.000 A 
ATOM     18  C   UNL     1       2.033   9.116  17.793  0.00  0.00    +0.000 A 
ATOM     19  C   UNL     1       2.495   7.814  18.020  0.00  0.00    +0.000 A 
ATOM     20  C   UNL     1       2.311   7.241  19.280  0.00  0.00    +0.000 A 
ATOM     21  C   UNL     1       1.665   7.975  20.257  0.00  0.00    +0.000 A 
ATOM     22  N   UNL     1       1.202   9.231  20.057  0.00  0.00    +0.000 NA
BRANCH  20  23
ATOM     23  S   UNL     1       2.721   5.562  19.628  0.00  0.00    +0.000 S 
ATOM     24  O   UNL     1       4.162   5.513  19.749  0.00  0.00    +0.000 OA
ATOM     25  O   UNL     1       1.865   5.111  20.705  0.00  0.00    +0.000 OA
BRANCH  23  26
ATOM     26  N   UNL     1       2.274   4.728  18.214  0.00  0.00    +0.000 NA
ATOM     27  C   UNL     1       1.220   3.672  18.348  0.00  0.00    +0.000 C 
ATOM     28  C   UNL     1       1.818   2.332  18.812  0.00  0.00    +0.000 C 
ATOM     29  O   UNL     1       2.879   1.898  17.949  0.00  0.00    +0.000 OA
ATOM     30  C   UNL     1       3.929   2.874  17.886  0.00  0.00    +0.000 C 
ATOM     31  C   UNL     1       3.400   4.214  17.368  0.00  0.00    +0.000 C 
ENDBRANCH  23  26
ENDBRANCH  20  23
ENDBRANCH   1  17
TORSDOF 6
ENDMDL
MODEL 3
REMARK VINA RESULT:      -7.9      2.453      2.755
REMARK  Name = 
REMARK  6 active torsions:
REMARK  status: ('A' for Active; 'I' for Inactive)
REMARK    1  A    between atoms: C_2  and  C_26
REMARK    2  A    between atoms: N_3  and  C_4
REMARK    3  A    between atoms: C_7  and  O_8
REMARK    4  A    between atoms: O_8  and  C_9
REMARK    5  A    between atoms: C_12  and  S_13
REMARK    6  A    between atoms: S_13  and  N_16
REMARK                            x       y       z     vdW  Elec       q    Type
REMARK                         _______ _______ _______ _____ _____    ______ ____
ROOT
ATOM      1  O   UNL     1       1.554  10.569  18.503  0.00  0.00    +0.000 OA
ENDROOT
BRANCH   1   5
ATOM      2  C   UNL     1      -2.338  11.989  19.198  0.00  0.00    +0.000 A 
ATOM      3  C   UNL     1      -1.224  12.701  19.648  0.00  0.00    +0.000 A 
ATOM      4  C   UNL     1       0.069  12.265  19.381  0.00  0.00    +0.000 A 
ATOM      5  C   UNL     1       0.283  11.064  18.712  0.00  0.00    +0.000 A 
ATOM      6  C   UNL     1      -0.814  10.363  18.207  0.00  0.00    +0.000 A 
ATOM      7  C   UNL     1      -2.124  10.817  18.459  0.00  0.00    +0.000 A 
BRANCH   2  10
ATOM      8  O   UNL     1      -3.516  12.485  21.811  0.00  0.00    +0.000 OA
ATOM      9  C   UNL     1      -4.182  12.540  20.780  0.00  0.00    +0.000 C 
ATOM     10  N   UNL     1      -3.659  12.402  19.498  0.00  0.00    +0.000 N 
ATOM     11  H   UNL     1      -4.279  12.627  18.731  0.00  0.00    +0.000 HD
BRANCH   9  12
ATOM     12  C   UNL     1      -5.604  12.790  20.859  0.00  0.00    +0.000 A 
ATOM     13  C   UNL     1      -6.331  13.812  20.278  0.00  0.00    +0.000 A 
ATOM     14  C   UNL     1      -7.670  13.645  20.685  0.00  0.00    +0.000 A 
ATOM     15  C   UNL     1      -7.685  12.537  21.496  0.00  0.00    +0.000 A 
ATOM     16  O   UNL     1      -6.435  11.998  21.605  0.00  0.00    +0.000 OA
ENDBRANCH   9  12
ENDBRANCH   2  10
ENDBRANCH   1   5
BRANCH   1  17
ATOM     17  C   UNL     1       1.762   9.223  18.814  0.00  0.00    +0.000 A 
ATOM     18  C   UNL     1       2.293   8.409  17.820  0.00  0.00    +0.000 A 
ATOM     19  C   UNL     1       2.504   7.055  18.109  0.00  0.00    +0.000 A 
ATOM     20  C   UNL     1       2.180   6.576  19.379  0.00  0.00    +0.000 A 
ATOM     21  C   UNL     1       1.648   7.453  20.306  0.00  0.00    +0.000 A 
ATOM     22  N   UNL     1       1.426   8.763  20.045  0.00  0.00    +0.000 NA
BRANCH  20  23
ATOM     23  S   UNL     1       2.269   4.866  19.801  0.00  0.00    +0.000 S 
ATOM     24  O   UNL     1       2.802   4.807  21.144  0.00  0.00    +0.000 OA
ATOM     25  O   UNL     1       0.994   4.263  19.476  0.00  0.00    +0.000 OA
BRANCH  23  26
ATOM     26  N   UNL     1       3.436   4.240  18.733  0.00  0.00    +0.000 NA
ATOM     27  C   UNL     1       2.935   3.487  17.539  0.00  0.00    +0.000 C 
ATOM     28  C   UNL     1       2.631   2.018  17.884  0.00  0.00    +0.000 C 
ATOM     29  O   UNL     1       3.765   1.365  18.470  0.00  0.00    +0.000 OA
ATOM     30  C   UNL     1       4.195   2.039  19.662  0.00  0.00    +0.000 C 
ATOM     31  C   UNL     1       4.573   3.492  19.363  0.00  0.00    +0.000 C 
ENDBRANCH  23  26
ENDBRANCH  20  23
ENDBRANCH   1  17
TORSDOF 6
ENDMDL
MODEL 4
REMARK VINA RESULT:      -7.7      2.355      2.766
REMARK  Name = 
REMARK  6 active torsions:
REMARK  status: ('A' for Active; 'I' for Inactive)
REMARK    1  A    between atoms: C_2  and  C_26
REMARK    2  A    between atoms: N_3  and  C_4
REMARK    3  A    between atoms: C_7  and  O_8
REMARK    4  A    between atoms: O_8  and  C_9
REMARK    5  A    between atoms: C_12  and  S_13
REMARK    6  A    between atoms: S_13  and  N_16
REMARK                            x       y       z     vdW  Elec       q    Type
REMARK                         _______ _______ _______ _____ _____    ______ ____
ROOT
ATOM      1  O   UNL     1       1.418  11.126  18.458  0.00  0.00    +0.000 OA
ENDROOT
BRANCH   1   5
ATOM      2  C   UNL     1      -2.449  12.403  19.490  0.00  0.00    +0.000 A 
ATOM      3  C   UNL     1      -1.331  13.175  19.808  0.00  0.00    +0.000 A 
ATOM      4  C   UNL     1      -0.051  12.786  19.429  0.00  0.00    +0.000 A 
ATOM      5  C   UNL     1       0.152  11.574  18.776  0.00  0.00    +0.000 A 
ATOM      6  C   UNL     1      -0.956  10.810  18.401  0.00  0.00    +0.000 A 
ATOM      7  C   UNL     1      -2.254  11.217  18.767  0.00  0.00    +0.000 A 
BRANCH   2  10
ATOM      8  O   UNL     1      -3.606  12.209  22.152  0.00  0.00    +0.000 OA
ATOM      9  C   UNL     1      -4.269  12.571  21.183  0.00  0.00    +0.000 C 
ATOM     10  N   UNL     1      -3.752  12.769  19.906  0.00  0.00    +0.000 N 
ATOM     11  H   UNL     1      -4.363  13.220  19.237  0.00  0.00    +0.000 HD
BRANCH   9  12
ATOM     12  C   UNL     1      -5.680  12.845  21.342  0.00  0.00    +0.000 A 
ATOM     13  C   UNL     1      -6.748  12.270  20.679  0.00  0.00    +0.000 A 
ATOM     14  C   UNL     1      -7.914  12.904  21.155  0.00  0.00    +0.000 A 
ATOM     15  C   UNL     1      -7.494  13.831  22.076  0.00  0.00    +0.000 A 
ATOM     16  O   UNL     1      -6.134  13.802  22.209  0.00  0.00    +0.000 OA
ENDBRANCH   9  12
ENDBRANCH   2  10
ENDBRANCH   1   5
BRANCH   1  17
ATOM     17  C   UNL     1       1.704   9.792  18.751  0.00  0.00    +0.000 A 
ATOM     18  C   UNL     1       2.227   9.006  17.731  0.00  0.00    +0.000 A 
ATOM     19  C   UNL     1       2.515   7.664  18.002  0.00  0.00    +0.000 A 
ATOM     20  C   UNL     1       2.273   7.165  19.283  0.00  0.00    +0.000 A 
ATOM     21  C   UNL     1       1.742   8.013  20.238  0.00  0.00    +0.000 A 
ATOM     22  N   UNL     1       1.447   9.311  19.994  0.00  0.00    +0.000 NA
BRANCH  20  23
ATOM     23  S   UNL     1       2.462   5.460  19.691  0.00  0.00    +0.000 S 
ATOM     24  O   UNL     1       3.859   5.274  20.019  0.00  0.00    +0.000 OA
ATOM     25  O   UNL     1       1.421   5.112  20.634  0.00  0.00    +0.000 OA
BRANCH  23  26
ATOM     26  N   UNL     1       2.142   4.650  18.229  0.00  0.00    +0.000 NA
ATOM     27  C   UNL     1       1.104   3.571  18.260  0.00  0.00    +0.000 C 
ATOM     28  C   UNL     1       1.693   2.233  18.739  0.00  0.00    +0.000 C 
ATOM     29  O   UNL     1       2.826   1.841  17.951  0.00  0.00    +0.000 OA
ATOM     30  C   UNL     1       3.857   2.838  17.989  0.00  0.00    +0.000 C 
ATOM     31  C   UNL     1       3.340   4.179  17.461  0.00  0.00    +0.000 C 
ENDBRANCH  23  26
ENDBRANCH  20  23
ENDBRANCH   1  17
TORSDOF 6
ENDMDL
MODEL 5
REMARK VINA RESULT:      -7.7      1.602      2.247
REMARK  Name = 
REMARK  6 active torsions:
REMARK  status: ('A' for Active; 'I' for Inactive)
REMARK    1  A    between atoms: C_2  and  C_26
REMARK    2  A    between atoms: N_3  and  C_4
REMARK    3  A    between atoms: C_7  and  O_8
REMARK    4  A    between atoms: O_8  and  C_9
REMARK    5  A    between atoms: C_12  and  S_13
REMARK    6  A    between atoms: S_13  and  N_16
REMARK                            x       y       z     vdW  Elec       q    Type
REMARK                         _______ _______ _______ _____ _____    ______ ____
ROOT
ATOM      1  O   UNL     1       1.227  10.787  18.292  0.00  0.00    +0.000 OA
ENDROOT
BRANCH   1   5
ATOM      2  C   UNL     1      -2.055  12.271  20.453  0.00  0.00    +0.000 A 
ATOM      3  C   UNL     1      -2.243  11.457  19.334  0.00  0.00    +0.000 A 
ATOM      4  C   UNL     1      -1.163  10.921  18.640  0.00  0.00    +0.000 A 
ATOM      5  C   UNL     1       0.140  11.241  19.009  0.00  0.00    +0.000 A 
ATOM      6  C   UNL     1       0.352  12.010  20.156  0.00  0.00    +0.000 A 
ATOM      7  C   UNL     1      -0.743  12.534  20.871  0.00  0.00    +0.000 A 
BRANCH   2  10
ATOM      8  O   UNL     1      -2.839  11.894  23.230  0.00  0.00    +0.000 OA
ATOM      9  C   UNL     1      -3.513  12.565  22.452  0.00  0.00    +0.000 C 
ATOM     10  N   UNL     1      -3.146  12.855  21.142  0.00  0.00    +0.000 N 
ATOM     11  H   UNL     1      -3.705  13.547  20.659  0.00  0.00    +0.000 HD
BRANCH   9  12
ATOM     12  C   UNL     1      -4.767  13.132  22.897  0.00  0.00    +0.000 A 
ATOM     13  C   UNL     1      -5.006  14.392  23.414  0.00  0.00    +0.000 A 
ATOM     14  C   UNL     1      -6.376  14.448  23.738  0.00  0.00    +0.000 A 
ATOM     15  C   UNL     1      -6.896  13.221  23.407  0.00  0.00    +0.000 A 
ATOM     16  O   UNL     1      -5.929  12.409  22.885  0.00  0.00    +0.000 OA
ENDBRANCH   9  12
ENDBRANCH   2  10
ENDBRANCH   1   5
BRANCH   1  17
ATOM     17  C   UNL     1       1.670   9.493  18.574  0.00  0.00    +0.000 A 
ATOM     18  C   UNL     1       1.408   8.986  19.841  0.00  0.00    +0.000 A 
ATOM     19  C   UNL     1       1.847   7.693  20.147  0.00  0.00    +0.000 A 
ATOM     20  C   UNL     1       2.526   6.961  19.171  0.00  0.00    +0.000 A 
ATOM     21  C   UNL     1       2.753   7.544  17.939  0.00  0.00    +0.000 A 
ATOM     22  N   UNL     1       2.346   8.797  17.625  0.00  0.00    +0.000 NA
BRANCH  20  23
ATOM     23  S   UNL     1       3.248   5.385  19.496  0.00  0.00    +0.000 S 
ATOM     24  O   UNL     1       4.679   5.593  19.524  0.00  0.00    +0.000 OA
ATOM     25  O   UNL     1       2.555   4.805  20.627  0.00  0.00    +0.000 OA
BRANCH  23  26
ATOM     26  N   UNL     1       2.866   4.466  18.116  0.00  0.00    +0.000 NA
ATOM     27  C   UNL     1       1.452   3.992  17.980  0.00  0.00    +0.000 C 
ATOM     28  C   UNL     1       1.212   2.694  18.770  0.00  0.00    +0.000 C 
ATOM     29  O   UNL     1       2.140   1.666  18.395  0.00  0.00    +0.000 OA
ATOM     30  C   UNL     1       3.496   2.089  18.604  0.00  0.00    +0.000 C 
ATOM     31  C   UNL     1       3.808   3.346  17.788  0.00  0.00    +0.000 C 
ENDBRANCH  23  26
ENDBRANCH  20  23
ENDBRANCH   1  17
TORSDOF 6
ENDMDL
MODEL 6
REMARK VINA RESULT:      -7.7      2.073      2.600
REMARK  Name = 
REMARK  6 active torsions:
REMARK  status: ('A' for Active; 'I' for Inactive)
REMARK    1  A    between atoms: C_2  and  C_26
REMARK    2  A    between atoms: N_3  and  C_4
REMARK    3  A    between atoms: C_7  and  O_8
REMARK    4  A    between atoms: O_8  and  C_9
REMARK    5  A    between atoms: C_12  and  S_13
REMARK    6  A    between atoms: S_13  and  N_16
REMARK                            x       y       z     vdW  Elec       q    Type
REMARK                         _______ _______ _______ _____ _____    ______ ____
ROOT
ATOM      1  O   UNL     1       0.963  11.141  18.588  0.00  0.00    +0.000 OA
ENDROOT
BRANCH   1   5
ATOM      2  C   UNL     1      -2.523  12.229  20.666  0.00  0.00    +0.000 A 
ATOM      3  C   UNL     1      -1.269  12.315  21.275  0.00  0.00    +0.000 A 
ATOM      4  C   UNL     1      -0.105  12.004  20.580  0.00  0.00    +0.000 A 
ATOM      5  C   UNL     1      -0.169  11.532  19.273  0.00  0.00    +0.000 A 
ATOM      6  C   UNL     1      -1.407  11.487  18.627  0.00  0.00    +0.000 A 
ATOM      7  C   UNL     1      -2.584  11.824  19.325  0.00  0.00    +0.000 A 
BRANCH   2  10
ATOM      8  O   UNL     1      -3.832  14.798  21.055  0.00  0.00    +0.000 OA
ATOM      9  C   UNL     1      -4.244  13.773  21.593  0.00  0.00    +0.000 C 
ATOM     10  N   UNL     1      -3.717  12.504  21.375  0.00  0.00    +0.000 N 
ATOM     11  H   UNL     1      -4.244  11.725  21.750  0.00  0.00    +0.000 HD
BRANCH   9  12
ATOM     12  C   UNL     1      -5.368  13.843  22.500  0.00  0.00    +0.000 A 
ATOM     13  C   UNL     1      -6.004  14.965  22.998  0.00  0.00    +0.000 A 
ATOM     14  C   UNL     1      -7.010  14.512  23.875  0.00  0.00    +0.000 A 
ATOM     15  C   UNL     1      -6.929  13.141  23.869  0.00  0.00    +0.000 A 
ATOM     16  O   UNL     1      -5.938  12.716  23.029  0.00  0.00    +0.000 OA
ENDBRANCH   9  12
ENDBRANCH   2  10
ENDBRANCH   1   5
BRANCH   1  17
ATOM     17  C   UNL     1       1.421   9.843  18.821  0.00  0.00    +0.000 A 
ATOM     18  C   UNL     1       2.069   9.192  17.777  0.00  0.00    +0.000 A 
ATOM     19  C   UNL     1       2.530   7.888  17.988  0.00  0.00    +0.000 A 
ATOM     20  C   UNL     1       2.328   7.291  19.233  0.00  0.00    +0.000 A 
ATOM     21  C   UNL     1       1.666   8.006  20.214  0.00  0.00    +0.000 A 
ATOM     22  N   UNL     1       1.202   9.264  20.029  0.00  0.00    +0.000 NA
BRANCH  20  23
ATOM     23  S   UNL     1       2.738   5.607  19.558  0.00  0.00    +0.000 S 
ATOM     24  O   UNL     1       4.177   5.559  19.695  0.00  0.00    +0.000 OA
ATOM     25  O   UNL     1       1.871   5.136  20.617  0.00  0.00    +0.000 OA
BRANCH  23  26
ATOM     26  N   UNL     1       2.309   4.797  18.125  0.00  0.00    +0.000 NA
ATOM     27  C   UNL     1       1.223   3.769  18.221  0.00  0.00    +0.000 C 
ATOM     28  C   UNL     1       1.771   2.410  18.690  0.00  0.00    +0.000 C 
ATOM     29  O   UNL     1       2.843   1.954  17.854  0.00  0.00    +0.000 OA
ATOM     30  C   UNL     1       3.921   2.901  17.828  0.00  0.00    +0.000 C 
ATOM     31  C   UNL     1       3.444   4.258  17.306  0.00  0.00    +0.000 C 
ENDBRANCH  23  26
ENDBRANCH  20  23
ENDBRANCH   1  17
TORSDOF 6
ENDMDL
MODEL 7
REMARK VINA RESULT:      -7.7      1.601      2.024
REMARK  Name = 
REMARK  6 active torsions:
REMARK  status: ('A' for Active; 'I' for Inactive)
REMARK    1  A    between atoms: C_2  and  C_26
REMARK    2  A    between atoms: N_3  and  C_4
REMARK    3  A    between atoms: C_7  and  O_8
REMARK    4  A    between atoms: O_8  and  C_9
REMARK    5  A    between atoms: C_12  and  S_13
REMARK    6  A    between atoms: S_13  and  N_16
REMARK                            x       y       z     vdW  Elec       q    Type
REMARK                         _______ _______ _______ _____ _____    ______ ____
ROOT
ATOM      1  O   UNL     1       1.535  10.582  18.549  0.00  0.00    +0.000 OA
ENDROOT
BRANCH   1   5
ATOM      2  C   UNL     1      -1.659  12.380  20.602  0.00  0.00    +0.000 A 
ATOM      3  C   UNL     1      -0.350  12.493  21.074  0.00  0.00    +0.000 A 
ATOM      4  C   UNL     1       0.720  11.943  20.376  0.00  0.00    +0.000 A 
ATOM      5  C   UNL     1       0.500  11.204  19.217  0.00  0.00    +0.000 A 
ATOM      6  C   UNL     1      -0.794  11.123  18.699  0.00  0.00    +0.000 A 
ATOM      7  C   UNL     1      -1.875  11.700  19.395  0.00  0.00    +0.000 A 
BRANCH   2  10
ATOM      8  O   UNL     1      -2.527  11.698  23.294  0.00  0.00    +0.000 OA
ATOM      9  C   UNL     1      -3.169  12.467  22.582  0.00  0.00    +0.000 C 
ATOM     10  N   UNL     1      -2.760  12.901  21.325  0.00  0.00    +0.000 N 
ATOM     11  H   UNL     1      -3.294  13.655  20.911  0.00  0.00    +0.000 HD
BRANCH   9  12
ATOM     12  C   UNL     1      -4.426  13.002  23.057  0.00  0.00    +0.000 A 
ATOM     13  C   UNL     1      -4.731  14.306  23.399  0.00  0.00    +0.000 A 
ATOM     14  C   UNL     1      -6.069  14.310  23.843  0.00  0.00    +0.000 A 
ATOM     15  C   UNL     1      -6.504  13.011  23.752  0.00  0.00    +0.000 A 
ATOM     16  O   UNL     1      -5.516  12.201  23.266  0.00  0.00    +0.000 OA
ENDBRANCH   9  12
ENDBRANCH   2  10
ENDBRANCH   1   5
BRANCH   1  17
ATOM     17  C   UNL     1       1.746   9.232  18.838  0.00  0.00    +0.000 A 
ATOM     18  C   UNL     1       2.275   8.434  17.830  0.00  0.00    +0.000 A 
ATOM     19  C   UNL     1       2.490   7.077  18.097  0.00  0.00    +0.000 A 
ATOM     20  C   UNL     1       2.171   6.577  19.361  0.00  0.00    +0.000 A 
ATOM     21  C   UNL     1       1.640   7.438  20.302  0.00  0.00    +0.000 A 
ATOM     22  N   UNL     1       1.414   8.751  20.063  0.00  0.00    +0.000 NA
BRANCH  20  23
ATOM     23  S   UNL     1       2.264   4.861  19.755  0.00  0.00    +0.000 S 
ATOM     24  O   UNL     1       2.741   4.784  21.118  0.00  0.00    +0.000 OA
ATOM     25  O   UNL     1       1.013   4.248  19.365  0.00  0.00    +0.000 OA
BRANCH  23  26
ATOM     26  N   UNL     1       3.484   4.269  18.726  0.00  0.00    +0.000 NA
ATOM     27  C   UNL     1       3.044   3.545  17.491  0.00  0.00    +0.000 C 
ATOM     28  C   UNL     1       2.733   2.067  17.783  0.00  0.00    +0.000 C 
ATOM     29  O   UNL     1       3.843   1.404  18.404  0.00  0.00    +0.000 OA
ATOM     30  C   UNL     1       4.212   2.048  19.632  0.00  0.00    +0.000 C 
ATOM     31  C   UNL     1       4.595   3.510  19.389  0.00  0.00    +0.000 C 
ENDBRANCH  23  26
ENDBRANCH  20  23
ENDBRANCH   1  17
TORSDOF 6
ENDMDL
MODEL 8
REMARK VINA RESULT:      -7.7      0.988      1.767
REMARK  Name = 
REMARK  6 active torsions:
REMARK  status: ('A' for Active; 'I' for Inactive)
REMARK    1  A    between atoms: C_2  and  C_26
REMARK    2  A    between atoms: N_3  and  C_4
REMARK    3  A    between atoms: C_7  and  O_8
REMARK    4  A    between atoms: O_8  and  C_9
REMARK    5  A    between atoms: C_12  and  S_13
REMARK    6  A    between atoms: S_13  and  N_16
REMARK                            x       y       z     vdW  Elec       q    Type
REMARK                         _______ _______ _______ _____ _____    ______ ____
ROOT
ATOM      1  O   UNL     1       1.843   9.700  17.448  0.00  0.00    +0.000 OA
ENDROOT
BRANCH   1   5
ATOM      2  C   UNL     1      -0.635  11.430  20.367  0.00  0.00    +0.000 A 
ATOM      3  C   UNL     1      -1.164  10.597  19.379  0.00  0.00    +0.000 A 
ATOM      4  C   UNL     1      -0.347   9.981  18.438  0.00  0.00    +0.000 A 
ATOM      5  C   UNL     1       1.021  10.236  18.419  0.00  0.00    +0.000 A 
ATOM      6  C   UNL     1       1.580  11.023  19.428  0.00  0.00    +0.000 A 
ATOM      7  C   UNL     1       0.753  11.629  20.395  0.00  0.00    +0.000 A 
BRANCH   2  10
ATOM      8  O   UNL     1      -0.770  11.031  23.246  0.00  0.00    +0.000 OA
ATOM      9  C   UNL     1      -1.535  11.794  22.661  0.00  0.00    +0.000 C 
ATOM     10  N   UNL     1      -1.462  12.094  21.305  0.00  0.00    +0.000 N 
ATOM     11  H   UNL     1      -2.043  12.856  20.979  0.00  0.00    +0.000 HD
BRANCH   9  12
ATOM     12  C   UNL     1      -2.579  12.467  23.401  0.00  0.00    +0.000 A 
ATOM     13  C   UNL     1      -2.650  13.797  23.774  0.00  0.00    +0.000 A 
ATOM     14  C   UNL     1      -3.839  13.952  24.516  0.00  0.00    +0.000 A 
ATOM     15  C   UNL     1      -4.424  12.711  24.559  0.00  0.00    +0.000 A 
ATOM     16  O   UNL     1      -3.673  11.795  23.877  0.00  0.00    +0.000 OA
ENDBRANCH   9  12
ENDBRANCH   2  10
ENDBRANCH   1   5
BRANCH   1  17
ATOM     17  C   UNL     1       2.504   8.513  17.771  0.00  0.00    +0.000 A 
ATOM     18  C   UNL     1       2.165   7.894  18.968  0.00  0.00    +0.000 A 
ATOM     19  C   UNL     1       2.819   6.705  19.313  0.00  0.00    +0.000 A 
ATOM     20  C   UNL     1       3.780   6.185  18.444  0.00  0.00    +0.000 A 
ATOM     21  C   UNL     1       4.063   6.870  17.278  0.00  0.00    +0.000 A 
ATOM     22  N   UNL     1       3.450   8.026  16.929  0.00  0.00    +0.000 NA
BRANCH  20  23
ATOM     23  S   UNL     1       4.764   4.778  18.848  0.00  0.00    +0.000 S 
ATOM     24  O   UNL     1       5.118   4.157  17.591  0.00  0.00    +0.000 OA
ATOM     25  O   UNL     1       5.782   5.204  19.785  0.00  0.00    +0.000 OA
BRANCH  23  26
ATOM     26  N   UNL     1       3.689   3.748  19.671  0.00  0.00    +0.000 NA
ATOM     27  C   UNL     1       4.064   2.300  19.761  0.00  0.00    +0.000 C 
ATOM     28  C   UNL     1       3.652   1.530  18.495  0.00  0.00    +0.000 C 
ATOM     29  O   UNL     1       2.255   1.686  18.210  0.00  0.00    +0.000 OA
ATOM     30  C   UNL     1       1.911   3.068  18.040  0.00  0.00    +0.000 C 
ATOM     31  C   UNL     1       2.241   3.873  19.300  0.00  0.00    +0.000 C 
ENDBRANCH  23  26
ENDBRANCH  20  23
ENDBRANCH   1  17
TORSDOF 6
ENDMDL
MODEL 9
REMARK VINA RESULT:      -7.6      3.681     10.567
REMARK  Name = 
REMARK  6 active torsions:
REMARK  status: ('A' for Active; 'I' for Inactive)
REMARK    1  A    between atoms: C_2  and  C_26
REMARK    2  A    between atoms: N_3  and  C_4
REMARK    3  A    between atoms: C_7  and  O_8
REMARK    4  A    between atoms: O_8  and  C_9
REMARK    5  A    between atoms: C_12  and  S_13
REMARK    6  A    between atoms: S_13  and  N_16
REMARK                            x       y       z     vdW  Elec       q    Type
REMARK                         _______ _______ _______ _____ _____    ______ ____
ROOT
ATOM      1  O   UNL     1       2.085   6.186  20.590  0.00  0.00    +0.000 OA
ENDROOT
BRANCH   1   5
ATOM      2  C   UNL     1       4.314   4.819  17.301  0.00  0.00    +0.000 A 
ATOM      3  C   UNL     1       4.941   5.438  18.385  0.00  0.00    +0.000 A 
ATOM      4  C   UNL     1       4.218   5.850  19.499  0.00  0.00    +0.000 A 
ATOM      5  C   UNL     1       2.834   5.715  19.531  0.00  0.00    +0.000 A 
ATOM      6  C   UNL     1       2.192   5.052  18.482  0.00  0.00    +0.000 A 
ATOM      7  C   UNL     1       2.928   4.615  17.363  0.00  0.00    +0.000 A 
BRANCH   2  10
ATOM      8  O   UNL     1       5.549   6.528  15.297  0.00  0.00    +0.000 OA
ATOM      9  C   UNL     1       5.527   5.305  15.181  0.00  0.00    +0.000 C 
ATOM     10  N   UNL     1       5.033   4.432  16.144  0.00  0.00    +0.000 N 
ATOM     11  H   UNL     1       5.218   3.448  15.999  0.00  0.00    +0.000 HD
BRANCH   9  12
ATOM     12  C   UNL     1       6.066   4.690  13.988  0.00  0.00    +0.000 A 
ATOM     13  C   UNL     1       5.579   3.603  13.286  0.00  0.00    +0.000 A 
ATOM     14  C   UNL     1       6.478   3.364  12.227  0.00  0.00    +0.000 A 
ATOM     15  C   UNL     1       7.464   4.312  12.343  0.00  0.00    +0.000 A 
ATOM     16  O   UNL     1       7.223   5.135  13.407  0.00  0.00    +0.000 OA
ENDBRANCH   9  12
ENDBRANCH   2  10
ENDBRANCH   1   5
BRANCH   1  17
ATOM     17  C   UNL     1       1.596   7.489  20.481  0.00  0.00    +0.000 A 
ATOM     18  C   UNL     1       0.904   8.009  21.569  0.00  0.00    +0.000 A 
ATOM     19  C   UNL     1       0.400   9.312  21.478  0.00  0.00    +0.000 A 
ATOM     20  C   UNL     1       0.614  10.040  20.307  0.00  0.00    +0.000 A 
ATOM     21  C   UNL     1       1.305   9.444  19.269  0.00  0.00    +0.000 A 
ATOM     22  N   UNL     1       1.792   8.182  19.331  0.00  0.00    +0.000 NA
BRANCH  20  23
ATOM     23  S   UNL     1      -0.099  11.630  20.033  0.00  0.00    +0.000 S 
ATOM     24  O   UNL     1      -0.096  11.834  18.601  0.00  0.00    +0.000 OA
ATOM     25  O   UNL     1      -1.328  11.702  20.795  0.00  0.00    +0.000 OA
BRANCH  23  26
ATOM     26  N   UNL     1       1.018  12.707  20.730  0.00  0.00    +0.000 NA
ATOM     27  C   UNL     1       0.470  13.772  21.630  0.00  0.00    +0.000 C 
ATOM     28  C   UNL     1      -0.028  14.988  20.829  0.00  0.00    +0.000 C 
ATOM     29  O   UNL     1       0.994  15.511  19.970  0.00  0.00    +0.000 OA
ATOM     30  C   UNL     1       1.461  14.514  19.051  0.00  0.00    +0.000 C 
ATOM     31  C   UNL     1       2.029  13.304  19.798  0.00  0.00    +0.000 C 
ENDBRANCH  23  26
ENDBRANCH  20  23
ENDBRANCH   1  17
TORSDOF 6
ENDMDL
