MODEL 1
REMARK VINA RESULT:      -8.5      0.000      0.000
REMARK  Name = 
REMARK  8 active torsions:
REMARK  status: ('A' for Active; 'I' for Inactive)
REMARK    1  A    between atoms: C_1  and  O_2
REMARK    2  A    between atoms: O_2  and  C_3
REMARK    3  A    between atoms: C_8  and  C_9
REMARK    4  A    between atoms: C_9  and  C_10
REMARK    5  A    between atoms: C_9  and  N_26
REMARK    6  A    between atoms: C_10  and  N_11
REMARK    7  A    between atoms: C_12  and  C_14
REMARK    8  A    between atoms: C_17  and  C_18
REMARK                            x       y       z     vdW  Elec       q    Type
REMARK                         _______ _______ _______ _____ _____    ______ ____
ROOT
ATOM      1  N   UNL     1       1.935   7.049  18.529  0.00  0.00    +0.000 N 
ATOM      2  C   UNL     1       2.350   8.180  17.870  0.00  0.00    +0.000 C 
ATOM      3  O   UNL     1       3.089   8.120  16.895  0.00  0.00    +0.000 OA
ATOM      4  H   UNL     1       1.281   7.150  19.296  0.00  0.00    +0.000 HD
ENDROOT
BRANCH   2   5
ATOM      5  C   UNL     1       1.838   9.443  18.403  0.00  0.00    +0.000 A 
ATOM      6  C   UNL     1       2.102  10.738  18.008  0.00  0.00    +0.000 A 
ATOM      7  C   UNL     1       1.348  11.590  18.848  0.00  0.00    +0.000 A 
ATOM      8  C   UNL     1       0.676  10.782  19.747  0.00  0.00    +0.000 A 
ATOM      9  O   UNL     1       0.951   9.464  19.455  0.00  0.00    +0.000 OA
BRANCH   8  10
ATOM     10  C   UNL     1      -0.232  11.033  20.873  0.00  0.00    +0.000 A 
ATOM     11  C   UNL     1      -1.264  11.979  20.715  0.00  0.00    +0.000 A 
ATOM     12  C   UNL     1      -2.150  12.280  21.757  0.00  0.00    +0.000 A 
ATOM     13  C   UNL     1      -2.029  11.639  22.986  0.00  0.00    +0.000 A 
ATOM     14  C   UNL     1      -1.023  10.696  23.167  0.00  0.00    +0.000 A 
ATOM     15  C   UNL     1      -0.129  10.392  22.126  0.00  0.00    +0.000 A 
ATOM     16 CL   UNL     1       1.047   9.172  22.480  0.00  0.00    +0.000 Cl
ENDBRANCH   8  10
ENDBRANCH   2   5
BRANCH   1  17
ATOM     17  C   UNL     1       2.324   5.695  18.110  0.00  0.00    +0.000 C 
BRANCH  17  18
ATOM     18  C   UNL     1       3.579   5.174  18.879  0.00  0.00    +0.000 C 
BRANCH  18  24
ATOM     19  C   UNL     1       6.109   4.862  18.389  0.00  0.00    +0.000 A 
ATOM     20  C   UNL     1       7.170   4.644  17.486  0.00  0.00    +0.000 A 
ATOM     21  C   UNL     1       6.912   4.341  16.150  0.00  0.00    +0.000 A 
ATOM     22  C   UNL     1       5.600   4.282  15.711  0.00  0.00    +0.000 A 
ATOM     23  C   UNL     1       4.542   4.550  16.598  0.00  0.00    +0.000 A 
ATOM     24  C   UNL     1       4.764   4.847  17.953  0.00  0.00    +0.000 A 
BRANCH  19  26
ATOM     25  C   UNL     1       7.845   5.685  19.730  0.00  0.00    +0.000 C 
ATOM     26  O   UNL     1       6.518   5.169  19.661  0.00  0.00    +0.000 OA
ENDBRANCH  19  26
ENDBRANCH  18  24
BRANCH  18  27
ATOM     27  N   UNL     1       3.257   4.141  19.869  0.00  0.00    +0.000 NA
ATOM     28  C   UNL     1       3.255   2.738  19.536  0.00  0.00    +0.000 C 
ATOM     29  C   UNL     1       1.891   2.267  20.000  0.00  0.00    +0.000 C 
ATOM     30  C   UNL     1       1.523   3.192  21.151  0.00  0.00    +0.000 C 
ATOM     31  C   UNL     1       2.472   4.383  21.057  0.00  0.00    +0.000 C 
ENDBRANCH  18  27
ENDBRANCH  17  18
ENDBRANCH   1  17
TORSDOF 7
ENDMDL
MODEL 2
REMARK VINA RESULT:      -8.3      1.764      2.333
REMARK  Name = 
REMARK  8 active torsions:
REMARK  status: ('A' for Active; 'I' for Inactive)
REMARK    1  A    between atoms: C_1  and  O_2
REMARK    2  A    between atoms: O_2  and  C_3
REMARK    3  A    between atoms: C_8  and  C_9
REMARK    4  A    between atoms: C_9  and  C_10
REMARK    5  A    between atoms: C_9  and  N_26
REMARK    6  A    between atoms: C_10  and  N_11
REMARK    7  A    between atoms: C_12  and  C_14
REMARK    8  A    between atoms: C_17  and  C_18
REMARK                            x       y       z     vdW  Elec       q    Type
REMARK                         _______ _______ _______ _____ _____    ______ ____
ROOT
ATOM      1  N   UNL     1       3.713   6.002  19.094  0.00  0.00    +0.000 N 
ATOM      2  C   UNL     1       2.577   6.571  19.612  0.00  0.00    +0.000 C 
ATOM      3  O   UNL     1       1.984   6.074  20.562  0.00  0.00    +0.000 OA
ATOM      4  H   UNL     1       4.195   6.482  18.344  0.00  0.00    +0.000 HD
ENDROOT
BRANCH   2   5
ATOM      5  C   UNL     1       2.141   7.809  18.963  0.00  0.00    +0.000 A 
ATOM      6  C   UNL     1       2.692   8.486  17.894  0.00  0.00    +0.000 A 
ATOM      7  C   UNL     1       1.884   9.622  17.662  0.00  0.00    +0.000 A 
ATOM      8  C   UNL     1       0.886   9.614  18.619  0.00  0.00    +0.000 A 
ATOM      9  O   UNL     1       1.024   8.485  19.399  0.00  0.00    +0.000 OA
BRANCH   8  10
ATOM     10  C   UNL     1      -0.235  10.505  18.943  0.00  0.00    +0.000 A 
ATOM     11  C   UNL     1      -1.427  10.393  18.200  0.00  0.00    +0.000 A 
ATOM     12  C   UNL     1      -2.526  11.226  18.443  0.00  0.00    +0.000 A 
ATOM     13  C   UNL     1      -2.461  12.195  19.440  0.00  0.00    +0.000 A 
ATOM     14  C   UNL     1      -1.299  12.323  20.192  0.00  0.00    +0.000 A 
ATOM     15  C   UNL     1      -0.193  11.491  19.951  0.00  0.00    +0.000 A 
ATOM     16 CL   UNL     1       1.171  11.736  20.989  0.00  0.00    +0.000 Cl
ENDBRANCH   8  10
ENDBRANCH   2   5
BRANCH   1  17
ATOM     17  C   UNL     1       4.312   4.777  19.644  0.00  0.00    +0.000 C 
BRANCH  17  18
ATOM     18  C   UNL     1       4.515   3.677  18.554  0.00  0.00    +0.000 C 
BRANCH  18  24
ATOM     19  C   UNL     1       6.717   4.545  17.487  0.00  0.00    +0.000 A 
ATOM     20  C   UNL     1       7.430   5.060  16.386  0.00  0.00    +0.000 A 
ATOM     21  C   UNL     1       6.835   5.135  15.128  0.00  0.00    +0.000 A 
ATOM     22  C   UNL     1       5.523   4.721  14.975  0.00  0.00    +0.000 A 
ATOM     23  C   UNL     1       4.792   4.253  16.083  0.00  0.00    +0.000 A 
ATOM     24  C   UNL     1       5.363   4.154  17.363  0.00  0.00    +0.000 A 
BRANCH  19  26
ATOM     25  C   UNL     1       7.807   5.856  19.093  0.00  0.00    +0.000 C 
ATOM     26  O   UNL     1       7.426   4.552  18.660  0.00  0.00    +0.000 OA
ENDBRANCH  19  26
ENDBRANCH  18  24
BRANCH  18  27
ATOM     27  N   UNL     1       3.272   2.986  18.198  0.00  0.00    +0.000 NA
ATOM     28  C   UNL     1       2.158   3.679  17.596  0.00  0.00    +0.000 C 
ATOM     29  C   UNL     1       0.991   3.316  18.491  0.00  0.00    +0.000 C 
ATOM     30  C   UNL     1       1.341   1.950  19.065  0.00  0.00    +0.000 C 
ATOM     31  C   UNL     1       2.832   1.754  18.811  0.00  0.00    +0.000 C 
ENDBRANCH  18  27
ENDBRANCH  17  18
ENDBRANCH   1  17
TORSDOF 7
ENDMDL
MODEL 3
REMARK VINA RESULT:      -8.3      1.809      2.453
REMARK  Name = 
REMARK  8 active torsions:
REMARK  status: ('A' for Active; 'I' for Inactive)
REMARK    1  A    between atoms: C_1  and  O_2
REMARK    2  A    between atoms: O_2  and  C_3
REMARK    3  A    between atoms: C_8  and  C_9
REMARK    4  A    between atoms: C_9  and  C_10
REMARK    5  A    between atoms: C_9  and  N_26
REMARK    6  A    between atoms: C_10  and  N_11
REMARK    7  A    between atoms: C_12  and  C_14
REMARK    8  A    between atoms: C_17  and  C_18
REMARK                            x       y       z     vdW  Elec       q    Type
REMARK                         _______ _______ _______ _____ _____    ______ ____
ROOT
ATOM      1  N   UNL     1       3.798   5.923  19.103  0.00  0.00    +0.000 N 
ATOM      2  C   UNL     1       2.644   6.451  19.628  0.00  0.00    +0.000 C 
ATOM      3  O   UNL     1       2.038   5.896  20.537  0.00  0.00    +0.000 OA
ATOM      4  H   UNL     1       4.288   6.448  18.390  0.00  0.00    +0.000 HD
ENDROOT
BRANCH   2   5
ATOM      5  C   UNL     1       2.206   7.717  19.037  0.00  0.00    +0.000 A 
ATOM      6  C   UNL     1       2.353   8.186  17.749  0.00  0.00    +0.000 A 
ATOM      7  C   UNL     1       1.748   9.463  17.701  0.00  0.00    +0.000 A 
ATOM      8  C   UNL     1       1.282   9.739  18.973  0.00  0.00    +0.000 A 
ATOM      9  O   UNL     1       1.534   8.655  19.786  0.00  0.00    +0.000 OA
BRANCH   8  10
ATOM     10  C   UNL     1       0.597  10.881  19.591  0.00  0.00    +0.000 A 
ATOM     11  C   UNL     1      -0.518  10.638  20.418  0.00  0.00    +0.000 A 
ATOM     12  C   UNL     1      -1.229  11.684  21.019  0.00  0.00    +0.000 A 
ATOM     13  C   UNL     1      -0.841  13.004  20.811  0.00  0.00    +0.000 A 
ATOM     14  C   UNL     1       0.260  13.272  20.005  0.00  0.00    +0.000 A 
ATOM     15  C   UNL     1       0.975  12.227  19.397  0.00  0.00    +0.000 A 
ATOM     16 CL   UNL     1       2.345  12.705  18.452  0.00  0.00    +0.000 Cl
ENDBRANCH   8  10
ENDBRANCH   2   5
BRANCH   1  17
ATOM     17  C   UNL     1       4.401   4.677  19.599  0.00  0.00    +0.000 C 
BRANCH  17  18
ATOM     18  C   UNL     1       4.561   3.608  18.472  0.00  0.00    +0.000 C 
BRANCH  18  24
ATOM     19  C   UNL     1       6.725   4.550  17.390  0.00  0.00    +0.000 A 
ATOM     20  C   UNL     1       7.414   5.086  16.283  0.00  0.00    +0.000 A 
ATOM     21  C   UNL     1       6.811   5.133  15.028  0.00  0.00    +0.000 A 
ATOM     22  C   UNL     1       5.514   4.671  14.883  0.00  0.00    +0.000 A 
ATOM     23  C   UNL     1       4.806   4.182  15.996  0.00  0.00    +0.000 A 
ATOM     24  C   UNL     1       5.386   4.110  17.274  0.00  0.00    +0.000 A 
BRANCH  19  26
ATOM     25  C   UNL     1       7.786   5.907  18.978  0.00  0.00    +0.000 C 
ATOM     26  O   UNL     1       7.438   4.589  18.560  0.00  0.00    +0.000 OA
ENDBRANCH  19  26
ENDBRANCH  18  24
BRANCH  18  27
ATOM     27  N   UNL     1       3.299   2.945  18.127  0.00  0.00    +0.000 NA
ATOM     28  C   UNL     1       2.223   3.646  17.470  0.00  0.00    +0.000 C 
ATOM     29  C   UNL     1       1.027   3.370  18.359  0.00  0.00    +0.000 C 
ATOM     30  C   UNL     1       1.317   2.024  19.007  0.00  0.00    +0.000 C 
ATOM     31  C   UNL     1       2.804   1.762  18.791  0.00  0.00    +0.000 C 
ENDBRANCH  18  27
ENDBRANCH  17  18
ENDBRANCH   1  17
TORSDOF 7
ENDMDL
MODEL 4
REMARK VINA RESULT:      -8.3      1.897      2.449
REMARK  Name = 
REMARK  8 active torsions:
REMARK  status: ('A' for Active; 'I' for Inactive)
REMARK    1  A    between atoms: C_1  and  O_2
REMARK    2  A    between atoms: O_2  and  C_3
REMARK    3  A    between atoms: C_8  and  C_9
REMARK    4  A    between atoms: C_9  and  C_10
REMARK    5  A    between atoms: C_9  and  N_26
REMARK    6  A    between atoms: C_10  and  N_11
REMARK    7  A    between atoms: C_12  and  C_14
REMARK    8  A    between atoms: C_17  and  C_18
REMARK                            x       y       z     vdW  Elec       q    Type
REMARK                         _______ _______ _______ _____ _____    ______ ____
ROOT
ATOM      1  N   UNL     1       3.868   5.935  19.116  0.00  0.00    +0.000 N 
ATOM      2  C   UNL     1       2.690   6.417  19.629  0.00  0.00    +0.000 C 
ATOM      3  O   UNL     1       2.077   5.817  20.504  0.00  0.00    +0.000 OA
ATOM      4  H   UNL     1       4.363   6.497  18.434  0.00  0.00    +0.000 HD
ENDROOT
BRANCH   2   5
ATOM      5  C   UNL     1       2.235   7.693  19.072  0.00  0.00    +0.000 A 
ATOM      6  C   UNL     1       2.554   8.294  17.872  0.00  0.00    +0.000 A 
ATOM      7  C   UNL     1       1.842   9.514  17.818  0.00  0.00    +0.000 A 
ATOM      8  C   UNL     1       1.139   9.626  19.002  0.00  0.00    +0.000 A 
ATOM      9  O   UNL     1       1.354   8.495  19.759  0.00  0.00    +0.000 OA
BRANCH   8  10
ATOM     10  C   UNL     1       0.247  10.642  19.575  0.00  0.00    +0.000 A 
ATOM     11  C   UNL     1       0.694  11.394  20.680  0.00  0.00    +0.000 A 
ATOM     12  C   UNL     1      -0.115  12.362  21.287  0.00  0.00    +0.000 A 
ATOM     13  C   UNL     1      -1.395  12.607  20.801  0.00  0.00    +0.000 A 
ATOM     14  C   UNL     1      -1.860  11.885  19.708  0.00  0.00    +0.000 A 
ATOM     15  C   UNL     1      -1.054  10.910  19.097  0.00  0.00    +0.000 A 
ATOM     16 CL   UNL     1      -1.746  10.116  17.723  0.00  0.00    +0.000 Cl
ENDBRANCH   8  10
ENDBRANCH   2   5
BRANCH   1  17
ATOM     17  C   UNL     1       4.490   4.687  19.584  0.00  0.00    +0.000 C 
BRANCH  17  18
ATOM     18  C   UNL     1       4.634   3.633  18.440  0.00  0.00    +0.000 C 
BRANCH  18  24
ATOM     19  C   UNL     1       6.563   4.972  17.333  0.00  0.00    +0.000 A 
ATOM     20  C   UNL     1       7.189   5.511  16.190  0.00  0.00    +0.000 A 
ATOM     21  C   UNL     1       6.718   5.206  14.914  0.00  0.00    +0.000 A 
ATOM     22  C   UNL     1       5.611   4.386  14.780  0.00  0.00    +0.000 A 
ATOM     23  C   UNL     1       4.954   3.887  15.920  0.00  0.00    +0.000 A 
ATOM     24  C   UNL     1       5.407   4.165  17.221  0.00  0.00    +0.000 A 
BRANCH  19  26
ATOM     25  C   UNL     1       7.806   6.626  18.431  0.00  0.00    +0.000 C 
ATOM     26  O   UNL     1       7.125   5.377  18.516  0.00  0.00    +0.000 OA
ENDBRANCH  19  26
ENDBRANCH  18  24
BRANCH  18  27
ATOM     27  N   UNL     1       3.375   2.948  18.131  0.00  0.00    +0.000 NA
ATOM     28  C   UNL     1       2.303   3.603  17.422  0.00  0.00    +0.000 C 
ATOM     29  C   UNL     1       1.101   3.384  18.319  0.00  0.00    +0.000 C 
ATOM     30  C   UNL     1       1.388   2.084  19.056  0.00  0.00    +0.000 C 
ATOM     31  C   UNL     1       2.876   1.810  18.868  0.00  0.00    +0.000 C 
ENDBRANCH  18  27
ENDBRANCH  17  18
ENDBRANCH   1  17
TORSDOF 7
ENDMDL
MODEL 5
REMARK VINA RESULT:      -8.3      1.525      2.100
REMARK  Name = 
REMARK  8 active torsions:
REMARK  status: ('A' for Active; 'I' for Inactive)
REMARK    1  A    between atoms: C_1  and  O_2
REMARK    2  A    between atoms: O_2  and  C_3
REMARK    3  A    between atoms: C_8  and  C_9
REMARK    4  A    between atoms: C_9  and  C_10
REMARK    5  A    between atoms: C_9  and  N_26
REMARK    6  A    between atoms: C_10  and  N_11
REMARK    7  A    between atoms: C_12  and  C_14
REMARK    8  A    between atoms: C_17  and  C_18
REMARK                            x       y       z     vdW  Elec       q    Type
REMARK                         _______ _______ _______ _____ _____    ______ ____
ROOT
ATOM      1  N   UNL     1       2.403   7.300  19.382  0.00  0.00    +0.000 N 
ATOM      2  C   UNL     1       1.641   8.437  19.281  0.00  0.00    +0.000 C 
ATOM      3  O   UNL     1       1.396   8.953  18.197  0.00  0.00    +0.000 OA
ATOM      4  H   UNL     1       2.531   6.884  20.296  0.00  0.00    +0.000 HD
ENDROOT
BRANCH   2   5
ATOM      5  C   UNL     1       1.137   8.972  20.547  0.00  0.00    +0.000 A 
ATOM      6  C   UNL     1       1.167   8.420  21.811  0.00  0.00    +0.000 A 
ATOM      7  C   UNL     1       0.551   9.347  22.683  0.00  0.00    +0.000 A 
ATOM      8  C   UNL     1       0.139  10.418  21.911  0.00  0.00    +0.000 A 
ATOM      9  O   UNL     1       0.527  10.204  20.606  0.00  0.00    +0.000 OA
BRANCH   8  10
ATOM     10  C   UNL     1      -0.571  11.672  22.190  0.00  0.00    +0.000 A 
ATOM     11  C   UNL     1      -1.772  11.623  22.925  0.00  0.00    +0.000 A 
ATOM     12  C   UNL     1      -2.510  12.780  23.206  0.00  0.00    +0.000 A 
ATOM     13  C   UNL     1      -2.062  14.020  22.761  0.00  0.00    +0.000 A 
ATOM     14  C   UNL     1      -0.875  14.098  22.040  0.00  0.00    +0.000 A 
ATOM     15  C   UNL     1      -0.133  12.941  21.753  0.00  0.00    +0.000 A 
ATOM     16 CL   UNL     1       1.342  13.192  20.881  0.00  0.00    +0.000 Cl
ENDBRANCH   8  10
ENDBRANCH   2   5
BRANCH   1  17
ATOM     17  C   UNL     1       2.961   6.608  18.210  0.00  0.00    +0.000 C 
BRANCH  17  18
ATOM     18  C   UNL     1       3.825   5.370  18.610  0.00  0.00    +0.000 C 
BRANCH  18  24
ATOM     19  C   UNL     1       6.254   4.729  17.954  0.00  0.00    +0.000 A 
ATOM     20  C   UNL     1       7.251   4.524  16.980  0.00  0.00    +0.000 A 
ATOM     21  C   UNL     1       6.935   4.561  15.623  0.00  0.00    +0.000 A 
ATOM     22  C   UNL     1       5.631   4.828  15.240  0.00  0.00    +0.000 A 
ATOM     23  C   UNL     1       4.645   5.084  16.209  0.00  0.00    +0.000 A 
ATOM     24  C   UNL     1       4.925   5.044  17.585  0.00  0.00    +0.000 A 
BRANCH  19  26
ATOM     25  C   UNL     1       7.618   5.739  19.568  0.00  0.00    +0.000 C 
ATOM     26  O   UNL     1       6.719   4.682  19.243  0.00  0.00    +0.000 OA
ENDBRANCH  19  26
ENDBRANCH  18  24
BRANCH  18  27
ATOM     27  N   UNL     1       3.019   4.225  19.047  0.00  0.00    +0.000 NA
ATOM     28  C   UNL     1       1.635   4.077  18.669  0.00  0.00    +0.000 C 
ATOM     29  C   UNL     1       0.928   3.870  19.993  0.00  0.00    +0.000 C 
ATOM     30  C   UNL     1       1.964   3.222  20.899  0.00  0.00    +0.000 C 
ATOM     31  C   UNL     1       3.313   3.436  20.220  0.00  0.00    +0.000 C 
ENDBRANCH  18  27
ENDBRANCH  17  18
ENDBRANCH   1  17
TORSDOF 7
ENDMDL
MODEL 6
REMARK VINA RESULT:      -8.2      1.144      1.445
REMARK  Name = 
REMARK  8 active torsions:
REMARK  status: ('A' for Active; 'I' for Inactive)
REMARK    1  A    between atoms: C_1  and  O_2
REMARK    2  A    between atoms: O_2  and  C_3
REMARK    3  A    between atoms: C_8  and  C_9
REMARK    4  A    between atoms: C_9  and  C_10
REMARK    5  A    between atoms: C_9  and  N_26
REMARK    6  A    between atoms: C_10  and  N_11
REMARK    7  A    between atoms: C_12  and  C_14
REMARK    8  A    between atoms: C_17  and  C_18
REMARK                            x       y       z     vdW  Elec       q    Type
REMARK                         _______ _______ _______ _____ _____    ______ ____
ROOT
ATOM      1  N   UNL     1       1.975   6.431  18.173  0.00  0.00    +0.000 N 
ATOM      2  C   UNL     1       2.679   7.567  17.859  0.00  0.00    +0.000 C 
ATOM      3  O   UNL     1       3.719   7.520  17.213  0.00  0.00    +0.000 OA
ATOM      4  H   UNL     1       1.094   6.529  18.663  0.00  0.00    +0.000 HD
ENDROOT
BRANCH   2   5
ATOM      5  C   UNL     1       2.095   8.822  18.336  0.00  0.00    +0.000 A 
ATOM      6  C   UNL     1       2.164  10.088  17.794  0.00  0.00    +0.000 A 
ATOM      7  C   UNL     1       1.425  10.943  18.643  0.00  0.00    +0.000 A 
ATOM      8  C   UNL     1       0.957  10.171  19.689  0.00  0.00    +0.000 A 
ATOM      9  O   UNL     1       1.341   8.863  19.486  0.00  0.00    +0.000 OA
BRANCH   8  10
ATOM     10  C   UNL     1       0.165  10.445  20.895  0.00  0.00    +0.000 A 
ATOM     11  C   UNL     1       0.219   9.530  21.966  0.00  0.00    +0.000 A 
ATOM     12  C   UNL     1      -0.528   9.721  23.134  0.00  0.00    +0.000 A 
ATOM     13  C   UNL     1      -1.349  10.837  23.265  0.00  0.00    +0.000 A 
ATOM     14  C   UNL     1      -1.416  11.760  22.226  0.00  0.00    +0.000 A 
ATOM     15  C   UNL     1      -0.670  11.572  21.050  0.00  0.00    +0.000 A 
ATOM     16 CL   UNL     1      -0.822  12.818  19.859  0.00  0.00    +0.000 Cl
ENDBRANCH   8  10
ENDBRANCH   2   5
BRANCH   1  17
ATOM     17  C   UNL     1       2.396   5.089  17.745  0.00  0.00    +0.000 C 
BRANCH  17  18
ATOM     18  C   UNL     1       3.611   4.559  18.570  0.00  0.00    +0.000 C 
BRANCH  18  24
ATOM     19  C   UNL     1       6.183   4.678  18.236  0.00  0.00    +0.000 A 
ATOM     20  C   UNL     1       7.320   4.606  17.405  0.00  0.00    +0.000 A 
ATOM     21  C   UNL     1       7.204   4.194  16.079  0.00  0.00    +0.000 A 
ATOM     22  C   UNL     1       5.953   3.880  15.575  0.00  0.00    +0.000 A 
ATOM     23  C   UNL     1       4.811   3.999  16.387  0.00  0.00    +0.000 A 
ATOM     24  C   UNL     1       4.891   4.401  17.731  0.00  0.00    +0.000 A 
BRANCH  19  26
ATOM     25  C   UNL     1       7.714   5.765  19.636  0.00  0.00    +0.000 C 
ATOM     26  O   UNL     1       6.451   5.118  19.506  0.00  0.00    +0.000 OA
ENDBRANCH  19  26
ENDBRANCH  18  24
BRANCH  18  27
ATOM     27  N   UNL     1       3.273   3.408  19.414  0.00  0.00    +0.000 NA
ATOM     28  C   UNL     1       2.316   2.411  18.999  0.00  0.00    +0.000 C 
ATOM     29  C   UNL     1       1.347   2.346  20.162  0.00  0.00    +0.000 C 
ATOM     30  C   UNL     1       2.167   2.737  21.384  0.00  0.00    +0.000 C 
ATOM     31  C   UNL     1       3.439   3.386  20.849  0.00  0.00    +0.000 C 
ENDBRANCH  18  27
ENDBRANCH  17  18
ENDBRANCH   1  17
TORSDOF 7
ENDMDL
MODEL 7
REMARK VINA RESULT:      -8.2      1.605      2.161
REMARK  Name = 
REMARK  8 active torsions:
REMARK  status: ('A' for Active; 'I' for Inactive)
REMARK    1  A    between atoms: C_1  and  O_2
REMARK    2  A    between atoms: O_2  and  C_3
REMARK    3  A    between atoms: C_8  and  C_9
REMARK    4  A    between atoms: C_9  and  C_10
REMARK    5  A    between atoms: C_9  and  N_26
REMARK    6  A    between atoms: C_10  and  N_11
REMARK    7  A    between atoms: C_12  and  C_14
REMARK    8  A    between atoms: C_17  and  C_18
REMARK                            x       y       z     vdW  Elec       q    Type
REMARK                         _______ _______ _______ _____ _____    ______ ____
ROOT
ATOM      1  N   UNL     1       2.210   7.197  19.586  0.00  0.00    +0.000 N 
ATOM      2  C   UNL     1       1.695   8.466  19.489  0.00  0.00    +0.000 C 
ATOM      3  O   UNL     1       1.723   9.092  18.437  0.00  0.00    +0.000 OA
ATOM      4  H   UNL     1       2.113   6.702  20.464  0.00  0.00    +0.000 HD
ENDROOT
BRANCH   2   5
ATOM      5  C   UNL     1       1.103   9.000  20.717  0.00  0.00    +0.000 A 
ATOM      6  C   UNL     1       1.033   8.443  21.977  0.00  0.00    +0.000 A 
ATOM      7  C   UNL     1       0.362   9.372  22.804  0.00  0.00    +0.000 A 
ATOM      8  C   UNL     1       0.019  10.450  22.009  0.00  0.00    +0.000 A 
ATOM      9  O   UNL     1       0.501  10.237  20.736  0.00  0.00    +0.000 OA
BRANCH   8  10
ATOM     10  C   UNL     1      -0.699  11.710  22.240  0.00  0.00    +0.000 A 
ATOM     11  C   UNL     1      -1.947  11.670  22.893  0.00  0.00    +0.000 A 
ATOM     12  C   UNL     1      -2.693  12.833  23.124  0.00  0.00    +0.000 A 
ATOM     13  C   UNL     1      -2.207  14.069  22.711  0.00  0.00    +0.000 A 
ATOM     14  C   UNL     1      -0.974  14.138  22.070  0.00  0.00    +0.000 A 
ATOM     15  C   UNL     1      -0.223  12.975  21.833  0.00  0.00    +0.000 A 
ATOM     16 CL   UNL     1       1.308  13.214  21.061  0.00  0.00    +0.000 Cl
ENDBRANCH   8  10
ENDBRANCH   2   5
BRANCH   1  17
ATOM     17  C   UNL     1       2.810   6.492  18.444  0.00  0.00    +0.000 C 
BRANCH  17  18
ATOM     18  C   UNL     1       3.661   5.260  18.890  0.00  0.00    +0.000 C 
BRANCH  18  24
ATOM     19  C   UNL     1       6.180   4.940  18.347  0.00  0.00    +0.000 A 
ATOM     20  C   UNL     1       7.222   4.741  17.419  0.00  0.00    +0.000 A 
ATOM     21  C   UNL     1       6.938   4.482  16.079  0.00  0.00    +0.000 A 
ATOM     22  C   UNL     1       5.619   4.449  15.661  0.00  0.00    +0.000 A 
ATOM     23  C   UNL     1       4.579   4.698  16.574  0.00  0.00    +0.000 A 
ATOM     24  C   UNL     1       4.826   4.952  17.934  0.00  0.00    +0.000 A 
BRANCH  19  26
ATOM     25  C   UNL     1       7.951   5.691  19.683  0.00  0.00    +0.000 C 
ATOM     26  O   UNL     1       6.613   5.204  19.620  0.00  0.00    +0.000 OA
ENDBRANCH  19  26
ENDBRANCH  18  24
BRANCH  18  27
ATOM     27  N   UNL     1       2.842   4.105  19.269  0.00  0.00    +0.000 NA
ATOM     28  C   UNL     1       3.430   2.846  19.659  0.00  0.00    +0.000 C 
ATOM     29  C   UNL     1       2.742   1.840  18.758  0.00  0.00    +0.000 C 
ATOM     30  C   UNL     1       1.379   2.446  18.456  0.00  0.00    +0.000 C 
ATOM     31  C   UNL     1       1.473   3.917  18.848  0.00  0.00    +0.000 C 
ENDBRANCH  18  27
ENDBRANCH  17  18
ENDBRANCH   1  17
TORSDOF 7
ENDMDL
MODEL 8
REMARK VINA RESULT:      -8.1      1.608      2.218
REMARK  Name = 
REMARK  8 active torsions:
REMARK  status: ('A' for Active; 'I' for Inactive)
REMARK    1  A    between atoms: C_1  and  O_2
REMARK    2  A    between atoms: O_2  and  C_3
REMARK    3  A    between atoms: C_8  and  C_9
REMARK    4  A    between atoms: C_9  and  C_10
REMARK    5  A    between atoms: C_9  and  N_26
REMARK    6  A    between atoms: C_10  and  N_11
REMARK    7  A    between atoms: C_12  and  C_14
REMARK    8  A    between atoms: C_17  and  C_18
REMARK                            x       y       z     vdW  Elec       q    Type
REMARK                         _______ _______ _______ _____ _____    ______ ____
ROOT
ATOM      1  N   UNL     1       3.932   5.730  19.201  0.00  0.00    +0.000 N 
ATOM      2  C   UNL     1       2.769   6.129  19.812  0.00  0.00    +0.000 C 
ATOM      3  O   UNL     1       2.239   5.456  20.688  0.00  0.00    +0.000 OA
ATOM      4  H   UNL     1       4.357   6.349  18.522  0.00  0.00    +0.000 HD
ENDROOT
BRANCH   2   5
ATOM      5  C   UNL     1       2.225   7.410  19.356  0.00  0.00    +0.000 A 
ATOM      6  C   UNL     1       2.167   7.940  18.084  0.00  0.00    +0.000 A 
ATOM      7  C   UNL     1       1.541   9.203  18.189  0.00  0.00    +0.000 A 
ATOM      8  C   UNL     1       1.269   9.410  19.528  0.00  0.00    +0.000 A 
ATOM      9  O   UNL     1       1.659   8.298  20.242  0.00  0.00    +0.000 OA
BRANCH   8  10
ATOM     10  C   UNL     1       0.666  10.507  20.296  0.00  0.00    +0.000 A 
ATOM     11  C   UNL     1       0.903  11.834  19.885  0.00  0.00    +0.000 A 
ATOM     12  C   UNL     1       0.377  12.926  20.585  0.00  0.00    +0.000 A 
ATOM     13  C   UNL     1      -0.405  12.719  21.718  0.00  0.00    +0.000 A 
ATOM     14  C   UNL     1      -0.661  11.419  22.142  0.00  0.00    +0.000 A 
ATOM     15  C   UNL     1      -0.133  10.320  21.444  0.00  0.00    +0.000 A 
ATOM     16 CL   UNL     1      -0.564   8.762  22.063  0.00  0.00    +0.000 Cl
ENDBRANCH   8  10
ENDBRANCH   2   5
BRANCH   1  17
ATOM     17  C   UNL     1       4.635   4.489  19.559  0.00  0.00    +0.000 C 
BRANCH  17  18
ATOM     18  C   UNL     1       4.713   3.488  18.363  0.00  0.00    +0.000 C 
BRANCH  18  24
ATOM     19  C   UNL     1       6.800   4.524  17.218  0.00  0.00    +0.000 A 
ATOM     20  C   UNL     1       7.423   5.118  16.101  0.00  0.00    +0.000 A 
ATOM     21  C   UNL     1       6.758   5.195  14.877  0.00  0.00    +0.000 A 
ATOM     22  C   UNL     1       5.468   4.705  14.776  0.00  0.00    +0.000 A 
ATOM     23  C   UNL     1       4.826   4.158  15.902  0.00  0.00    +0.000 A 
ATOM     24  C   UNL     1       5.468   4.054  17.148  0.00  0.00    +0.000 A 
BRANCH  19  26
ATOM     25  C   UNL     1       7.832   5.848  18.852  0.00  0.00    +0.000 C 
ATOM     26  O   UNL     1       7.567   4.539  18.353  0.00  0.00    +0.000 OA
ENDBRANCH  19  26
ENDBRANCH  18  24
BRANCH  18  27
ATOM     27  N   UNL     1       3.426   2.855  18.059  0.00  0.00    +0.000 NA
ATOM     28  C   UNL     1       2.408   3.527  17.287  0.00  0.00    +0.000 C 
ATOM     29  C   UNL     1       1.176   3.426  18.163  0.00  0.00    +0.000 C 
ATOM     30  C   UNL     1       1.372   2.156  18.978  0.00  0.00    +0.000 C 
ATOM     31  C   UNL     1       2.847   1.791  18.845  0.00  0.00    +0.000 C 
ENDBRANCH  18  27
ENDBRANCH  17  18
ENDBRANCH   1  17
TORSDOF 7
ENDMDL
MODEL 9
REMARK VINA RESULT:      -8.1      1.295      1.802
REMARK  Name = 
REMARK  8 active torsions:
REMARK  status: ('A' for Active; 'I' for Inactive)
REMARK    1  A    between atoms: C_1  and  O_2
REMARK    2  A    between atoms: O_2  and  C_3
REMARK    3  A    between atoms: C_8  and  C_9
REMARK    4  A    between atoms: C_9  and  C_10
REMARK    5  A    between atoms: C_9  and  N_26
REMARK    6  A    between atoms: C_10  and  N_11
REMARK    7  A    between atoms: C_12  and  C_14
REMARK    8  A    between atoms: C_17  and  C_18
REMARK                            x       y       z     vdW  Elec       q    Type
REMARK                         _______ _______ _______ _____ _____    ______ ____
ROOT
ATOM      1  N   UNL     1       2.066   6.607  18.911  0.00  0.00    +0.000 N 
ATOM      2  C   UNL     1       2.164   7.975  18.853  0.00  0.00    +0.000 C 
ATOM      3  O   UNL     1       2.766   8.538  17.947  0.00  0.00    +0.000 OA
ATOM      4  H   UNL     1       1.511   6.194  19.650  0.00  0.00    +0.000 HD
ENDROOT
BRANCH   2   5
ATOM      5  C   UNL     1       1.490   8.701  19.931  0.00  0.00    +0.000 A 
ATOM      6  C   UNL     1       1.327   8.358  21.257  0.00  0.00    +0.000 A 
ATOM      7  C   UNL     1       0.606   9.407  21.871  0.00  0.00    +0.000 A 
ATOM      8  C   UNL     1       0.327  10.338  20.887  0.00  0.00    +0.000 A 
ATOM      9  O   UNL     1       0.896   9.921  19.704  0.00  0.00    +0.000 OA
BRANCH   8  10
ATOM     10  C   UNL     1      -0.397  11.615  20.857  0.00  0.00    +0.000 A 
ATOM     11  C   UNL     1      -0.192  12.486  19.768  0.00  0.00    +0.000 A 
ATOM     12  C   UNL     1      -0.834  13.727  19.689  0.00  0.00    +0.000 A 
ATOM     13  C   UNL     1      -1.703  14.131  20.698  0.00  0.00    +0.000 A 
ATOM     14  C   UNL     1      -1.929  13.288  21.781  0.00  0.00    +0.000 A 
ATOM     15  C   UNL     1      -1.286  12.042  21.867  0.00  0.00    +0.000 A 
ATOM     16 CL   UNL     1      -1.691  11.082  23.249  0.00  0.00    +0.000 Cl
ENDBRANCH   8  10
ENDBRANCH   2   5
BRANCH   1  17
ATOM     17  C   UNL     1       2.651   5.722  17.893  0.00  0.00    +0.000 C 
BRANCH  17  18
ATOM     18  C   UNL     1       3.684   4.722  18.502  0.00  0.00    +0.000 C 
BRANCH  18  24
ATOM     19  C   UNL     1       6.247   4.677  18.095  0.00  0.00    +0.000 A 
ATOM     20  C   UNL     1       7.353   4.569  17.227  0.00  0.00    +0.000 A 
ATOM     21  C   UNL     1       7.172   4.237  15.886  0.00  0.00    +0.000 A 
ATOM     22  C   UNL     1       5.889   4.038  15.406  0.00  0.00    +0.000 A 
ATOM     23  C   UNL     1       4.780   4.195  16.257  0.00  0.00    +0.000 A 
ATOM     24  C   UNL     1       4.925   4.519  17.617  0.00  0.00    +0.000 A 
BRANCH  19  26
ATOM     25  C   UNL     1       7.789   5.779  19.472  0.00  0.00    +0.000 C 
ATOM     26  O   UNL     1       6.580   5.029  19.377  0.00  0.00    +0.000 OA
ENDBRANCH  19  26
ENDBRANCH  18  24
BRANCH  18  27
ATOM     27  N   UNL     1       3.063   3.489  18.998  0.00  0.00    +0.000 NA
ATOM     28  C   UNL     1       2.119   2.737  18.208  0.00  0.00    +0.000 C 
ATOM     29  C   UNL     1       0.927   2.585  19.131  0.00  0.00    +0.000 C 
ATOM     30  C   UNL     1       1.508   2.613  20.537  0.00  0.00    +0.000 C 
ATOM     31  C   UNL     1       2.923   3.166  20.399  0.00  0.00    +0.000 C 
ENDBRANCH  18  27
ENDBRANCH  17  18
ENDBRANCH   1  17
TORSDOF 7
ENDMDL
