MODEL 1
REMARK VINA RESULT:      -8.6      0.000      0.000
REMARK  Name = 
REMARK  7 active torsions:
REMARK  status: ('A' for Active; 'I' for Inactive)
REMARK    1  A    between atoms: C_1  and  O_2
REMARK    2  A    between atoms: O_2  and  C_3
REMARK    3  A    between atoms: C_3  and  C_4
REMARK    4  A    between atoms: C_7  and  C_9
REMARK    5  A    between atoms: C_14  and  O_15
REMARK    6  A    between atoms: O_15  and  C_16
REMARK    7  A    between atoms: C_19  and  C_20
REMARK                            x       y       z     vdW  Elec       q    Type
REMARK                         _______ _______ _______ _____ _____    ______ ____
ROOT
ATOM      1  C   UNL     1       2.280   6.780  18.479  0.00  0.00    +0.000 A 
ATOM      2  C   UNL     1       2.248   7.821  17.559  0.00  0.00    +0.000 A 
ATOM      3  C   UNL     1       1.877   9.090  17.999  0.00  0.00    +0.000 A 
ATOM      4  C   UNL     1       1.549   9.285  19.345  0.00  0.00    +0.000 A 
ATOM      5  C   UNL     1       1.154  10.543  19.847  0.00  0.00    +0.000 A 
ATOM      6  C   UNL     1       0.823  10.691  21.194  0.00  0.00    +0.000 A 
ATOM      7  C   UNL     1       0.834   9.573  22.026  0.00  0.00    +0.000 A 
ATOM      8  C   UNL     1       1.255   8.336  21.533  0.00  0.00    +0.000 A 
ATOM      9  C   UNL     1       1.621   8.171  20.207  0.00  0.00    +0.000 A 
ATOM     10  N   UNL     1       2.000   6.954  19.793  0.00  0.00    +0.000 NA
ENDROOT
BRANCH   1  14
ATOM     11  C   UNL     1       6.274   5.813  17.330  0.00  0.00    +0.000 C 
ATOM     12  C   UNL     1       5.199   5.751  18.438  0.00  0.00    +0.000 C 
ATOM     13  N   UNL     1       4.019   5.015  17.965  0.00  0.00    +0.000 N 
ATOM     14  C   UNL     1       2.683   5.416  18.002  0.00  0.00    +0.000 C 
ATOM     15  O   UNL     1       1.772   4.654  17.662  0.00  0.00    +0.000 OA
ATOM     16  C   UNL     1       4.346   3.668  17.486  0.00  0.00    +0.000 C 
ATOM     17  C   UNL     1       5.468   3.708  16.430  0.00  0.00    +0.000 C 
ATOM     18  N   UNL     1       6.659   4.442  16.892  0.00  0.00    +0.000 NA
ATOM     19  H   UNL     1       7.329   4.544  16.126  0.00  0.00    +0.000 HD
BRANCH  11  20
ATOM     20  C   UNL     1       7.507   6.583  17.827  0.00  0.00    +0.000 C 
BRANCH  20  22
ATOM     21  C   UNL     1       8.098   8.863  17.898  0.00  0.00    +0.000 C 
ATOM     22  O   UNL     1       7.661   7.791  17.072  0.00  0.00    +0.000 OA
ENDBRANCH  20  22
ENDBRANCH  11  20
ENDBRANCH   1  14
BRANCH   6  23
ATOM     23  O   UNL     1       0.425  11.940  21.610  0.00  0.00    +0.000 OA
BRANCH  23  24
ATOM     24  C   UNL     1      -0.935  12.178  21.770  0.00  0.00    +0.000 A 
ATOM     25  C   UNL     1      -1.414  12.204  23.070  0.00  0.00    +0.000 A 
ATOM     26  C   UNL     1      -2.773  12.448  23.269  0.00  0.00    +0.000 A 
ATOM     27  C   UNL     1      -3.610  12.652  22.166  0.00  0.00    +0.000 A 
ATOM     28  C   UNL     1      -3.036  12.587  20.905  0.00  0.00    +0.000 A 
ATOM     29  N   UNL     1      -1.726  12.341  20.685  0.00  0.00    +0.000 NA
BRANCH  27  30
ATOM     30  C   UNL     1      -5.076  12.930  22.289  0.00  0.00    +0.000 C 
ATOM     31  F   UNL     1      -5.830  12.296  21.349  0.00  0.00    +0.000 F 
ATOM     32  F   UNL     1      -5.579  12.543  23.493  0.00  0.00    +0.000 F 
ATOM     33  F   UNL     1      -5.365  14.254  22.170  0.00  0.00    +0.000 F 
ENDBRANCH  27  30
ENDBRANCH  23  24
ENDBRANCH   6  23
TORSDOF 6
ENDMDL
MODEL 2
REMARK VINA RESULT:      -8.4      0.742      1.528
REMARK  Name = 
REMARK  7 active torsions:
REMARK  status: ('A' for Active; 'I' for Inactive)
REMARK    1  A    between atoms: C_1  and  O_2
REMARK    2  A    between atoms: O_2  and  C_3
REMARK    3  A    between atoms: C_3  and  C_4
REMARK    4  A    between atoms: C_7  and  C_9
REMARK    5  A    between atoms: C_14  and  O_15
REMARK    6  A    between atoms: O_15  and  C_16
REMARK    7  A    between atoms: C_19  and  C_20
REMARK                            x       y       z     vdW  Elec       q    Type
REMARK                         _______ _______ _______ _____ _____    ______ ____
ROOT
ATOM      1  C   UNL     1       2.315   6.345  18.786  0.00  0.00    +0.000 A 
ATOM      2  C   UNL     1       2.008   6.220  20.136  0.00  0.00    +0.000 A 
ATOM      3  C   UNL     1       1.573   7.346  20.829  0.00  0.00    +0.000 A 
ATOM      4  C   UNL     1       1.456   8.568  20.157  0.00  0.00    +0.000 A 
ATOM      5  C   UNL     1       1.034   9.746  20.808  0.00  0.00    +0.000 A 
ATOM      6  C   UNL     1       0.944  10.947  20.103  0.00  0.00    +0.000 A 
ATOM      7  C   UNL     1       1.328  10.981  18.763  0.00  0.00    +0.000 A 
ATOM      8  C   UNL     1       1.715   9.807  18.115  0.00  0.00    +0.000 A 
ATOM      9  C   UNL     1       1.780   8.597  18.785  0.00  0.00    +0.000 A 
ATOM     10  N   UNL     1       2.176   7.509  18.108  0.00  0.00    +0.000 NA
ENDROOT
BRANCH   1  14
ATOM     11  C   UNL     1       6.282   5.932  17.271  0.00  0.00    +0.000 C 
ATOM     12  C   UNL     1       5.290   5.581  18.403  0.00  0.00    +0.000 C 
ATOM     13  N   UNL     1       4.136   4.850  17.863  0.00  0.00    +0.000 N 
ATOM     14  C   UNL     1       2.780   5.127  18.042  0.00  0.00    +0.000 C 
ATOM     15  O   UNL     1       1.904   4.369  17.614  0.00  0.00    +0.000 OA
ATOM     16  C   UNL     1       4.524   3.644  17.124  0.00  0.00    +0.000 C 
ATOM     17  C   UNL     1       5.568   3.967  16.037  0.00  0.00    +0.000 C 
ATOM     18  N   UNL     1       6.733   4.700  16.566  0.00  0.00    +0.000 NA
ATOM     19  H   UNL     1       7.342   4.993  15.799  0.00  0.00    +0.000 HD
BRANCH  11  20
ATOM     20  C   UNL     1       7.489   6.695  17.839  0.00  0.00    +0.000 C 
BRANCH  20  22
ATOM     21  C   UNL     1       8.194   8.941  17.959  0.00  0.00    +0.000 C 
ATOM     22  O   UNL     1       7.669   7.921  17.118  0.00  0.00    +0.000 OA
ENDBRANCH  20  22
ENDBRANCH  11  20
ENDBRANCH   1  14
BRANCH   6  23
ATOM     23  O   UNL     1       0.547  12.061  20.805  0.00  0.00    +0.000 OA
BRANCH  23  24
ATOM     24  C   UNL     1      -0.811  12.239  21.039  0.00  0.00    +0.000 A 
ATOM     25  C   UNL     1      -1.220  12.245  22.364  0.00  0.00    +0.000 A 
ATOM     26  C   UNL     1      -2.575  12.431  22.637  0.00  0.00    +0.000 A 
ATOM     27  C   UNL     1      -3.479  12.598  21.581  0.00  0.00    +0.000 A 
ATOM     28  C   UNL     1      -2.972  12.557  20.291  0.00  0.00    +0.000 A 
ATOM     29  N   UNL     1      -1.667  12.368  20.000  0.00  0.00    +0.000 NA
BRANCH  27  30
ATOM     30  C   UNL     1      -4.947  12.812  21.784  0.00  0.00    +0.000 C 
ATOM     31  F   UNL     1      -5.367  14.058  21.431  0.00  0.00    +0.000 F 
ATOM     32  F   UNL     1      -5.704  11.943  21.060  0.00  0.00    +0.000 F 
ATOM     33  F   UNL     1      -5.322  12.645  23.081  0.00  0.00    +0.000 F 
ENDBRANCH  27  30
ENDBRANCH  23  24
ENDBRANCH   6  23
TORSDOF 6
ENDMDL
MODEL 3
REMARK VINA RESULT:      -8.4      0.520      1.075
REMARK  Name = 
REMARK  7 active torsions:
REMARK  status: ('A' for Active; 'I' for Inactive)
REMARK    1  A    between atoms: C_1  and  O_2
REMARK    2  A    between atoms: O_2  and  C_3
REMARK    3  A    between atoms: C_3  and  C_4
REMARK    4  A    between atoms: C_7  and  C_9
REMARK    5  A    between atoms: C_14  and  O_15
REMARK    6  A    between atoms: O_15  and  C_16
REMARK    7  A    between atoms: C_19  and  C_20
REMARK                            x       y       z     vdW  Elec       q    Type
REMARK                         _______ _______ _______ _____ _____    ______ ____
ROOT
ATOM      1  C   UNL     1       2.273   6.842  18.490  0.00  0.00    +0.000 A 
ATOM      2  C   UNL     1       2.226   7.894  17.582  0.00  0.00    +0.000 A 
ATOM      3  C   UNL     1       1.853   9.155  18.040  0.00  0.00    +0.000 A 
ATOM      4  C   UNL     1       1.539   9.334  19.392  0.00  0.00    +0.000 A 
ATOM      5  C   UNL     1       1.143  10.584  19.911  0.00  0.00    +0.000 A 
ATOM      6  C   UNL     1       0.825  10.715  21.264  0.00  0.00    +0.000 A 
ATOM      7  C   UNL     1       0.851   9.588  22.083  0.00  0.00    +0.000 A 
ATOM      8  C   UNL     1       1.273   8.359  21.571  0.00  0.00    +0.000 A 
ATOM      9  C   UNL     1       1.626   8.211  20.241  0.00  0.00    +0.000 A 
ATOM     10  N   UNL     1       2.006   7.000  19.809  0.00  0.00    +0.000 NA
ENDROOT
BRANCH   1  14
ATOM     11  C   UNL     1       6.210   5.963  17.100  0.00  0.00    +0.000 C 
ATOM     12  C   UNL     1       5.207   5.881  18.273  0.00  0.00    +0.000 C 
ATOM     13  N   UNL     1       4.018   5.115  17.876  0.00  0.00    +0.000 N 
ATOM     14  C   UNL     1       2.677   5.485  17.993  0.00  0.00    +0.000 C 
ATOM     15  O   UNL     1       1.765   4.702  17.713  0.00  0.00    +0.000 OA
ATOM     16  C   UNL     1       4.346   3.774  17.382  0.00  0.00    +0.000 C 
ATOM     17  C   UNL     1       5.400   3.835  16.259  0.00  0.00    +0.000 C 
ATOM     18  N   UNL     1       6.600   4.599  16.644  0.00  0.00    +0.000 NA
ATOM     19  H   UNL     1       7.219   4.712  15.839  0.00  0.00    +0.000 HD
BRANCH  11  20
ATOM     20  C   UNL     1       7.454   6.763  17.518  0.00  0.00    +0.000 C 
BRANCH  20  22
ATOM     21  C   UNL     1       8.137   8.967  17.998  0.00  0.00    +0.000 C 
ATOM     22  O   UNL     1       7.251   8.154  17.238  0.00  0.00    +0.000 OA
ENDBRANCH  20  22
ENDBRANCH  11  20
ENDBRANCH   1  14
BRANCH   6  23
ATOM     23  O   UNL     1       0.426  11.958  21.698  0.00  0.00    +0.000 OA
BRANCH  23  24
ATOM     24  C   UNL     1      -0.935  12.193  21.857  0.00  0.00    +0.000 A 
ATOM     25  C   UNL     1      -1.625  12.637  20.740  0.00  0.00    +0.000 A 
ATOM     26  C   UNL     1      -2.994  12.874  20.860  0.00  0.00    +0.000 A 
ATOM     27  C   UNL     1      -3.628  12.668  22.091  0.00  0.00    +0.000 A 
ATOM     28  C   UNL     1      -2.845  12.241  23.152  0.00  0.00    +0.000 A 
ATOM     29  N   UNL     1      -1.516  12.014  23.065  0.00  0.00    +0.000 NA
BRANCH  27  30
ATOM     30  C   UNL     1      -5.094  12.888  22.305  0.00  0.00    +0.000 C 
ATOM     31  F   UNL     1      -5.485  14.177  22.108  0.00  0.00    +0.000 F 
ATOM     32  F   UNL     1      -5.860  12.133  21.470  0.00  0.00    +0.000 F 
ATOM     33  F   UNL     1      -5.488  12.566  23.568  0.00  0.00    +0.000 F 
ENDBRANCH  27  30
ENDBRANCH  23  24
ENDBRANCH   6  23
TORSDOF 6
ENDMDL
MODEL 4
REMARK VINA RESULT:      -8.2      0.815      1.573
REMARK  Name = 
REMARK  7 active torsions:
REMARK  status: ('A' for Active; 'I' for Inactive)
REMARK    1  A    between atoms: C_1  and  O_2
REMARK    2  A    between atoms: O_2  and  C_3
REMARK    3  A    between atoms: C_3  and  C_4
REMARK    4  A    between atoms: C_7  and  C_9
REMARK    5  A    between atoms: C_14  and  O_15
REMARK    6  A    between atoms: O_15  and  C_16
REMARK    7  A    between atoms: C_19  and  C_20
REMARK                            x       y       z     vdW  Elec       q    Type
REMARK                         _______ _______ _______ _____ _____    ______ ____
ROOT
ATOM      1  C   UNL     1       2.210   6.423  18.873  0.00  0.00    +0.000 A 
ATOM      2  C   UNL     1       1.949   6.199  20.220  0.00  0.00    +0.000 A 
ATOM      3  C   UNL     1       1.558   7.275  21.012  0.00  0.00    +0.000 A 
ATOM      4  C   UNL     1       1.437   8.546  20.441  0.00  0.00    +0.000 A 
ATOM      5  C   UNL     1       1.057   9.676  21.195  0.00  0.00    +0.000 A 
ATOM      6  C   UNL     1       0.962  10.928  20.587  0.00  0.00    +0.000 A 
ATOM      7  C   UNL     1       1.297  11.061  19.241  0.00  0.00    +0.000 A 
ATOM      8  C   UNL     1       1.642   9.935  18.491  0.00  0.00    +0.000 A 
ATOM      9  C   UNL     1       1.711   8.676  19.063  0.00  0.00    +0.000 A 
ATOM     10  N   UNL     1       2.065   7.638  18.291  0.00  0.00    +0.000 NA
ENDROOT
BRANCH   1  14
ATOM     11  C   UNL     1       6.113   6.075  17.186  0.00  0.00    +0.000 C 
ATOM     12  C   UNL     1       5.156   5.651  18.323  0.00  0.00    +0.000 C 
ATOM     13  N   UNL     1       3.972   4.980  17.771  0.00  0.00    +0.000 N 
ATOM     14  C   UNL     1       2.628   5.261  18.021  0.00  0.00    +0.000 C 
ATOM     15  O   UNL     1       1.725   4.551  17.568  0.00  0.00    +0.000 OA
ATOM     16  C   UNL     1       4.314   3.830  16.928  0.00  0.00    +0.000 C 
ATOM     17  C   UNL     1       5.324   4.222  15.831  0.00  0.00    +0.000 C 
ATOM     18  N   UNL     1       6.519   4.895  16.372  0.00  0.00    +0.000 NA
ATOM     19  H   UNL     1       7.105   5.238  15.608  0.00  0.00    +0.000 HD
BRANCH  11  20
ATOM     20  C   UNL     1       7.352   6.775  17.766  0.00  0.00    +0.000 C 
BRANCH  20  22
ATOM     21  C   UNL     1       8.165   8.975  18.002  0.00  0.00    +0.000 C 
ATOM     22  O   UNL     1       7.531   8.047  17.130  0.00  0.00    +0.000 OA
ENDBRANCH  20  22
ENDBRANCH  11  20
ENDBRANCH   1  14
BRANCH   6  23
ATOM     23  O   UNL     1       0.608  11.990  21.388  0.00  0.00    +0.000 OA
BRANCH  23  24
ATOM     24  C   UNL     1      -0.744  12.214  21.622  0.00  0.00    +0.000 A 
ATOM     25  C   UNL     1      -1.495  12.665  20.548  0.00  0.00    +0.000 A 
ATOM     26  C   UNL     1      -2.858  12.891  20.744  0.00  0.00    +0.000 A 
ATOM     27  C   UNL     1      -3.424  12.668  22.004  0.00  0.00    +0.000 A 
ATOM     28  C   UNL     1      -2.582  12.236  23.018  0.00  0.00    +0.000 A 
ATOM     29  N   UNL     1      -1.259  12.019  22.857  0.00  0.00    +0.000 NA
BRANCH  27  30
ATOM     30  C   UNL     1      -4.877  12.876  22.300  0.00  0.00    +0.000 C 
ATOM     31  F   UNL     1      -5.704  12.151  21.498  0.00  0.00    +0.000 F 
ATOM     32  F   UNL     1      -5.202  12.535  23.577  0.00  0.00    +0.000 F 
ATOM     33  F   UNL     1      -5.257  14.175  22.151  0.00  0.00    +0.000 F 
ENDBRANCH  27  30
ENDBRANCH  23  24
ENDBRANCH   6  23
TORSDOF 6
ENDMDL
MODEL 5
REMARK VINA RESULT:      -8.2      1.113      1.431
REMARK  Name = 
REMARK  7 active torsions:
REMARK  status: ('A' for Active; 'I' for Inactive)
REMARK    1  A    between atoms: C_1  and  O_2
REMARK    2  A    between atoms: O_2  and  C_3
REMARK    3  A    between atoms: C_3  and  C_4
REMARK    4  A    between atoms: C_7  and  C_9
REMARK    5  A    between atoms: C_14  and  O_15
REMARK    6  A    between atoms: O_15  and  C_16
REMARK    7  A    between atoms: C_19  and  C_20
REMARK                            x       y       z     vdW  Elec       q    Type
REMARK                         _______ _______ _______ _____ _____    ______ ____
ROOT
ATOM      1  C   UNL     1       2.244   6.913  18.542  0.00  0.00    +0.000 A 
ATOM      2  C   UNL     1       2.281   7.845  17.511  0.00  0.00    +0.000 A 
ATOM      3  C   UNL     1       1.951   9.167  17.794  0.00  0.00    +0.000 A 
ATOM      4  C   UNL     1       1.593   9.526  19.098  0.00  0.00    +0.000 A 
ATOM      5  C   UNL     1       1.236  10.847  19.442  0.00  0.00    +0.000 A 
ATOM      6  C   UNL     1       0.872  11.158  20.753  0.00  0.00    +0.000 A 
ATOM      7  C   UNL     1       0.812  10.142  21.704  0.00  0.00    +0.000 A 
ATOM      8  C   UNL     1       1.196   8.842  21.367  0.00  0.00    +0.000 A 
ATOM      9  C   UNL     1       1.593   8.515  20.081  0.00  0.00    +0.000 A 
ATOM     10  N   UNL     1       1.934   7.245  19.818  0.00  0.00    +0.000 NA
ENDROOT
BRANCH   1  14
ATOM     11  C   UNL     1       6.168   5.716  17.370  0.00  0.00    +0.000 C 
ATOM     12  C   UNL     1       5.141   5.824  18.520  0.00  0.00    +0.000 C 
ATOM     13  N   UNL     1       3.930   5.058  18.197  0.00  0.00    +0.000 N 
ATOM     14  C   UNL     1       2.603   5.489  18.234  0.00  0.00    +0.000 C 
ATOM     15  O   UNL     1       1.666   4.710  18.035  0.00  0.00    +0.000 OA
ATOM     16  C   UNL     1       4.213   3.653  17.888  0.00  0.00    +0.000 C 
ATOM     17  C   UNL     1       5.289   3.529  16.791  0.00  0.00    +0.000 C 
ATOM     18  N   UNL     1       6.512   4.292  17.103  0.00  0.00    +0.000 NA
ATOM     19  H   UNL     1       7.149   4.276  16.305  0.00  0.00    +0.000 HD
BRANCH  11  20
ATOM     20  C   UNL     1       7.434   6.517  17.711  0.00  0.00    +0.000 C 
BRANCH  20  22
ATOM     21  C   UNL     1       8.027   8.795  17.828  0.00  0.00    +0.000 C 
ATOM     22  O   UNL     1       7.397   7.787  17.047  0.00  0.00    +0.000 OA
ENDBRANCH  20  22
ENDBRANCH  11  20
ENDBRANCH   1  14
BRANCH   6  23
ATOM     23  O   UNL     1       0.514  12.461  21.013  0.00  0.00    +0.000 OA
BRANCH  23  24
ATOM     24  C   UNL     1      -0.563  12.690  21.861  0.00  0.00    +0.000 A 
ATOM     25  C   UNL     1      -1.785  12.167  21.469  0.00  0.00    +0.000 A 
ATOM     26  C   UNL     1      -2.887  12.369  22.300  0.00  0.00    +0.000 A 
ATOM     27  C   UNL     1      -2.736  13.092  23.489  0.00  0.00    +0.000 A 
ATOM     28  C   UNL     1      -1.475  13.591  23.780  0.00  0.00    +0.000 A 
ATOM     29  N   UNL     1      -0.395  13.418  22.988  0.00  0.00    +0.000 NA
BRANCH  27  30
ATOM     30  C   UNL     1      -3.862  13.347  24.443  0.00  0.00    +0.000 C 
ATOM     31  F   UNL     1      -4.871  14.087  23.906  0.00  0.00    +0.000 F 
ATOM     32  F   UNL     1      -4.438  12.196  24.887  0.00  0.00    +0.000 F 
ATOM     33  F   UNL     1      -3.458  14.017  25.556  0.00  0.00    +0.000 F 
ENDBRANCH  27  30
ENDBRANCH  23  24
ENDBRANCH   6  23
TORSDOF 6
ENDMDL
MODEL 6
REMARK VINA RESULT:      -8.1      3.307      4.023
REMARK  Name = 
REMARK  7 active torsions:
REMARK  status: ('A' for Active; 'I' for Inactive)
REMARK    1  A    between atoms: C_1  and  O_2
REMARK    2  A    between atoms: O_2  and  C_3
REMARK    3  A    between atoms: C_3  and  C_4
REMARK    4  A    between atoms: C_7  and  C_9
REMARK    5  A    between atoms: C_14  and  O_15
REMARK    6  A    between atoms: O_15  and  C_16
REMARK    7  A    between atoms: C_19  and  C_20
REMARK                            x       y       z     vdW  Elec       q    Type
REMARK                         _______ _______ _______ _____ _____    ______ ____
ROOT
ATOM      1  C   UNL     1       2.654   6.158  18.605  0.00  0.00    +0.000 A 
ATOM      2  C   UNL     1       2.262   5.979  19.926  0.00  0.00    +0.000 A 
ATOM      3  C   UNL     1       1.702   7.057  20.608  0.00  0.00    +0.000 A 
ATOM      4  C   UNL     1       1.547   8.284  19.953  0.00  0.00    +0.000 A 
ATOM      5  C   UNL     1       0.999   9.414  20.594  0.00  0.00    +0.000 A 
ATOM      6  C   UNL     1       0.876  10.622  19.907  0.00  0.00    +0.000 A 
ATOM      7  C   UNL     1       1.348  10.715  18.599  0.00  0.00    +0.000 A 
ATOM      8  C   UNL     1       1.862   9.586  17.958  0.00  0.00    +0.000 A 
ATOM      9  C   UNL     1       1.964   8.367  18.608  0.00  0.00    +0.000 A 
ATOM     10  N   UNL     1       2.482   7.326  17.940  0.00  0.00    +0.000 NA
ENDROOT
BRANCH   1  14
ATOM     11  C   UNL     1       6.659   6.163  17.133  0.00  0.00    +0.000 C 
ATOM     12  C   UNL     1       5.697   5.714  18.256  0.00  0.00    +0.000 C 
ATOM     13  N   UNL     1       4.634   4.861  17.709  0.00  0.00    +0.000 N 
ATOM     14  C   UNL     1       3.254   4.993  17.873  0.00  0.00    +0.000 C 
ATOM     15  O   UNL     1       2.469   4.144  17.440  0.00  0.00    +0.000 OA
ATOM     16  C   UNL     1       5.156   3.700  16.981  0.00  0.00    +0.000 C 
ATOM     17  C   UNL     1       6.171   4.127  15.903  0.00  0.00    +0.000 C 
ATOM     18  N   UNL     1       7.246   4.982  16.440  0.00  0.00    +0.000 NA
ATOM     19  H   UNL     1       7.828   5.335  15.677  0.00  0.00    +0.000 HD
BRANCH  11  20
ATOM     20  C   UNL     1       7.771   7.053  17.708  0.00  0.00    +0.000 C 
BRANCH  20  22
ATOM     21  C   UNL     1       8.346   9.304  18.104  0.00  0.00    +0.000 C 
ATOM     22  O   UNL     1       7.536   8.419  17.340  0.00  0.00    +0.000 OA
ENDBRANCH  20  22
ENDBRANCH  11  20
ENDBRANCH   1  14
BRANCH   6  23
ATOM     23  O   UNL     1       0.353  11.689  20.601  0.00  0.00    +0.000 OA
BRANCH  23  24
ATOM     24  C   UNL     1       0.539  12.965  20.081  0.00  0.00    +0.000 A 
ATOM     25  C   UNL     1       1.700  13.625  20.453  0.00  0.00    +0.000 A 
ATOM     26  C   UNL     1       1.924  14.904  19.943  0.00  0.00    +0.000 A 
ATOM     27  C   UNL     1       0.982  15.485  19.088  0.00  0.00    +0.000 A 
ATOM     28  C   UNL     1      -0.156  14.749  18.793  0.00  0.00    +0.000 A 
ATOM     29  N   UNL     1      -0.402  13.514  19.281  0.00  0.00    +0.000 NA
BRANCH  27  30
ATOM     30  C   UNL     1       1.148  16.848  18.488  0.00  0.00    +0.000 C 
ATOM     31  F   UNL     1       1.497  17.801  19.395  0.00  0.00    +0.000 F 
ATOM     32  F   UNL     1       2.109  16.878  17.525  0.00  0.00    +0.000 F 
ATOM     33  F   UNL     1       0.008  17.296  17.894  0.00  0.00    +0.000 F 
ENDBRANCH  27  30
ENDBRANCH  23  24
ENDBRANCH   6  23
TORSDOF 6
ENDMDL
MODEL 7
REMARK VINA RESULT:      -8.1      1.368      2.121
REMARK  Name = 
REMARK  7 active torsions:
REMARK  status: ('A' for Active; 'I' for Inactive)
REMARK    1  A    between atoms: C_1  and  O_2
REMARK    2  A    between atoms: O_2  and  C_3
REMARK    3  A    between atoms: C_3  and  C_4
REMARK    4  A    between atoms: C_7  and  C_9
REMARK    5  A    between atoms: C_14  and  O_15
REMARK    6  A    between atoms: O_15  and  C_16
REMARK    7  A    between atoms: C_19  and  C_20
REMARK                            x       y       z     vdW  Elec       q    Type
REMARK                         _______ _______ _______ _____ _____    ______ ____
ROOT
ATOM      1  C   UNL     1       2.720   6.089  18.538  0.00  0.00    +0.000 A 
ATOM      2  C   UNL     1       2.291   5.865  19.841  0.00  0.00    +0.000 A 
ATOM      3  C   UNL     1       1.699   6.915  20.538  0.00  0.00    +0.000 A 
ATOM      4  C   UNL     1       1.551   8.160  19.918  0.00  0.00    +0.000 A 
ATOM      5  C   UNL     1       0.972   9.265  20.577  0.00  0.00    +0.000 A 
ATOM      6  C   UNL     1       0.857  10.493  19.925  0.00  0.00    +0.000 A 
ATOM      7  C   UNL     1       1.368  10.631  18.636  0.00  0.00    +0.000 A 
ATOM      8  C   UNL     1       1.913   9.528  17.975  0.00  0.00    +0.000 A 
ATOM      9  C   UNL     1       2.008   8.290  18.589  0.00  0.00    +0.000 A 
ATOM     10  N   UNL     1       2.556   7.275  17.906  0.00  0.00    +0.000 NA
ENDROOT
BRANCH   1  14
ATOM     11  C   UNL     1       6.726   6.231  17.074  0.00  0.00    +0.000 C 
ATOM     12  C   UNL     1       5.776   5.737  18.189  0.00  0.00    +0.000 C 
ATOM     13  N   UNL     1       4.738   4.864  17.625  0.00  0.00    +0.000 N 
ATOM     14  C   UNL     1       3.355   4.954  17.789  0.00  0.00    +0.000 C 
ATOM     15  O   UNL     1       2.595   4.090  17.342  0.00  0.00    +0.000 OA
ATOM     16  C   UNL     1       5.294   3.730  16.880  0.00  0.00    +0.000 C 
ATOM     17  C   UNL     1       6.299   4.203  15.811  0.00  0.00    +0.000 C 
ATOM     18  N   UNL     1       7.347   5.080  16.363  0.00  0.00    +0.000 NA
ATOM     19  H   UNL     1       7.920   5.461  15.607  0.00  0.00    +0.000 HD
BRANCH  11  20
ATOM     20  C   UNL     1       7.811   7.144  17.666  0.00  0.00    +0.000 C 
BRANCH  20  22
ATOM     21  C   UNL     1       8.364   9.395  18.092  0.00  0.00    +0.000 C 
ATOM     22  O   UNL     1       7.492   8.515  17.393  0.00  0.00    +0.000 OA
ENDBRANCH  20  22
ENDBRANCH  11  20
ENDBRANCH   1  14
BRANCH   6  23
ATOM     23  O   UNL     1       0.302  11.532  20.635  0.00  0.00    +0.000 OA
BRANCH  23  24
ATOM     24  C   UNL     1      -1.030  11.850  20.401  0.00  0.00    +0.000 A 
ATOM     25  C   UNL     1      -1.552  11.480  19.172  0.00  0.00    +0.000 A 
ATOM     26  C   UNL     1      -2.889  11.775  18.906  0.00  0.00    +0.000 A 
ATOM     27  C   UNL     1      -3.660  12.434  19.871  0.00  0.00    +0.000 A 
ATOM     28  C   UNL     1      -3.038  12.778  21.061  0.00  0.00    +0.000 A 
ATOM     29  N   UNL     1      -1.743  12.514  21.339  0.00  0.00    +0.000 NA
BRANCH  27  30
ATOM     30  C   UNL     1      -5.103  12.780  19.672  0.00  0.00    +0.000 C 
ATOM     31  F   UNL     1      -5.500  12.729  18.371  0.00  0.00    +0.000 F 
ATOM     32  F   UNL     1      -5.936  11.942  20.350  0.00  0.00    +0.000 F 
ATOM     33  F   UNL     1      -5.401  14.034  20.106  0.00  0.00    +0.000 F 
ENDBRANCH  27  30
ENDBRANCH  23  24
ENDBRANCH   6  23
TORSDOF 6
ENDMDL
MODEL 8
REMARK VINA RESULT:      -8.0      1.176      1.960
REMARK  Name = 
REMARK  7 active torsions:
REMARK  status: ('A' for Active; 'I' for Inactive)
REMARK    1  A    between atoms: C_1  and  O_2
REMARK    2  A    between atoms: O_2  and  C_3
REMARK    3  A    between atoms: C_3  and  C_4
REMARK    4  A    between atoms: C_7  and  C_9
REMARK    5  A    between atoms: C_14  and  O_15
REMARK    6  A    between atoms: O_15  and  C_16
REMARK    7  A    between atoms: C_19  and  C_20
REMARK                            x       y       z     vdW  Elec       q    Type
REMARK                         _______ _______ _______ _____ _____    ______ ____
ROOT
ATOM      1  C   UNL     1       2.111   6.586  18.952  0.00  0.00    +0.000 A 
ATOM      2  C   UNL     1       1.782   6.564  20.302  0.00  0.00    +0.000 A 
ATOM      3  C   UNL     1       1.429   7.759  20.924  0.00  0.00    +0.000 A 
ATOM      4  C   UNL     1       1.413   8.945  20.182  0.00  0.00    +0.000 A 
ATOM      5  C   UNL     1       1.077  10.187  20.758  0.00  0.00    +0.000 A 
ATOM      6  C   UNL     1       1.087  11.349  19.984  0.00  0.00    +0.000 A 
ATOM      7  C   UNL     1       1.485  11.276  18.650  0.00  0.00    +0.000 A 
ATOM      8  C   UNL     1       1.787  10.039  18.075  0.00  0.00    +0.000 A 
ATOM      9  C   UNL     1       1.751   8.869  18.814  0.00  0.00    +0.000 A 
ATOM     10  N   UNL     1       2.069   7.717  18.206  0.00  0.00    +0.000 NA
ENDROOT
BRANCH   1  14
ATOM     11  C   UNL     1       6.160   5.357  18.405  0.00  0.00    +0.000 C 
ATOM     12  C   UNL     1       4.874   5.224  19.252  0.00  0.00    +0.000 C 
ATOM     13  N   UNL     1       3.762   4.744  18.420  0.00  0.00    +0.000 N 
ATOM     14  C   UNL     1       2.487   5.296  18.285  0.00  0.00    +0.000 C 
ATOM     15  O   UNL     1       1.607   4.733  17.627  0.00  0.00    +0.000 OA
ATOM     16  C   UNL     1       4.067   3.481  17.740  0.00  0.00    +0.000 C 
ATOM     17  C   UNL     1       5.386   3.577  16.949  0.00  0.00    +0.000 C 
ATOM     18  N   UNL     1       6.511   4.056  17.772  0.00  0.00    +0.000 NA
ATOM     19  H   UNL     1       7.333   4.214  17.186  0.00  0.00    +0.000 HD
BRANCH  11  20
ATOM     20  C   UNL     1       7.321   5.859  19.278  0.00  0.00    +0.000 C 
BRANCH  20  22
ATOM     21  C   UNL     1       7.357   7.442  17.532  0.00  0.00    +0.000 C 
ATOM     22  O   UNL     1       8.125   6.782  18.531  0.00  0.00    +0.000 OA
ENDBRANCH  20  22
ENDBRANCH  11  20
ENDBRANCH   1  14
BRANCH   6  23
ATOM     23  O   UNL     1       0.770  12.529  20.617  0.00  0.00    +0.000 OA
BRANCH  23  24
ATOM     24  C   UNL     1      -0.419  12.591  21.333  0.00  0.00    +0.000 A 
ATOM     25  C   UNL     1      -1.591  12.605  20.594  0.00  0.00    +0.000 A 
ATOM     26  C   UNL     1      -2.804  12.657  21.281  0.00  0.00    +0.000 A 
ATOM     27  C   UNL     1      -2.809  12.702  22.679  0.00  0.00    +0.000 A 
ATOM     28  C   UNL     1      -1.581  12.703  23.324  0.00  0.00    +0.000 A 
ATOM     29  N   UNL     1      -0.393  12.663  22.684  0.00  0.00    +0.000 NA
BRANCH  27  30
ATOM     30  C   UNL     1      -4.064  12.750  23.495  0.00  0.00    +0.000 C 
ATOM     31  F   UNL     1      -4.081  11.853  24.519  0.00  0.00    +0.000 F 
ATOM     32  F   UNL     1      -4.267  13.969  24.064  0.00  0.00    +0.000 F 
ATOM     33  F   UNL     1      -5.175  12.492  22.753  0.00  0.00    +0.000 F 
ENDBRANCH  27  30
ENDBRANCH  23  24
ENDBRANCH   6  23
TORSDOF 6
ENDMDL
MODEL 9
REMARK VINA RESULT:      -8.0      3.424      4.162
REMARK  Name = 
REMARK  7 active torsions:
REMARK  status: ('A' for Active; 'I' for Inactive)
REMARK    1  A    between atoms: C_1  and  O_2
REMARK    2  A    between atoms: O_2  and  C_3
REMARK    3  A    between atoms: C_3  and  C_4
REMARK    4  A    between atoms: C_7  and  C_9
REMARK    5  A    between atoms: C_14  and  O_15
REMARK    6  A    between atoms: O_15  and  C_16
REMARK    7  A    between atoms: C_19  and  C_20
REMARK                            x       y       z     vdW  Elec       q    Type
REMARK                         _______ _______ _______ _____ _____    ______ ____
ROOT
ATOM      1  C   UNL     1       2.407   6.319  18.740  0.00  0.00    +0.000 A 
ATOM      2  C   UNL     1       2.080   6.214  20.087  0.00  0.00    +0.000 A 
ATOM      3  C   UNL     1       1.605   7.343  20.749  0.00  0.00    +0.000 A 
ATOM      4  C   UNL     1       1.467   8.547  20.050  0.00  0.00    +0.000 A 
ATOM      5  C   UNL     1       1.003   9.726  20.670  0.00  0.00    +0.000 A 
ATOM      6  C   UNL     1       0.894  10.909  19.938  0.00  0.00    +0.000 A 
ATOM      7  C   UNL     1       1.298  10.927  18.604  0.00  0.00    +0.000 A 
ATOM      8  C   UNL     1       1.728   9.750  17.987  0.00  0.00    +0.000 A 
ATOM      9  C   UNL     1       1.813   8.556  18.683  0.00  0.00    +0.000 A 
ATOM     10  N   UNL     1       2.249   7.465  18.036  0.00  0.00    +0.000 NA
ENDROOT
BRANCH   1  14
ATOM     11  C   UNL     1       6.411   5.977  17.308  0.00  0.00    +0.000 C 
ATOM     12  C   UNL     1       5.406   5.623  18.428  0.00  0.00    +0.000 C 
ATOM     13  N   UNL     1       4.281   4.853  17.881  0.00  0.00    +0.000 N 
ATOM     14  C   UNL     1       2.916   5.100  18.030  0.00  0.00    +0.000 C 
ATOM     15  O   UNL     1       2.067   4.312  17.600  0.00  0.00    +0.000 OA
ATOM     16  C   UNL     1       4.713   3.643  17.173  0.00  0.00    +0.000 C 
ATOM     17  C   UNL     1       5.770   3.972  16.100  0.00  0.00    +0.000 C 
ATOM     18  N   UNL     1       6.906   4.743  16.636  0.00  0.00    +0.000 NA
ATOM     19  H   UNL     1       7.522   5.036  15.875  0.00  0.00    +0.000 HD
BRANCH  11  20
ATOM     20  C   UNL     1       7.587   6.781  17.883  0.00  0.00    +0.000 C 
BRANCH  20  22
ATOM     21  C   UNL     1       8.097   9.082  17.931  0.00  0.00    +0.000 C 
ATOM     22  O   UNL     1       7.791   7.967  17.103  0.00  0.00    +0.000 OA
ENDBRANCH  20  22
ENDBRANCH  11  20
ENDBRANCH   1  14
BRANCH   6  23
ATOM     23  O   UNL     1       0.456  12.027  20.611  0.00  0.00    +0.000 OA
BRANCH  23  24
ATOM     24  C   UNL     1       0.675  13.271  20.032  0.00  0.00    +0.000 A 
ATOM     25  C   UNL     1      -0.442  13.948  19.568  0.00  0.00    +0.000 A 
ATOM     26  C   UNL     1      -0.260  15.203  18.989  0.00  0.00    +0.000 A 
ATOM     27  C   UNL     1       1.028  15.739  18.884  0.00  0.00    +0.000 A 
ATOM     28  C   UNL     1       2.081  14.974  19.360  0.00  0.00    +0.000 A 
ATOM     29  N   UNL     1       1.934  13.751  19.916  0.00  0.00    +0.000 NA
BRANCH  27  30
ATOM     30  C   UNL     1       1.312  17.083  18.286  0.00  0.00    +0.000 C 
ATOM     31  F   UNL     1       2.486  17.134  17.598  0.00  0.00    +0.000 F 
ATOM     32  F   UNL     1       0.348  17.475  17.409  0.00  0.00    +0.000 F 
ATOM     33  F   UNL     1       1.386  18.064  19.225  0.00  0.00    +0.000 F 
ENDBRANCH  27  30
ENDBRANCH  23  24
ENDBRANCH   6  23
TORSDOF 6
ENDMDL
