MODEL 1
REMARK VINA RESULT:      -7.1      0.000      0.000
REMARK  Name = 
REMARK  5 active torsions:
REMARK  status: ('A' for Active; 'I' for Inactive)
REMARK    1  A    between atoms: C_1  and  C_2
REMARK    2  A    between atoms: C_2  and  O_3
REMARK    3  A    between atoms: C_2  and  C_4
REMARK    4  A    between atoms: C_2  and  C_14
REMARK    5  A    between atoms: C_4  and  N_5
REMARK                            x       y       z     vdW  Elec       q    Type
REMARK                         _______ _______ _______ _____ _____    ______ ____
ROOT
ATOM      1  N   UNL     1       5.269   3.320  16.901  0.00  0.00    +0.000 N 
ATOM      2  C   UNL     1       4.210   3.542  17.754  0.00  0.00    +0.000 C 
ATOM      3  O   UNL     1       3.270   4.249  17.416  0.00  0.00    +0.000 OA
ATOM      4  N   UNL     1       4.339   2.874  18.940  0.00  0.00    +0.000 N 
ATOM      5  C   UNL     1       3.383   2.846  19.930  0.00  0.00    +0.000 A 
ATOM      6  N   UNL     1       3.636   2.452  21.160  0.00  0.00    +0.000 NA
ATOM      7  N   UNL     1       2.519   2.533  21.974  0.00  0.00    +0.000 NA
ATOM      8  C   UNL     1       1.462   2.940  21.306  0.00  0.00    +0.000 A 
ATOM      9  S   UNL     1       1.743   3.239  19.648  0.00  0.00    +0.000 S 
ATOM     10  H   UNL     1       6.145   2.965  17.263  0.00  0.00    +0.000 HD
ATOM     11  H   UNL     1       5.244   2.541  19.227  0.00  0.00    +0.000 HD
ENDROOT
BRANCH   1  12
ATOM     12  C   UNL     1       5.321   4.021  15.621  0.00  0.00    +0.000 C 
BRANCH  12  14
ATOM     13  C   UNL     1       5.163   6.549  15.433  0.00  0.00    +0.000 C 
ATOM     14  C   UNL     1       6.093   5.357  15.670  0.00  0.00    +0.000 C 
BRANCH  14  15
ATOM     15  C   UNL     1       6.832   5.475  16.974  0.00  0.00    +0.000 A 
ATOM     16  C   UNL     1       6.771   6.345  18.045  0.00  0.00    +0.000 A 
ATOM     17  C   UNL     1       7.716   5.889  18.994  0.00  0.00    +0.000 A 
ATOM     18  C   UNL     1       8.298   4.771  18.447  0.00  0.00    +0.000 A 
ATOM     19  O   UNL     1       7.778   4.516  17.218  0.00  0.00    +0.000 OA
ENDBRANCH  14  15
BRANCH  14  20
ATOM     20  O   UNL     1       7.079   5.357  14.625  0.00  0.00    +0.000 OA
ATOM     21  H   UNL     1       6.616   5.668  13.823  0.00  0.00    +0.000 HD
ENDBRANCH  14  20
ENDBRANCH  12  14
ENDBRANCH   1  12
TORSDOF 4
ENDMDL
MODEL 2
REMARK VINA RESULT:      -7.0      4.860      6.425
REMARK  Name = 
REMARK  5 active torsions:
REMARK  status: ('A' for Active; 'I' for Inactive)
REMARK    1  A    between atoms: C_1  and  C_2
REMARK    2  A    between atoms: C_2  and  O_3
REMARK    3  A    between atoms: C_2  and  C_4
REMARK    4  A    between atoms: C_2  and  C_14
REMARK    5  A    between atoms: C_4  and  N_5
REMARK                            x       y       z     vdW  Elec       q    Type
REMARK                         _______ _______ _______ _____ _____    ______ ____
ROOT
ATOM      1  N   UNL     1       2.571   6.581  20.187  0.00  0.00    +0.000 N 
ATOM      2  C   UNL     1       1.891   7.777  20.265  0.00  0.00    +0.000 C 
ATOM      3  O   UNL     1       1.663   8.436  19.260  0.00  0.00    +0.000 OA
ATOM      4  N   UNL     1       1.506   8.083  21.541  0.00  0.00    +0.000 N 
ATOM      5  C   UNL     1       0.734   9.169  21.887  0.00  0.00    +0.000 A 
ATOM      6  N   UNL     1       0.621   9.603  23.124  0.00  0.00    +0.000 NA
ATOM      7  N   UNL     1      -0.194  10.719  23.213  0.00  0.00    +0.000 NA
ATOM      8  C   UNL     1      -0.696  11.046  22.041  0.00  0.00    +0.000 A 
ATOM      9  S   UNL     1      -0.230  10.019  20.759  0.00  0.00    +0.000 S 
ATOM     10  H   UNL     1       2.982   6.177  21.019  0.00  0.00    +0.000 HD
ATOM     11  H   UNL     1       1.956   7.629  22.318  0.00  0.00    +0.000 HD
ENDROOT
BRANCH   1  12
ATOM     12  C   UNL     1       3.117   6.147  18.904  0.00  0.00    +0.000 C 
BRANCH  12  14
ATOM     13  C   UNL     1       3.694   4.021  17.638  0.00  0.00    +0.000 C 
ATOM     14  C   UNL     1       2.627   4.753  18.455  0.00  0.00    +0.000 C 
BRANCH  14  15
ATOM     15  C   UNL     1       2.193   3.952  19.651  0.00  0.00    +0.000 A 
ATOM     16  C   UNL     1       0.977   3.489  20.115  0.00  0.00    +0.000 A 
ATOM     17  C   UNL     1       1.245   2.752  21.293  0.00  0.00    +0.000 A 
ATOM     18  C   UNL     1       2.605   2.809  21.479  0.00  0.00    +0.000 A 
ATOM     19  O   UNL     1       3.190   3.543  20.495  0.00  0.00    +0.000 OA
ENDBRANCH  14  15
BRANCH  14  20
ATOM     20  O   UNL     1       1.472   4.919  17.617  0.00  0.00    +0.000 OA
ATOM     21  H   UNL     1       1.584   5.785  17.180  0.00  0.00    +0.000 HD
ENDBRANCH  14  20
ENDBRANCH  12  14
ENDBRANCH   1  12
TORSDOF 4
ENDMDL
MODEL 3
REMARK VINA RESULT:      -7.0      1.603      2.896
REMARK  Name = 
REMARK  5 active torsions:
REMARK  status: ('A' for Active; 'I' for Inactive)
REMARK    1  A    between atoms: C_1  and  C_2
REMARK    2  A    between atoms: C_2  and  O_3
REMARK    3  A    between atoms: C_2  and  C_4
REMARK    4  A    between atoms: C_2  and  C_14
REMARK    5  A    between atoms: C_4  and  N_5
REMARK                            x       y       z     vdW  Elec       q    Type
REMARK                         _______ _______ _______ _____ _____    ______ ____
ROOT
ATOM      1  N   UNL     1       5.013   3.478  17.199  0.00  0.00    +0.000 N 
ATOM      2  C   UNL     1       3.935   3.624  18.044  0.00  0.00    +0.000 C 
ATOM      3  O   UNL     1       2.959   4.283  17.708  0.00  0.00    +0.000 OA
ATOM      4  N   UNL     1       4.089   2.945  19.220  0.00  0.00    +0.000 N 
ATOM      5  C   UNL     1       3.127   2.845  20.199  0.00  0.00    +0.000 A 
ATOM      6  N   UNL     1       3.389   2.445  21.425  0.00  0.00    +0.000 NA
ATOM      7  N   UNL     1       2.262   2.449  22.228  0.00  0.00    +0.000 NA
ATOM      8  C   UNL     1       1.189   2.806  21.555  0.00  0.00    +0.000 A 
ATOM      9  S   UNL     1       1.469   3.149  19.906  0.00  0.00    +0.000 S 
ATOM     10  H   UNL     1       5.903   3.167  17.565  0.00  0.00    +0.000 HD
ATOM     11  H   UNL     1       5.009   2.659  19.511  0.00  0.00    +0.000 HD
ENDROOT
BRANCH   1  12
ATOM     12  C   UNL     1       5.037   4.203  15.931  0.00  0.00    +0.000 C 
BRANCH  12  14
ATOM     13  C   UNL     1       7.432   4.590  16.687  0.00  0.00    +0.000 C 
ATOM     14  C   UNL     1       6.346   4.981  15.681  0.00  0.00    +0.000 C 
BRANCH  14  15
ATOM     15  C   UNL     1       6.801   4.779  14.262  0.00  0.00    +0.000 A 
ATOM     16  C   UNL     1       6.415   3.943  13.232  0.00  0.00    +0.000 A 
ATOM     17  C   UNL     1       7.219   4.274  12.117  0.00  0.00    +0.000 A 
ATOM     18  C   UNL     1       8.048   5.289  12.529  0.00  0.00    +0.000 A 
ATOM     19  O   UNL     1       7.811   5.598  13.832  0.00  0.00    +0.000 OA
ENDBRANCH  14  15
BRANCH  14  20
ATOM     20  O   UNL     1       6.085   6.384  15.843  0.00  0.00    +0.000 OA
ATOM     21  H   UNL     1       6.945   6.831  15.722  0.00  0.00    +0.000 HD
ENDBRANCH  14  20
ENDBRANCH  12  14
ENDBRANCH   1  12
TORSDOF 4
ENDMDL
MODEL 4
REMARK VINA RESULT:      -6.9      2.925      6.009
REMARK  Name = 
REMARK  5 active torsions:
REMARK  status: ('A' for Active; 'I' for Inactive)
REMARK    1  A    between atoms: C_1  and  C_2
REMARK    2  A    between atoms: C_2  and  O_3
REMARK    3  A    between atoms: C_2  and  C_4
REMARK    4  A    between atoms: C_2  and  C_14
REMARK    5  A    between atoms: C_4  and  N_5
REMARK                            x       y       z     vdW  Elec       q    Type
REMARK                         _______ _______ _______ _____ _____    ______ ____
ROOT
ATOM      1  N   UNL     1       4.512   4.175  19.105  0.00  0.00    +0.000 N 
ATOM      2  C   UNL     1       4.908   3.965  17.802  0.00  0.00    +0.000 C 
ATOM      3  O   UNL     1       4.374   3.103  17.115  0.00  0.00    +0.000 OA
ATOM      4  N   UNL     1       5.894   4.823  17.404  0.00  0.00    +0.000 N 
ATOM      5  C   UNL     1       6.406   4.893  16.128  0.00  0.00    +0.000 A 
ATOM      6  N   UNL     1       7.534   5.505  15.839  0.00  0.00    +0.000 NA
ATOM      7  N   UNL     1       7.845   5.419  14.493  0.00  0.00    +0.000 NA
ATOM      8  C   UNL     1       6.909   4.785  13.820  0.00  0.00    +0.000 A 
ATOM      9  S   UNL     1       5.586   4.263  14.765  0.00  0.00    +0.000 S 
ATOM     10  H   UNL     1       5.111   4.687  19.739  0.00  0.00    +0.000 HD
ATOM     11  H   UNL     1       6.442   5.306  18.098  0.00  0.00    +0.000 HD
ENDROOT
BRANCH   1  12
ATOM     12  C   UNL     1       3.517   3.291  19.706  0.00  0.00    +0.000 C 
BRANCH  12  14
ATOM     13  C   UNL     1       1.165   3.184  20.660  0.00  0.00    +0.000 C 
ATOM     14  C   UNL     1       2.069   3.812  19.596  0.00  0.00    +0.000 C 
BRANCH  14  15
ATOM     15  C   UNL     1       2.057   5.314  19.670  0.00  0.00    +0.000 A 
ATOM     16  C   UNL     1       1.793   6.232  20.669  0.00  0.00    +0.000 A 
ATOM     17  C   UNL     1       1.994   7.514  20.106  0.00  0.00    +0.000 A 
ATOM     18  C   UNL     1       2.366   7.305  18.800  0.00  0.00    +0.000 A 
ATOM     19  O   UNL     1       2.398   5.975  18.521  0.00  0.00    +0.000 OA
ENDBRANCH  14  15
BRANCH  14  20
ATOM     20  O   UNL     1       1.546   3.450  18.309  0.00  0.00    +0.000 OA
ATOM     21  H   UNL     1       2.213   3.742  17.659  0.00  0.00    +0.000 HD
ENDBRANCH  14  20
ENDBRANCH  12  14
ENDBRANCH   1  12
TORSDOF 4
ENDMDL
MODEL 5
REMARK VINA RESULT:      -6.7      1.774      1.923
REMARK  Name = 
REMARK  5 active torsions:
REMARK  status: ('A' for Active; 'I' for Inactive)
REMARK    1  A    between atoms: C_1  and  C_2
REMARK    2  A    between atoms: C_2  and  O_3
REMARK    3  A    between atoms: C_2  and  C_4
REMARK    4  A    between atoms: C_2  and  C_14
REMARK    5  A    between atoms: C_4  and  N_5
REMARK                            x       y       z     vdW  Elec       q    Type
REMARK                         _______ _______ _______ _____ _____    ______ ____
ROOT
ATOM      1  N   UNL     1       4.819   3.764  16.175  0.00  0.00    +0.000 N 
ATOM      2  C   UNL     1       4.245   3.575  17.413  0.00  0.00    +0.000 C 
ATOM      3  O   UNL     1       4.901   3.715  18.437  0.00  0.00    +0.000 OA
ATOM      4  N   UNL     1       2.917   3.261  17.337  0.00  0.00    +0.000 N 
ATOM      5  C   UNL     1       2.083   3.113  18.422  0.00  0.00    +0.000 A 
ATOM      6  N   UNL     1       0.903   2.535  18.347  0.00  0.00    +0.000 NA
ATOM      7  N   UNL     1       0.266   2.489  19.575  0.00  0.00    +0.000 NA
ATOM      8  C   UNL     1       0.976   3.079  20.512  0.00  0.00    +0.000 A 
ATOM      9  S   UNL     1       2.454   3.740  19.969  0.00  0.00    +0.000 S 
ATOM     10  H   UNL     1       4.366   3.401  15.346  0.00  0.00    +0.000 HD
ATOM     11  H   UNL     1       2.537   2.915  16.471  0.00  0.00    +0.000 HD
ENDROOT
BRANCH   1  12
ATOM     12  C   UNL     1       6.252   4.031  16.079  0.00  0.00    +0.000 C 
BRANCH  12  14
ATOM     13  C   UNL     1       5.367   6.242  15.193  0.00  0.00    +0.000 C 
ATOM     14  C   UNL     1       6.592   5.494  15.724  0.00  0.00    +0.000 C 
BRANCH  14  15
ATOM     15  C   UNL     1       7.195   6.185  16.916  0.00  0.00    +0.000 A 
ATOM     16  C   UNL     1       7.631   5.768  18.158  0.00  0.00    +0.000 A 
ATOM     17  C   UNL     1       8.138   6.912  18.817  0.00  0.00    +0.000 A 
ATOM     18  C   UNL     1       7.981   7.959  17.941  0.00  0.00    +0.000 A 
ATOM     19  O   UNL     1       7.401   7.533  16.789  0.00  0.00    +0.000 OA
ENDBRANCH  14  15
BRANCH  14  20
ATOM     20  O   UNL     1       7.588   5.496  14.688  0.00  0.00    +0.000 OA
ATOM     21  H   UNL     1       7.604   6.407  14.337  0.00  0.00    +0.000 HD
ENDBRANCH  14  20
ENDBRANCH  12  14
ENDBRANCH   1  12
TORSDOF 4
ENDMDL
MODEL 6
REMARK VINA RESULT:      -6.7      4.988      6.388
REMARK  Name = 
REMARK  5 active torsions:
REMARK  status: ('A' for Active; 'I' for Inactive)
REMARK    1  A    between atoms: C_1  and  C_2
REMARK    2  A    between atoms: C_2  and  O_3
REMARK    3  A    between atoms: C_2  and  C_4
REMARK    4  A    between atoms: C_2  and  C_14
REMARK    5  A    between atoms: C_4  and  N_5
REMARK                            x       y       z     vdW  Elec       q    Type
REMARK                         _______ _______ _______ _____ _____    ______ ____
ROOT
ATOM      1  N   UNL     1       2.542   6.836  19.996  0.00  0.00    +0.000 N 
ATOM      2  C   UNL     1       1.834   8.004  20.181  0.00  0.00    +0.000 C 
ATOM      3  O   UNL     1       1.573   8.736  19.235  0.00  0.00    +0.000 OA
ATOM      4  N   UNL     1       1.461   8.196  21.482  0.00  0.00    +0.000 N 
ATOM      5  C   UNL     1       0.668   9.229  21.926  0.00  0.00    +0.000 A 
ATOM      6  N   UNL     1       0.563   9.560  23.195  0.00  0.00    +0.000 NA
ATOM      7  N   UNL     1      -0.277  10.643  23.385  0.00  0.00    +0.000 NA
ATOM      8  C   UNL     1      -0.807  11.050  22.251  0.00  0.00    +0.000 A 
ATOM      9  S   UNL     1      -0.335  10.143  20.883  0.00  0.00    +0.000 S 
ATOM     10  H   UNL     1       2.976   6.378  20.787  0.00  0.00    +0.000 HD
ATOM     11  H   UNL     1       1.935   7.692  22.214  0.00  0.00    +0.000 HD
ENDROOT
BRANCH   1  12
ATOM     12  C   UNL     1       3.078   6.522  18.675  0.00  0.00    +0.000 C 
BRANCH  12  14
ATOM     13  C   UNL     1       4.826   4.799  19.332  0.00  0.00    +0.000 C 
ATOM     14  C   UNL     1       3.553   5.060  18.525  0.00  0.00    +0.000 C 
BRANCH  14  15
ATOM     15  C   UNL     1       2.446   4.119  18.909  0.00  0.00    +0.000 A 
ATOM     16  C   UNL     1       1.542   3.348  18.202  0.00  0.00    +0.000 A 
ATOM     17  C   UNL     1       0.774   2.643  19.158  0.00  0.00    +0.000 A 
ATOM     18  C   UNL     1       1.252   3.023  20.389  0.00  0.00    +0.000 A 
ATOM     19  O   UNL     1       2.259   3.926  20.251  0.00  0.00    +0.000 OA
ENDBRANCH  14  15
BRANCH  14  20
ATOM     20  O   UNL     1       3.854   4.814  17.142  0.00  0.00    +0.000 OA
ATOM     21  H   UNL     1       4.471   5.523  16.874  0.00  0.00    +0.000 HD
ENDBRANCH  14  20
ENDBRANCH  12  14
ENDBRANCH   1  12
TORSDOF 4
ENDMDL
MODEL 7
REMARK VINA RESULT:      -6.7      1.628      2.856
REMARK  Name = 
REMARK  5 active torsions:
REMARK  status: ('A' for Active; 'I' for Inactive)
REMARK    1  A    between atoms: C_1  and  C_2
REMARK    2  A    between atoms: C_2  and  O_3
REMARK    3  A    between atoms: C_2  and  C_4
REMARK    4  A    between atoms: C_2  and  C_14
REMARK    5  A    between atoms: C_4  and  N_5
REMARK                            x       y       z     vdW  Elec       q    Type
REMARK                         _______ _______ _______ _____ _____    ______ ____
ROOT
ATOM      1  N   UNL     1       5.208   5.858  18.509  0.00  0.00    +0.000 N 
ATOM      2  C   UNL     1       4.061   5.097  18.566  0.00  0.00    +0.000 C 
ATOM      3  O   UNL     1       3.449   4.805  17.547  0.00  0.00    +0.000 OA
ATOM      4  N   UNL     1       3.744   4.714  19.840  0.00  0.00    +0.000 N 
ATOM      5  C   UNL     1       2.705   3.874  20.170  0.00  0.00    +0.000 A 
ATOM      6  N   UNL     1       2.243   3.752  21.396  0.00  0.00    +0.000 NA
ATOM      7  N   UNL     1       1.184   2.863  21.469  0.00  0.00    +0.000 NA
ATOM      8  C   UNL     1       0.929   2.318  20.299  0.00  0.00    +0.000 A 
ATOM      9  S   UNL     1       1.958   2.833  19.037  0.00  0.00    +0.000 S 
ATOM     10  H   UNL     1       5.556   6.311  19.344  0.00  0.00    +0.000 HD
ATOM     11  H   UNL     1       4.142   5.209  20.621  0.00  0.00    +0.000 HD
ENDROOT
BRANCH   1  12
ATOM     12  C   UNL     1       5.641   6.410  17.228  0.00  0.00    +0.000 C 
BRANCH  12  14
ATOM     13  C   UNL     1       7.630   4.921  17.758  0.00  0.00    +0.000 C 
ATOM     14  C   UNL     1       6.969   5.819  16.709  0.00  0.00    +0.000 C 
BRANCH  14  15
ATOM     15  C   UNL     1       6.735   5.088  15.417  0.00  0.00    +0.000 A 
ATOM     16  C   UNL     1       5.795   4.175  14.977  0.00  0.00    +0.000 A 
ATOM     17  C   UNL     1       6.103   3.893  13.626  0.00  0.00    +0.000 A 
ATOM     18  C   UNL     1       7.211   4.647  13.320  0.00  0.00    +0.000 A 
ATOM     19  O   UNL     1       7.610   5.368  14.401  0.00  0.00    +0.000 OA
ENDBRANCH  14  15
BRANCH  14  20
ATOM     20  O   UNL     1       7.873   6.898  16.425  0.00  0.00    +0.000 OA
ATOM     21  H   UNL     1       7.783   7.075  15.469  0.00  0.00    +0.000 HD
ENDBRANCH  14  20
ENDBRANCH  12  14
ENDBRANCH   1  12
TORSDOF 4
ENDMDL
MODEL 8
REMARK VINA RESULT:      -6.7      2.704      5.907
REMARK  Name = 
REMARK  5 active torsions:
REMARK  status: ('A' for Active; 'I' for Inactive)
REMARK    1  A    between atoms: C_1  and  C_2
REMARK    2  A    between atoms: C_2  and  O_3
REMARK    3  A    between atoms: C_2  and  C_4
REMARK    4  A    between atoms: C_2  and  C_14
REMARK    5  A    between atoms: C_4  and  N_5
REMARK                            x       y       z     vdW  Elec       q    Type
REMARK                         _______ _______ _______ _____ _____    ______ ____
ROOT
ATOM      1  N   UNL     1       4.603   3.378  19.416  0.00  0.00    +0.000 N 
ATOM      2  C   UNL     1       4.887   3.390  18.068  0.00  0.00    +0.000 C 
ATOM      3  O   UNL     1       4.222   2.731  17.280  0.00  0.00    +0.000 OA
ATOM      4  N   UNL     1       5.930   4.218  17.755  0.00  0.00    +0.000 N 
ATOM      5  C   UNL     1       6.359   4.488  16.476  0.00  0.00    +0.000 A 
ATOM      6  N   UNL     1       7.524   5.041  16.212  0.00  0.00    +0.000 NA
ATOM      7  N   UNL     1       7.734   5.191  14.852  0.00  0.00    +0.000 NA
ATOM      8  C   UNL     1       6.694   4.787  14.154  0.00  0.00    +0.000 A 
ATOM      9  S   UNL     1       5.390   4.212  15.094  0.00  0.00    +0.000 S 
ATOM     10  H   UNL     1       5.293   3.701  20.081  0.00  0.00    +0.000 HD
ATOM     11  H   UNL     1       6.570   4.505  18.478  0.00  0.00    +0.000 HD
ENDROOT
BRANCH   1  12
ATOM     12  C   UNL     1       3.564   2.487  19.924  0.00  0.00    +0.000 C 
BRANCH  12  14
ATOM     13  C   UNL     1       1.357   2.925  21.104  0.00  0.00    +0.000 C 
ATOM     14  C   UNL     1       2.134   3.054  19.792  0.00  0.00    +0.000 C 
BRANCH  14  15
ATOM     15  C   UNL     1       2.189   4.478  19.313  0.00  0.00    +0.000 A 
ATOM     16  C   UNL     1       1.869   5.114  18.128  0.00  0.00    +0.000 A 
ATOM     17  C   UNL     1       2.113   6.492  18.328  0.00  0.00    +0.000 A 
ATOM     18  C   UNL     1       2.568   6.618  19.619  0.00  0.00    +0.000 A 
ATOM     19  O   UNL     1       2.628   5.402  20.223  0.00  0.00    +0.000 OA
ENDBRANCH  14  15
BRANCH  14  20
ATOM     20  O   UNL     1       1.431   2.300  18.792  0.00  0.00    +0.000 OA
ATOM     21  H   UNL     1       1.449   2.848  17.984  0.00  0.00    +0.000 HD
ENDBRANCH  14  20
ENDBRANCH  12  14
ENDBRANCH   1  12
TORSDOF 4
ENDMDL
MODEL 9
REMARK VINA RESULT:      -6.6      2.252      3.189
REMARK  Name = 
REMARK  5 active torsions:
REMARK  status: ('A' for Active; 'I' for Inactive)
REMARK    1  A    between atoms: C_1  and  C_2
REMARK    2  A    between atoms: C_2  and  O_3
REMARK    3  A    between atoms: C_2  and  C_4
REMARK    4  A    between atoms: C_2  and  C_14
REMARK    5  A    between atoms: C_4  and  N_5
REMARK                            x       y       z     vdW  Elec       q    Type
REMARK                         _______ _______ _______ _____ _____    ______ ____
ROOT
ATOM      1  N   UNL     1       4.414   6.552  17.357  0.00  0.00    +0.000 N 
ATOM      2  C   UNL     1       3.823   5.677  18.243  0.00  0.00    +0.000 C 
ATOM      3  O   UNL     1       4.215   5.595  19.400  0.00  0.00    +0.000 OA
ATOM      4  N   UNL     1       2.783   4.985  17.688  0.00  0.00    +0.000 N 
ATOM      5  C   UNL     1       1.964   4.118  18.374  0.00  0.00    +0.000 A 
ATOM      6  N   UNL     1       1.171   3.255  17.776  0.00  0.00    +0.000 NA
ATOM      7  N   UNL     1       0.463   2.482  18.681  0.00  0.00    +0.000 NA
ATOM      8  C   UNL     1       0.721   2.834  19.923  0.00  0.00    +0.000 A 
ATOM      9  S   UNL     1       1.823   4.128  20.079  0.00  0.00    +0.000 S 
ATOM     10  H   UNL     1       4.273   6.436  16.363  0.00  0.00    +0.000 HD
ATOM     11  H   UNL     1       2.706   4.924  16.686  0.00  0.00    +0.000 HD
ENDROOT
BRANCH   1  12
ATOM     12  C   UNL     1       5.588   7.313  17.774  0.00  0.00    +0.000 C 
BRANCH  12  14
ATOM     13  C   UNL     1       7.656   6.094  18.607  0.00  0.00    +0.000 C 
ATOM     14  C   UNL     1       6.930   6.657  17.383  0.00  0.00    +0.000 C 
BRANCH  14  15
ATOM     15  C   UNL     1       6.699   5.602  16.337  0.00  0.00    +0.000 A 
ATOM     16  C   UNL     1       6.916   4.239  16.273  0.00  0.00    +0.000 A 
ATOM     17  C   UNL     1       6.443   3.811  15.010  0.00  0.00    +0.000 A 
ATOM     18  C   UNL     1       5.968   4.934  14.378  0.00  0.00    +0.000 A 
ATOM     19  O   UNL     1       6.127   6.029  15.168  0.00  0.00    +0.000 OA
ENDBRANCH  14  15
BRANCH  14  20
ATOM     20  O   UNL     1       7.776   7.656  16.793  0.00  0.00    +0.000 OA
ATOM     21  H   UNL     1       8.688   7.319  16.885  0.00  0.00    +0.000 HD
ENDBRANCH  14  20
ENDBRANCH  12  14
ENDBRANCH   1  12
TORSDOF 4
ENDMDL
