MODEL 1
REMARK VINA RESULT:      -7.2      0.000      0.000
REMARK  Name = 
REMARK  2 active torsions:
REMARK  status: ('A' for Active; 'I' for Inactive)
REMARK    1  A    between atoms: N_6  and  C_7
REMARK    2  A    between atoms: C_7  and  C_8
REMARK                            x       y       z     vdW  Elec       q    Type
REMARK                         _______ _______ _______ _____ _____    ______ ____
ROOT
ATOM      1 BR   UNL     1       5.728   2.940  11.838  0.00  0.00    +0.000 Br
ATOM      2  C   UNL     1       6.003   3.908  13.417  0.00  0.00    +0.000 A 
ATOM      3  C   UNL     1       5.104   3.935  14.454  0.00  0.00    +0.000 A 
ATOM      4  C   UNL     1       5.557   4.772  15.531  0.00  0.00    +0.000 A 
ATOM      5  C   UNL     1       4.994   5.131  16.774  0.00  0.00    +0.000 A 
ATOM      6  N   UNL     1       3.788   4.605  17.212  0.00  0.00    +0.000 N 
ATOM      7  N   UNL     1       5.682   5.991  17.561  0.00  0.00    +0.000 NA
ATOM      8  C   UNL     1       6.876   6.444  17.146  0.00  0.00    +0.000 A 
ATOM      9  N   UNL     1       7.502   6.169  15.999  0.00  0.00    +0.000 NA
ATOM     10  C   UNL     1       6.793   5.329  15.229  0.00  0.00    +0.000 A 
ATOM     11  S   UNL     1       7.383   4.842  13.703  0.00  0.00    +0.000 S 
ATOM     12  H   UNL     1       3.301   4.003  16.563  0.00  0.00    +0.000 HD
ENDROOT
BRANCH   6  13
ATOM     13  C   UNL     1       2.937   5.414  18.067  0.00  0.00    +0.000 C 
BRANCH  13  14
ATOM     14  C   UNL     1       2.281   4.544  19.118  0.00  0.00    +0.000 A 
ATOM     15  C   UNL     1       1.351   3.561  18.765  0.00  0.00    +0.000 A 
ATOM     16  C   UNL     1       0.799   2.773  19.765  0.00  0.00    +0.000 A 
ATOM     17  N   UNL     1       1.100   2.901  21.074  0.00  0.00    +0.000 NA
ATOM     18  C   UNL     1       2.000   3.852  21.398  0.00  0.00    +0.000 A 
ATOM     19  C   UNL     1       2.610   4.686  20.471  0.00  0.00    +0.000 A 
ENDBRANCH  13  14
ENDBRANCH   6  13
TORSDOF 2
ENDMDL
MODEL 2
REMARK VINA RESULT:      -7.2      1.376      1.510
REMARK  Name = 
REMARK  2 active torsions:
REMARK  status: ('A' for Active; 'I' for Inactive)
REMARK    1  A    between atoms: N_6  and  C_7
REMARK    2  A    between atoms: C_7  and  C_8
REMARK                            x       y       z     vdW  Elec       q    Type
REMARK                         _______ _______ _______ _____ _____    ______ ____
ROOT
ATOM      1 BR   UNL     1       5.656   3.196  12.580  0.00  0.00    +0.000 Br
ATOM      2  C   UNL     1       6.154   4.048  14.171  0.00  0.00    +0.000 A 
ATOM      3  C   UNL     1       5.763   3.616  15.414  0.00  0.00    +0.000 A 
ATOM      4  C   UNL     1       6.269   4.466  16.457  0.00  0.00    +0.000 A 
ATOM      5  C   UNL     1       6.130   4.455  17.861  0.00  0.00    +0.000 A 
ATOM      6  N   UNL     1       5.441   3.448  18.522  0.00  0.00    +0.000 N 
ATOM      7  N   UNL     1       6.720   5.446  18.569  0.00  0.00    +0.000 NA
ATOM      8  C   UNL     1       7.433   6.379  17.917  0.00  0.00    +0.000 A 
ATOM      9  N   UNL     1       7.633   6.484  16.600  0.00  0.00    +0.000 NA
ATOM     10  C   UNL     1       7.024   5.501  15.920  0.00  0.00    +0.000 A 
ATOM     11  S   UNL     1       7.124   5.432  14.217  0.00  0.00    +0.000 S 
ATOM     12  H   UNL     1       4.987   2.760  17.938  0.00  0.00    +0.000 HD
ENDROOT
BRANCH   6  13
ATOM     13  C   UNL     1       4.753   3.763  19.761  0.00  0.00    +0.000 C 
BRANCH  13  14
ATOM     14  C   UNL     1       3.288   3.397  19.649  0.00  0.00    +0.000 A 
ATOM     15  C   UNL     1       2.699   3.149  18.404  0.00  0.00    +0.000 A 
ATOM     16  C   UNL     1       1.359   2.792  18.358  0.00  0.00    +0.000 A 
ATOM     17  N   UNL     1       0.576   2.674  19.450  0.00  0.00    +0.000 NA
ATOM     18  C   UNL     1       1.159   2.915  20.643  0.00  0.00    +0.000 A 
ATOM     19  C   UNL     1       2.491   3.273  20.792  0.00  0.00    +0.000 A 
ENDBRANCH  13  14
ENDBRANCH   6  13
TORSDOF 2
ENDMDL
MODEL 3
REMARK VINA RESULT:      -7.1      0.374      1.165
REMARK  Name = 
REMARK  2 active torsions:
REMARK  status: ('A' for Active; 'I' for Inactive)
REMARK    1  A    between atoms: N_6  and  C_7
REMARK    2  A    between atoms: C_7  and  C_8
REMARK                            x       y       z     vdW  Elec       q    Type
REMARK                         _______ _______ _______ _____ _____    ______ ____
ROOT
ATOM      1 BR   UNL     1       6.195   3.122  12.084  0.00  0.00    +0.000 Br
ATOM      2  C   UNL     1       6.258   4.040  13.715  0.00  0.00    +0.000 A 
ATOM      3  C   UNL     1       5.254   3.989  14.649  0.00  0.00    +0.000 A 
ATOM      4  C   UNL     1       5.553   4.804  15.796  0.00  0.00    +0.000 A 
ATOM      5  C   UNL     1       4.846   5.092  16.983  0.00  0.00    +0.000 A 
ATOM      6  N   UNL     1       3.625   4.499  17.272  0.00  0.00    +0.000 N 
ATOM      7  N   UNL     1       5.406   5.949  17.867  0.00  0.00    +0.000 NA
ATOM      8  C   UNL     1       6.615   6.468  17.597  0.00  0.00    +0.000 A 
ATOM      9  N   UNL     1       7.371   6.263  16.515  0.00  0.00    +0.000 NA
ATOM     10  C   UNL     1       6.786   5.424  15.646  0.00  0.00    +0.000 A 
ATOM     11  S   UNL     1       7.556   5.020  14.177  0.00  0.00    +0.000 S 
ATOM     12  H   UNL     1       3.238   3.902  16.555  0.00  0.00    +0.000 HD
ENDROOT
BRANCH   6  13
ATOM     13  C   UNL     1       2.652   5.238  18.057  0.00  0.00    +0.000 C 
BRANCH  13  14
ATOM     14  C   UNL     1       2.175   4.394  19.219  0.00  0.00    +0.000 A 
ATOM     15  C   UNL     1       2.642   4.622  20.518  0.00  0.00    +0.000 A 
ATOM     16  C   UNL     1       2.153   3.836  21.552  0.00  0.00    +0.000 A 
ATOM     17  N   UNL     1       1.249   2.849  21.382  0.00  0.00    +0.000 NA
ATOM     18  C   UNL     1       0.806   2.643  20.124  0.00  0.00    +0.000 A 
ATOM     19  C   UNL     1       1.232   3.378  19.026  0.00  0.00    +0.000 A 
ENDBRANCH  13  14
ENDBRANCH   6  13
TORSDOF 2
ENDMDL
MODEL 4
REMARK VINA RESULT:      -6.9      0.999      1.157
REMARK  Name = 
REMARK  2 active torsions:
REMARK  status: ('A' for Active; 'I' for Inactive)
REMARK    1  A    between atoms: N_6  and  C_7
REMARK    2  A    between atoms: C_7  and  C_8
REMARK                            x       y       z     vdW  Elec       q    Type
REMARK                         _______ _______ _______ _____ _____    ______ ____
ROOT
ATOM      1 BR   UNL     1       6.333   3.198  11.916  0.00  0.00    +0.000 Br
ATOM      2  C   UNL     1       6.328   4.018  13.599  0.00  0.00    +0.000 A 
ATOM      3  C   UNL     1       5.348   3.813  14.537  0.00  0.00    +0.000 A 
ATOM      4  C   UNL     1       5.582   4.582  15.729  0.00  0.00    +0.000 A 
ATOM      5  C   UNL     1       4.867   4.727  16.938  0.00  0.00    +0.000 A 
ATOM      6  N   UNL     1       3.715   4.001  17.200  0.00  0.00    +0.000 N 
ATOM      7  N   UNL     1       5.353   5.581  17.867  0.00  0.00    +0.000 NA
ATOM      8  C   UNL     1       6.502   6.232  17.620  0.00  0.00    +0.000 A 
ATOM      9  N   UNL     1       7.258   6.168  16.521  0.00  0.00    +0.000 NA
ATOM     10  C   UNL     1       6.746   5.328  15.607  0.00  0.00    +0.000 A 
ATOM     11  S   UNL     1       7.531   5.092  14.110  0.00  0.00    +0.000 S 
ATOM     12  H   UNL     1       3.378   3.412  16.451  0.00  0.00    +0.000 HD
ENDROOT
BRANCH   6  13
ATOM     13  C   UNL     1       2.686   4.592  18.037  0.00  0.00    +0.000 C 
BRANCH  13  14
ATOM     14  C   UNL     1       2.644   3.892  19.379  0.00  0.00    +0.000 A 
ATOM     15  C   UNL     1       3.606   2.938  19.726  0.00  0.00    +0.000 A 
ATOM     16  C   UNL     1       3.537   2.345  20.979  0.00  0.00    +0.000 A 
ATOM     17  N   UNL     1       2.586   2.628  21.892  0.00  0.00    +0.000 NA
ATOM     18  C   UNL     1       1.666   3.552  21.543  0.00  0.00    +0.000 A 
ATOM     19  C   UNL     1       1.653   4.202  20.317  0.00  0.00    +0.000 A 
ENDBRANCH  13  14
ENDBRANCH   6  13
TORSDOF 2
ENDMDL
MODEL 5
REMARK VINA RESULT:      -6.5      5.168      6.220
REMARK  Name = 
REMARK  2 active torsions:
REMARK  status: ('A' for Active; 'I' for Inactive)
REMARK    1  A    between atoms: N_6  and  C_7
REMARK    2  A    between atoms: C_7  and  C_8
REMARK                            x       y       z     vdW  Elec       q    Type
REMARK                         _______ _______ _______ _____ _____    ______ ____
ROOT
ATOM      1 BR   UNL     1       1.661   2.823  21.545  0.00  0.00    +0.000 Br
ATOM      2  C   UNL     1       2.507   3.911  20.277  0.00  0.00    +0.000 A 
ATOM      3  C   UNL     1       2.148   5.214  20.039  0.00  0.00    +0.000 A 
ATOM      4  C   UNL     1       2.947   5.806  19.000  0.00  0.00    +0.000 A 
ATOM      5  C   UNL     1       2.950   7.081  18.395  0.00  0.00    +0.000 A 
ATOM      6  N   UNL     1       2.104   8.095  18.819  0.00  0.00    +0.000 N 
ATOM      7  N   UNL     1       3.831   7.310  17.395  0.00  0.00    +0.000 NA
ATOM      8  C   UNL     1       4.682   6.334  17.037  0.00  0.00    +0.000 A 
ATOM      9  N   UNL     1       4.770   5.101  17.541  0.00  0.00    +0.000 NA
ATOM     10  C   UNL     1       3.875   4.892  18.519  0.00  0.00    +0.000 A 
ATOM     11  S   UNL     1       3.786   3.380  19.306  0.00  0.00    +0.000 S 
ATOM     12  H   UNL     1       1.440   7.851  19.540  0.00  0.00    +0.000 HD
ENDROOT
BRANCH   6  13
ATOM     13  C   UNL     1       1.640   9.074  17.852  0.00  0.00    +0.000 C 
BRANCH  13  14
ATOM     14  C   UNL     1       0.528   9.908  18.451  0.00  0.00    +0.000 A 
ATOM     15  C   UNL     1      -0.730   9.980  17.843  0.00  0.00    +0.000 A 
ATOM     16  C   UNL     1      -1.723  10.738  18.448  0.00  0.00    +0.000 A 
ATOM     17  N   UNL     1      -1.549  11.425  19.595  0.00  0.00    +0.000 NA
ATOM     18  C   UNL     1      -0.331  11.345  20.171  0.00  0.00    +0.000 A 
ATOM     19  C   UNL     1       0.723  10.611  19.646  0.00  0.00    +0.000 A 
ENDBRANCH  13  14
ENDBRANCH   6  13
TORSDOF 2
ENDMDL
MODEL 6
REMARK VINA RESULT:      -6.4      3.590      6.912
REMARK  Name = 
REMARK  2 active torsions:
REMARK  status: ('A' for Active; 'I' for Inactive)
REMARK    1  A    between atoms: N_6  and  C_7
REMARK    2  A    between atoms: C_7  and  C_8
REMARK                            x       y       z     vdW  Elec       q    Type
REMARK                         _______ _______ _______ _____ _____    ______ ____
ROOT
ATOM      1 BR   UNL     1       1.823   9.599  17.969  0.00  0.00    +0.000 Br
ATOM      2  C   UNL     1       2.511   7.911  18.401  0.00  0.00    +0.000 A 
ATOM      3  C   UNL     1       3.368   7.214  17.588  0.00  0.00    +0.000 A 
ATOM      4  C   UNL     1       3.721   5.940  18.153  0.00  0.00    +0.000 A 
ATOM      5  C   UNL     1       4.534   4.878  17.702  0.00  0.00    +0.000 A 
ATOM      6  N   UNL     1       5.250   4.956  16.517  0.00  0.00    +0.000 N 
ATOM      7  N   UNL     1       4.630   3.774  18.479  0.00  0.00    +0.000 NA
ATOM      8  C   UNL     1       3.976   3.742  19.651  0.00  0.00    +0.000 A 
ATOM      9  N   UNL     1       3.188   4.684  20.175  0.00  0.00    +0.000 NA
ATOM     10  C   UNL     1       3.095   5.761  19.379  0.00  0.00    +0.000 A 
ATOM     11  S   UNL     1       2.129   7.093  19.831  0.00  0.00    +0.000 S 
ATOM     12  H   UNL     1       5.105   5.786  15.960  0.00  0.00    +0.000 HD
ENDROOT
BRANCH   6  13
ATOM     13  C   UNL     1       5.498   3.738  15.764  0.00  0.00    +0.000 C 
BRANCH  13  14
ATOM     14  C   UNL     1       6.181   4.068  14.454  0.00  0.00    +0.000 A 
ATOM     15  C   UNL     1       7.196   5.028  14.391  0.00  0.00    +0.000 A 
ATOM     16  C   UNL     1       7.808   5.275  13.170  0.00  0.00    +0.000 A 
ATOM     17  N   UNL     1       7.478   4.645  12.024  0.00  0.00    +0.000 NA
ATOM     18  C   UNL     1       6.498   3.721  12.102  0.00  0.00    +0.000 A 
ATOM     19  C   UNL     1       5.830   3.401  13.275  0.00  0.00    +0.000 A 
ENDBRANCH  13  14
ENDBRANCH   6  13
TORSDOF 2
ENDMDL
MODEL 7
REMARK VINA RESULT:      -6.4      3.667      6.810
REMARK  Name = 
REMARK  2 active torsions:
REMARK  status: ('A' for Active; 'I' for Inactive)
REMARK    1  A    between atoms: N_6  and  C_7
REMARK    2  A    between atoms: C_7  and  C_8
REMARK                            x       y       z     vdW  Elec       q    Type
REMARK                         _______ _______ _______ _____ _____    ______ ____
ROOT
ATOM      1 BR   UNL     1       2.250   2.654  21.476  0.00  0.00    +0.000 Br
ATOM      2  C   UNL     1       2.640   4.047  20.287  0.00  0.00    +0.000 A 
ATOM      3  C   UNL     1       3.562   3.941  19.276  0.00  0.00    +0.000 A 
ATOM      4  C   UNL     1       3.678   5.166  18.531  0.00  0.00    +0.000 A 
ATOM      5  C   UNL     1       4.483   5.557  17.440  0.00  0.00    +0.000 A 
ATOM      6  N   UNL     1       5.350   4.672  16.815  0.00  0.00    +0.000 N 
ATOM      7  N   UNL     1       4.369   6.826  16.986  0.00  0.00    +0.000 NA
ATOM      8  C   UNL     1       3.482   7.651  17.566  0.00  0.00    +0.000 A 
ATOM      9  N   UNL     1       2.671   7.387  18.594  0.00  0.00    +0.000 NA
ATOM     10  C   UNL     1       2.815   6.128  19.038  0.00  0.00    +0.000 A 
ATOM     11  S   UNL     1       1.894   5.562  20.358  0.00  0.00    +0.000 S 
ATOM     12  H   UNL     1       5.423   3.752  17.225  0.00  0.00    +0.000 HD
ENDROOT
BRANCH   6  13
ATOM     13  C   UNL     1       6.572   5.187  16.221  0.00  0.00    +0.000 C 
BRANCH  13  14
ATOM     14  C   UNL     1       6.650   4.784  14.764  0.00  0.00    +0.000 A 
ATOM     15  C   UNL     1       7.619   5.329  13.915  0.00  0.00    +0.000 A 
ATOM     16  C   UNL     1       7.664   4.907  12.594  0.00  0.00    +0.000 A 
ATOM     17  N   UNL     1       6.818   3.998  12.067  0.00  0.00    +0.000 NA
ATOM     18  C   UNL     1       5.890   3.480  12.899  0.00  0.00    +0.000 A 
ATOM     19  C   UNL     1       5.768   3.835  14.235  0.00  0.00    +0.000 A 
ENDBRANCH  13  14
ENDBRANCH   6  13
TORSDOF 2
ENDMDL
MODEL 8
REMARK VINA RESULT:      -6.4      1.939      2.528
REMARK  Name = 
REMARK  2 active torsions:
REMARK  status: ('A' for Active; 'I' for Inactive)
REMARK    1  A    between atoms: N_6  and  C_7
REMARK    2  A    between atoms: C_7  and  C_8
REMARK                            x       y       z     vdW  Elec       q    Type
REMARK                         _______ _______ _______ _____ _____    ______ ____
ROOT
ATOM      1 BR   UNL     1       6.441   4.030  13.483  0.00  0.00    +0.000 Br
ATOM      2  C   UNL     1       5.803   4.632  15.138  0.00  0.00    +0.000 A 
ATOM      3  C   UNL     1       5.766   3.848  16.264  0.00  0.00    +0.000 A 
ATOM      4  C   UNL     1       5.210   4.554  17.386  0.00  0.00    +0.000 A 
ATOM      5  C   UNL     1       4.948   4.184  18.723  0.00  0.00    +0.000 A 
ATOM      6  N   UNL     1       5.293   2.936  19.219  0.00  0.00    +0.000 N 
ATOM      7  N   UNL     1       4.370   5.099  19.536  0.00  0.00    +0.000 NA
ATOM      8  C   UNL     1       4.097   6.322  19.054  0.00  0.00    +0.000 A 
ATOM      9  N   UNL     1       4.306   6.779  17.816  0.00  0.00    +0.000 NA
ATOM     10  C   UNL     1       4.862   5.849  17.024  0.00  0.00    +0.000 A 
ATOM     11  S   UNL     1       5.209   6.195  15.390  0.00  0.00    +0.000 S 
ATOM     12  H   UNL     1       5.681   2.282  18.554  0.00  0.00    +0.000 HD
ENDROOT
BRANCH   6  13
ATOM     13  C   UNL     1       4.479   2.346  20.268  0.00  0.00    +0.000 C 
BRANCH  13  14
ATOM     14  C   UNL     1       3.011   2.484  19.924  0.00  0.00    +0.000 A 
ATOM     15  C   UNL     1       2.506   2.010  18.708  0.00  0.00    +0.000 A 
ATOM     16  C   UNL     1       1.148   2.138  18.453  0.00  0.00    +0.000 A 
ATOM     17  N   UNL     1       0.273   2.704  19.310  0.00  0.00    +0.000 NA
ATOM     18  C   UNL     1       0.775   3.155  20.478  0.00  0.00    +0.000 A 
ATOM     19  C   UNL     1       2.116   3.069  20.827  0.00  0.00    +0.000 A 
ENDBRANCH  13  14
ENDBRANCH   6  13
TORSDOF 2
ENDMDL
MODEL 9
REMARK VINA RESULT:      -6.4      3.682      6.751
REMARK  Name = 
REMARK  2 active torsions:
REMARK  status: ('A' for Active; 'I' for Inactive)
REMARK    1  A    between atoms: N_6  and  C_7
REMARK    2  A    between atoms: C_7  and  C_8
REMARK                            x       y       z     vdW  Elec       q    Type
REMARK                         _______ _______ _______ _____ _____    ______ ____
ROOT
ATOM      1 BR   UNL     1       2.187   2.608  21.535  0.00  0.00    +0.000 Br
ATOM      2  C   UNL     1       2.587   4.000  20.347  0.00  0.00    +0.000 A 
ATOM      3  C   UNL     1       3.522   3.895  19.348  0.00  0.00    +0.000 A 
ATOM      4  C   UNL     1       3.643   5.119  18.602  0.00  0.00    +0.000 A 
ATOM      5  C   UNL     1       4.460   5.510  17.520  0.00  0.00    +0.000 A 
ATOM      6  N   UNL     1       5.337   4.627  16.907  0.00  0.00    +0.000 N 
ATOM      7  N   UNL     1       4.348   6.778  17.062  0.00  0.00    +0.000 NA
ATOM      8  C   UNL     1       3.452   7.601  17.630  0.00  0.00    +0.000 A 
ATOM      9  N   UNL     1       2.630   7.337  18.649  0.00  0.00    +0.000 NA
ATOM     10  C   UNL     1       2.772   6.080  19.096  0.00  0.00    +0.000 A 
ATOM     11  S   UNL     1       1.836   5.514  20.407  0.00  0.00    +0.000 S 
ATOM     12  H   UNL     1       5.407   3.708  17.320  0.00  0.00    +0.000 HD
ENDROOT
BRANCH   6  13
ATOM     13  C   UNL     1       6.565   5.143  16.327  0.00  0.00    +0.000 C 
BRANCH  13  14
ATOM     14  C   UNL     1       6.653   4.753  14.867  0.00  0.00    +0.000 A 
ATOM     15  C   UNL     1       5.790   3.796  14.322  0.00  0.00    +0.000 A 
ATOM     16  C   UNL     1       5.896   3.493  12.972  0.00  0.00    +0.000 A 
ATOM     17  N   UNL     1       6.793   4.064  12.142  0.00  0.00    +0.000 NA
ATOM     18  C   UNL     1       7.616   4.987  12.682  0.00  0.00    +0.000 A 
ATOM     19  C   UNL     1       7.585   5.360  14.018  0.00  0.00    +0.000 A 
ENDBRANCH  13  14
ENDBRANCH   6  13
TORSDOF 2
ENDMDL
