MODEL 1
REMARK VINA RESULT:      -8.3      0.000      0.000
REMARK  Name = 
REMARK  11 active torsions:
REMARK  status: ('A' for Active; 'I' for Inactive)
REMARK    1  A    between atoms: C_1  and  O_2
REMARK    2  A    between atoms: O_2  and  C_3
REMARK    3  A    between atoms: C_6  and  C_7
REMARK    4  A    between atoms: C_10  and  O_11
REMARK    5  A    between atoms: O_11  and  C_12
REMARK    6  A    between atoms: C_12  and  C_13
REMARK    7  A    between atoms: C_13  and  N_14
REMARK    8  A    between atoms: C_18  and  C_19
REMARK    9  A    between atoms: C_19  and  O_21
REMARK   10  A    between atoms: C_22  and  S_23
REMARK   11  A    between atoms: S_23  and  C_24
REMARK                            x       y       z     vdW  Elec       q    Type
REMARK                         _______ _______ _______ _____ _____    ______ ____
ROOT
ATOM      1  C   UNL     1       0.952   9.150  19.827  0.00  0.00    +0.000 A 
ATOM      2  C   UNL     1       1.217   9.336  18.467  0.00  0.00    +0.000 A 
ATOM      3  C   UNL     1       1.943   8.407  17.738  0.00  0.00    +0.000 A 
ATOM      4  C   UNL     1       2.509   7.284  18.355  0.00  0.00    +0.000 A 
ATOM      5  C   UNL     1       2.228   7.038  19.710  0.00  0.00    +0.000 A 
ATOM      6  C   UNL     1       1.469   7.984  20.432  0.00  0.00    +0.000 A 
ENDROOT
BRANCH   1  10
ATOM      7  C   UNL     1      -1.512  12.041  21.865  0.00  0.00    +0.000 A 
ATOM      8  C   UNL     1      -1.420  12.039  20.479  0.00  0.00    +0.000 A 
ATOM      9  C   UNL     1      -0.628  11.092  19.833  0.00  0.00    +0.000 A 
ATOM     10  C   UNL     1       0.124  10.140  20.549  0.00  0.00    +0.000 A 
ATOM     11  C   UNL     1       0.054  10.189  21.949  0.00  0.00    +0.000 A 
ATOM     12  C   UNL     1      -0.764  11.124  22.602  0.00  0.00    +0.000 A 
BRANCH   7  14
ATOM     13  C   UNL     1      -1.987  13.441  23.696  0.00  0.00    +0.000 C 
ATOM     14  O   UNL     1      -2.330  13.003  22.387  0.00  0.00    +0.000 OA
ENDBRANCH   7  14
ENDBRANCH   1  10
BRANCH   4  15
ATOM     15  O   UNL     1       3.367   6.434  17.679  0.00  0.00    +0.000 OA
BRANCH  15  16
ATOM     16  C   UNL     1       4.574   7.087  17.265  0.00  0.00    +0.000 C 
BRANCH  16  17
ATOM     17  C   UNL     1       5.050   6.668  15.875  0.00  0.00    +0.000 C 
BRANCH  17  18
ATOM     18  N   UNL     1       6.301   5.867  15.971  0.00  0.00    +0.000 NA
ATOM     19  C   UNL     1       6.715   5.270  14.683  0.00  0.00    +0.000 C 
ATOM     20  C   UNL     1       5.924   3.988  14.571  0.00  0.00    +0.000 C 
ATOM     21  C   UNL     1       5.922   3.461  15.994  0.00  0.00    +0.000 C 
ATOM     22  C   UNL     1       6.086   4.690  16.883  0.00  0.00    +0.000 C 
BRANCH  22  23
ATOM     23  C   UNL     1       7.324   4.551  17.796  0.00  0.00    +0.000 C 
ATOM     24  O   UNL     1       8.410   4.148  17.425  0.00  0.00    +0.000 OA
BRANCH  23  25
ATOM     25  O   UNL     1       7.063   4.924  19.073  0.00  0.00    +0.000 OA
ATOM     26  H   UNL     1       7.753   4.496  19.635  0.00  0.00    +0.000 HD
ENDBRANCH  23  25
ENDBRANCH  22  23
ENDBRANCH  17  18
ENDBRANCH  16  17
ENDBRANCH  15  16
ENDBRANCH   4  15
BRANCH   5  27
ATOM     27  S   UNL     1       2.911   5.638  20.597  0.00  0.00    +0.000 S 
BRANCH  27  28
ATOM     28  C   UNL     1       2.410   4.195  19.661  0.00  0.00    +0.000 A 
ATOM     29  C   UNL     1       1.051   3.827  19.693  0.00  0.00    +0.000 A 
ATOM     30  C   UNL     1       0.606   2.645  19.084  0.00  0.00    +0.000 A 
ATOM     31  C   UNL     1       1.517   1.818  18.437  0.00  0.00    +0.000 A 
ATOM     32  C   UNL     1       2.857   2.186  18.395  0.00  0.00    +0.000 A 
ATOM     33  F   UNL     1       3.736   1.382  17.782  0.00  0.00    +0.000 F 
ATOM     34  C   UNL     1       3.310   3.360  19.001  0.00  0.00    +0.000 A 
ENDBRANCH  27  28
ENDBRANCH   5  27
TORSDOF 10
ENDMDL
MODEL 2
REMARK VINA RESULT:      -8.3      1.263      1.688
REMARK  Name = 
REMARK  11 active torsions:
REMARK  status: ('A' for Active; 'I' for Inactive)
REMARK    1  A    between atoms: C_1  and  O_2
REMARK    2  A    between atoms: O_2  and  C_3
REMARK    3  A    between atoms: C_6  and  C_7
REMARK    4  A    between atoms: C_10  and  O_11
REMARK    5  A    between atoms: O_11  and  C_12
REMARK    6  A    between atoms: C_12  and  C_13
REMARK    7  A    between atoms: C_13  and  N_14
REMARK    8  A    between atoms: C_18  and  C_19
REMARK    9  A    between atoms: C_19  and  O_21
REMARK   10  A    between atoms: C_22  and  S_23
REMARK   11  A    between atoms: S_23  and  C_24
REMARK                            x       y       z     vdW  Elec       q    Type
REMARK                         _______ _______ _______ _____ _____    ______ ____
ROOT
ATOM      1  C   UNL     1       0.921   9.043  20.088  0.00  0.00    +0.000 A 
ATOM      2  C   UNL     1       1.069   9.301  18.723  0.00  0.00    +0.000 A 
ATOM      3  C   UNL     1       1.764   8.434  17.894  0.00  0.00    +0.000 A 
ATOM      4  C   UNL     1       2.416   7.305  18.408  0.00  0.00    +0.000 A 
ATOM      5  C   UNL     1       2.253   6.987  19.768  0.00  0.00    +0.000 A 
ATOM      6  C   UNL     1       1.523   7.870  20.593  0.00  0.00    +0.000 A 
ENDROOT
BRANCH   1  10
ATOM      7  C   UNL     1      -1.372  11.710  22.580  0.00  0.00    +0.000 A 
ATOM      8  C   UNL     1      -0.865  10.523  23.092  0.00  0.00    +0.000 A 
ATOM      9  C   UNL     1      -0.116   9.674  22.278  0.00  0.00    +0.000 A 
ATOM     10  C   UNL     1       0.120   9.967  20.920  0.00  0.00    +0.000 A 
ATOM     11  C   UNL     1      -0.440  11.148  20.412  0.00  0.00    +0.000 A 
ATOM     12  C   UNL     1      -1.171  12.017  21.236  0.00  0.00    +0.000 A 
BRANCH   7  14
ATOM     13  C   UNL     1      -3.250  13.079  22.953  0.00  0.00    +0.000 C 
ATOM     14  O   UNL     1      -2.075  12.468  23.473  0.00  0.00    +0.000 OA
ENDBRANCH   7  14
ENDBRANCH   1  10
BRANCH   4  15
ATOM     15  O   UNL     1       3.244   6.521  17.626  0.00  0.00    +0.000 OA
BRANCH  15  16
ATOM     16  C   UNL     1       4.323   7.267  17.047  0.00  0.00    +0.000 C 
BRANCH  16  17
ATOM     17  C   UNL     1       5.105   6.490  15.989  0.00  0.00    +0.000 C 
BRANCH  17  18
ATOM     18  N   UNL     1       6.563   6.526  16.287  0.00  0.00    +0.000 NA
ATOM     19  C   UNL     1       7.268   5.282  15.915  0.00  0.00    +0.000 C 
ATOM     20  C   UNL     1       7.070   4.350  17.088  0.00  0.00    +0.000 C 
ATOM     21  C   UNL     1       7.184   5.276  18.284  0.00  0.00    +0.000 C 
ATOM     22  C   UNL     1       6.778   6.655  17.771  0.00  0.00    +0.000 C 
BRANCH  22  23
ATOM     23  C   UNL     1       7.903   7.686  18.010  0.00  0.00    +0.000 C 
ATOM     24  O   UNL     1       8.100   8.664  17.314  0.00  0.00    +0.000 OA
BRANCH  23  25
ATOM     25  O   UNL     1       8.661   7.375  19.090  0.00  0.00    +0.000 OA
ATOM     26  H   UNL     1       9.242   8.157  19.258  0.00  0.00    +0.000 HD
ENDBRANCH  23  25
ENDBRANCH  22  23
ENDBRANCH  17  18
ENDBRANCH  16  17
ENDBRANCH  15  16
ENDBRANCH   4  15
BRANCH   5  27
ATOM     27  S   UNL     1       3.052   5.575  20.528  0.00  0.00    +0.000 S 
BRANCH  27  28
ATOM     28  C   UNL     1       2.443   4.148  19.633  0.00  0.00    +0.000 A 
ATOM     29  C   UNL     1       1.070   3.847  19.726  0.00  0.00    +0.000 A 
ATOM     30  C   UNL     1       0.542   2.682  19.152  0.00  0.00    +0.000 A 
ATOM     31  C   UNL     1       1.384   1.804  18.478  0.00  0.00    +0.000 A 
ATOM     32  C   UNL     1       2.738   2.105  18.375  0.00  0.00    +0.000 A 
ATOM     33  F   UNL     1       3.550   1.253  17.737  0.00  0.00    +0.000 F 
ATOM     34  C   UNL     1       3.273   3.262  18.947  0.00  0.00    +0.000 A 
ENDBRANCH  27  28
ENDBRANCH   5  27
TORSDOF 10
ENDMDL
MODEL 3
REMARK VINA RESULT:      -7.9      4.086      7.575
REMARK  Name = 
REMARK  11 active torsions:
REMARK  status: ('A' for Active; 'I' for Inactive)
REMARK    1  A    between atoms: C_1  and  O_2
REMARK    2  A    between atoms: O_2  and  C_3
REMARK    3  A    between atoms: C_6  and  C_7
REMARK    4  A    between atoms: C_10  and  O_11
REMARK    5  A    between atoms: O_11  and  C_12
REMARK    6  A    between atoms: C_12  and  C_13
REMARK    7  A    between atoms: C_13  and  N_14
REMARK    8  A    between atoms: C_18  and  C_19
REMARK    9  A    between atoms: C_19  and  O_21
REMARK   10  A    between atoms: C_22  and  S_23
REMARK   11  A    between atoms: S_23  and  C_24
REMARK                            x       y       z     vdW  Elec       q    Type
REMARK                         _______ _______ _______ _____ _____    ______ ____
ROOT
ATOM      1  C   UNL     1       7.933   8.108  18.198  0.00  0.00    +0.000 A 
ATOM      2  C   UNL     1       8.419   7.120  19.059  0.00  0.00    +0.000 A 
ATOM      3  C   UNL     1       7.983   5.806  18.970  0.00  0.00    +0.000 A 
ATOM      4  C   UNL     1       6.978   5.435  18.067  0.00  0.00    +0.000 A 
ATOM      5  C   UNL     1       6.497   6.391  17.155  0.00  0.00    +0.000 A 
ATOM      6  C   UNL     1       6.968   7.719  17.246  0.00  0.00    +0.000 A 
ENDROOT
BRANCH   1  10
ATOM      7  C   UNL     1       9.431  12.143  18.448  0.00  0.00    +0.000 A 
ATOM      8  C   UNL     1       8.452  11.806  17.522  0.00  0.00    +0.000 A 
ATOM      9  C   UNL     1       7.969  10.500  17.459  0.00  0.00    +0.000 A 
ATOM     10  C   UNL     1       8.471   9.482  18.293  0.00  0.00    +0.000 A 
ATOM     11  C   UNL     1       9.493   9.833  19.188  0.00  0.00    +0.000 A 
ATOM     12  C   UNL     1       9.962  11.153  19.273  0.00  0.00    +0.000 A 
BRANCH   7  14
ATOM     13  C   UNL     1       8.781  14.381  18.122  0.00  0.00    +0.000 C 
ATOM     14  O   UNL     1       9.815  13.454  18.429  0.00  0.00    +0.000 OA
ENDBRANCH   7  14
ENDBRANCH   1  10
BRANCH   4  15
ATOM     15  O   UNL     1       6.419   4.169  18.076  0.00  0.00    +0.000 OA
BRANCH  15  16
ATOM     16  C   UNL     1       5.623   3.927  19.242  0.00  0.00    +0.000 C 
BRANCH  16  17
ATOM     17  C   UNL     1       4.282   3.260  18.939  0.00  0.00    +0.000 C 
BRANCH  17  18
ATOM     18  N   UNL     1       3.156   4.114  19.405  0.00  0.00    +0.000 NA
ATOM     19  C   UNL     1       1.921   3.353  19.691  0.00  0.00    +0.000 C 
ATOM     20  C   UNL     1       1.232   3.205  18.354  0.00  0.00    +0.000 C 
ATOM     21  C   UNL     1       1.480   4.546  17.690  0.00  0.00    +0.000 C 
ATOM     22  C   UNL     1       2.764   5.080  18.320  0.00  0.00    +0.000 C 
BRANCH  22  23
ATOM     23  C   UNL     1       2.528   6.464  18.964  0.00  0.00    +0.000 C 
ATOM     24  O   UNL     1       2.175   7.456  18.354  0.00  0.00    +0.000 OA
BRANCH  23  25
ATOM     25  O   UNL     1       2.769   6.456  20.298  0.00  0.00    +0.000 OA
ATOM     26  H   UNL     1       2.340   5.640  20.654  0.00  0.00    +0.000 HD
ENDBRANCH  23  25
ENDBRANCH  22  23
ENDBRANCH  17  18
ENDBRANCH  16  17
ENDBRANCH  15  16
ENDBRANCH   4  15
BRANCH   5  27
ATOM     27  S   UNL     1       5.205   6.024  15.968  0.00  0.00    +0.000 S 
BRANCH  27  28
ATOM     28  C   UNL     1       6.024   5.160  14.629  0.00  0.00    +0.000 A 
ATOM     29  C   UNL     1       7.279   5.637  14.207  0.00  0.00    +0.000 A 
ATOM     30  C   UNL     1       7.926   5.087  13.090  0.00  0.00    +0.000 A 
ATOM     31  C   UNL     1       7.320   4.054  12.384  0.00  0.00    +0.000 A 
ATOM     32  C   UNL     1       6.086   3.574  12.807  0.00  0.00    +0.000 A 
ATOM     33  F   UNL     1       5.498   2.587  12.118  0.00  0.00    +0.000 F 
ATOM     34  C   UNL     1       5.434   4.117  13.916  0.00  0.00    +0.000 A 
ENDBRANCH  27  28
ENDBRANCH   5  27
TORSDOF 10
ENDMDL
MODEL 4
REMARK VINA RESULT:      -7.9      4.514      7.681
REMARK  Name = 
REMARK  11 active torsions:
REMARK  status: ('A' for Active; 'I' for Inactive)
REMARK    1  A    between atoms: C_1  and  O_2
REMARK    2  A    between atoms: O_2  and  C_3
REMARK    3  A    between atoms: C_6  and  C_7
REMARK    4  A    between atoms: C_10  and  O_11
REMARK    5  A    between atoms: O_11  and  C_12
REMARK    6  A    between atoms: C_12  and  C_13
REMARK    7  A    between atoms: C_13  and  N_14
REMARK    8  A    between atoms: C_18  and  C_19
REMARK    9  A    between atoms: C_19  and  O_21
REMARK   10  A    between atoms: C_22  and  S_23
REMARK   11  A    between atoms: S_23  and  C_24
REMARK                            x       y       z     vdW  Elec       q    Type
REMARK                         _______ _______ _______ _____ _____    ______ ____
ROOT
ATOM      1  C   UNL     1       7.961   8.113  18.258  0.00  0.00    +0.000 A 
ATOM      2  C   UNL     1       8.437   7.117  19.117  0.00  0.00    +0.000 A 
ATOM      3  C   UNL     1       7.970   5.814  19.040  0.00  0.00    +0.000 A 
ATOM      4  C   UNL     1       6.944   5.462  18.153  0.00  0.00    +0.000 A 
ATOM      5  C   UNL     1       6.472   6.425  17.243  0.00  0.00    +0.000 A 
ATOM      6  C   UNL     1       6.975   7.742  17.321  0.00  0.00    +0.000 A 
ENDROOT
BRANCH   1  10
ATOM      7  C   UNL     1       9.555  12.114  18.466  0.00  0.00    +0.000 A 
ATOM      8  C   UNL     1       8.584  11.785  17.529  0.00  0.00    +0.000 A 
ATOM      9  C   UNL     1       8.069  10.491  17.480  0.00  0.00    +0.000 A 
ATOM     10  C   UNL     1       8.532   9.475  18.339  0.00  0.00    +0.000 A 
ATOM     11  C   UNL     1       9.547   9.816  19.247  0.00  0.00    +0.000 A 
ATOM     12  C   UNL     1      10.047  11.125  19.316  0.00  0.00    +0.000 A 
BRANCH   7  14
ATOM     13  C   UNL     1      10.988  13.747  19.370  0.00  0.00    +0.000 C 
ATOM     14  O   UNL     1       9.972  13.414  18.431  0.00  0.00    +0.000 OA
ENDBRANCH   7  14
ENDBRANCH   1  10
BRANCH   4  15
ATOM     15  O   UNL     1       6.357   4.210  18.175  0.00  0.00    +0.000 OA
BRANCH  15  16
ATOM     16  C   UNL     1       5.341   4.096  19.179  0.00  0.00    +0.000 C 
BRANCH  16  17
ATOM     17  C   UNL     1       4.567   2.779  19.120  0.00  0.00    +0.000 C 
BRANCH  17  18
ATOM     18  N   UNL     1       3.124   3.008  19.403  0.00  0.00    +0.000 NA
ATOM     19  C   UNL     1       2.226   2.395  18.402  0.00  0.00    +0.000 C 
ATOM     20  C   UNL     1       2.146   3.400  17.277  0.00  0.00    +0.000 C 
ATOM     21  C   UNL     1       2.115   4.730  18.006  0.00  0.00    +0.000 C 
ATOM     22  C   UNL     1       2.818   4.480  19.337  0.00  0.00    +0.000 C 
BRANCH  22  23
ATOM     23  C   UNL     1       1.896   4.838  20.524  0.00  0.00    +0.000 C 
ATOM     24  O   UNL     1       1.529   5.965  20.795  0.00  0.00    +0.000 OA
BRANCH  23  25
ATOM     25  O   UNL     1       1.543   3.746  21.245  0.00  0.00    +0.000 OA
ATOM     26  H   UNL     1       1.244   4.077  22.126  0.00  0.00    +0.000 HD
ENDBRANCH  23  25
ENDBRANCH  22  23
ENDBRANCH  17  18
ENDBRANCH  16  17
ENDBRANCH  15  16
ENDBRANCH   4  15
BRANCH   5  27
ATOM     27  S   UNL     1       5.155   6.082  16.076  0.00  0.00    +0.000 S 
BRANCH  27  28
ATOM     28  C   UNL     1       5.933   5.184  14.735  0.00  0.00    +0.000 A 
ATOM     29  C   UNL     1       7.224   5.582  14.337  0.00  0.00    +0.000 A 
ATOM     30  C   UNL     1       7.847   5.006  13.220  0.00  0.00    +0.000 A 
ATOM     31  C   UNL     1       7.184   4.027  12.490  0.00  0.00    +0.000 A 
ATOM     32  C   UNL     1       5.914   3.625  12.889  0.00  0.00    +0.000 A 
ATOM     33  F   UNL     1       5.271   2.690  12.178  0.00  0.00    +0.000 F 
ATOM     34  C   UNL     1       5.284   4.195  13.998  0.00  0.00    +0.000 A 
ENDBRANCH  27  28
ENDBRANCH   5  27
TORSDOF 10
ENDMDL
MODEL 5
REMARK VINA RESULT:      -7.8      0.712      1.200
REMARK  Name = 
REMARK  11 active torsions:
REMARK  status: ('A' for Active; 'I' for Inactive)
REMARK    1  A    between atoms: C_1  and  O_2
REMARK    2  A    between atoms: O_2  and  C_3
REMARK    3  A    between atoms: C_6  and  C_7
REMARK    4  A    between atoms: C_10  and  O_11
REMARK    5  A    between atoms: O_11  and  C_12
REMARK    6  A    between atoms: C_12  and  C_13
REMARK    7  A    between atoms: C_13  and  N_14
REMARK    8  A    between atoms: C_18  and  C_19
REMARK    9  A    between atoms: C_19  and  O_21
REMARK   10  A    between atoms: C_22  and  S_23
REMARK   11  A    between atoms: S_23  and  C_24
REMARK                            x       y       z     vdW  Elec       q    Type
REMARK                         _______ _______ _______ _____ _____    ______ ____
ROOT
ATOM      1  C   UNL     1       0.876   9.495  19.683  0.00  0.00    +0.000 A 
ATOM      2  C   UNL     1       1.070   9.700  18.313  0.00  0.00    +0.000 A 
ATOM      3  C   UNL     1       1.760   8.782  17.536  0.00  0.00    +0.000 A 
ATOM      4  C   UNL     1       2.361   7.654  18.108  0.00  0.00    +0.000 A 
ATOM      5  C   UNL     1       2.151   7.390  19.473  0.00  0.00    +0.000 A 
ATOM      6  C   UNL     1       1.427   8.324  20.245  0.00  0.00    +0.000 A 
ENDROOT
BRANCH   1  10
ATOM      7  C   UNL     1      -1.405  12.315  22.013  0.00  0.00    +0.000 A 
ATOM      8  C   UNL     1      -1.044  11.083  22.545  0.00  0.00    +0.000 A 
ATOM      9  C   UNL     1      -0.297  10.185  21.784  0.00  0.00    +0.000 A 
ATOM     10  C   UNL     1       0.083  10.473  20.458  0.00  0.00    +0.000 A 
ATOM     11  C   UNL     1      -0.332  11.702  19.925  0.00  0.00    +0.000 A 
ATOM     12  C   UNL     1      -1.061  12.620  20.698  0.00  0.00    +0.000 A 
BRANCH   7  14
ATOM     13  C   UNL     1      -3.012  12.435  23.729  0.00  0.00    +0.000 C 
ATOM     14  O   UNL     1      -2.121  13.118  22.855  0.00  0.00    +0.000 OA
ENDBRANCH   7  14
ENDBRANCH   1  10
BRANCH   4  15
ATOM     15  O   UNL     1       3.186   6.817  17.378  0.00  0.00    +0.000 OA
BRANCH  15  16
ATOM     16  C   UNL     1       4.577   7.073  17.613  0.00  0.00    +0.000 C 
BRANCH  16  17
ATOM     17  C   UNL     1       5.416   7.109  16.336  0.00  0.00    +0.000 C 
BRANCH  17  18
ATOM     18  N   UNL     1       6.473   6.062  16.377  0.00  0.00    +0.000 NA
ATOM     19  C   UNL     1       6.461   5.171  15.197  0.00  0.00    +0.000 C 
ATOM     20  C   UNL     1       5.428   4.115  15.510  0.00  0.00    +0.000 C 
ATOM     21  C   UNL     1       5.640   3.855  16.989  0.00  0.00    +0.000 C 
ATOM     22  C   UNL     1       6.238   5.144  17.546  0.00  0.00    +0.000 C 
BRANCH  22  23
ATOM     23  C   UNL     1       7.597   4.872  18.230  0.00  0.00    +0.000 C 
ATOM     24  O   UNL     1       7.966   5.400  19.261  0.00  0.00    +0.000 OA
BRANCH  23  25
ATOM     25  O   UNL     1       8.345   3.975  17.542  0.00  0.00    +0.000 OA
ATOM     26  H   UNL     1       8.000   3.081  17.783  0.00  0.00    +0.000 HD
ENDBRANCH  23  25
ENDBRANCH  22  23
ENDBRANCH  17  18
ENDBRANCH  16  17
ENDBRANCH  15  16
ENDBRANCH   4  15
BRANCH   5  27
ATOM     27  S   UNL     1       2.884   5.982  20.305  0.00  0.00    +0.000 S 
BRANCH  27  28
ATOM     28  C   UNL     1       2.084   4.544  19.596  0.00  0.00    +0.000 A 
ATOM     29  C   UNL     1       0.929   4.051  20.232  0.00  0.00    +0.000 A 
ATOM     30  C   UNL     1       0.318   2.863  19.807  0.00  0.00    +0.000 A 
ATOM     31  C   UNL     1       0.858   2.155  18.739  0.00  0.00    +0.000 A 
ATOM     32  C   UNL     1       1.992   2.646  18.103  0.00  0.00    +0.000 A 
ATOM     33  F   UNL     1       2.519   1.957  17.082  0.00  0.00    +0.000 F 
ATOM     34  C   UNL     1       2.609   3.828  18.521  0.00  0.00    +0.000 A 
ENDBRANCH  27  28
ENDBRANCH   5  27
TORSDOF 10
ENDMDL
MODEL 6
REMARK VINA RESULT:      -7.7      1.327      1.514
REMARK  Name = 
REMARK  11 active torsions:
REMARK  status: ('A' for Active; 'I' for Inactive)
REMARK    1  A    between atoms: C_1  and  O_2
REMARK    2  A    between atoms: O_2  and  C_3
REMARK    3  A    between atoms: C_6  and  C_7
REMARK    4  A    between atoms: C_10  and  O_11
REMARK    5  A    between atoms: O_11  and  C_12
REMARK    6  A    between atoms: C_12  and  C_13
REMARK    7  A    between atoms: C_13  and  N_14
REMARK    8  A    between atoms: C_18  and  C_19
REMARK    9  A    between atoms: C_19  and  O_21
REMARK   10  A    between atoms: C_22  and  S_23
REMARK   11  A    between atoms: S_23  and  C_24
REMARK                            x       y       z     vdW  Elec       q    Type
REMARK                         _______ _______ _______ _____ _____    ______ ____
ROOT
ATOM      1  C   UNL     1       1.132   9.186  20.168  0.00  0.00    +0.000 A 
ATOM      2  C   UNL     1       1.299   9.297  18.785  0.00  0.00    +0.000 A 
ATOM      3  C   UNL     1       1.825   8.256  18.035  0.00  0.00    +0.000 A 
ATOM      4  C   UNL     1       2.286   7.082  18.646  0.00  0.00    +0.000 A 
ATOM      5  C   UNL     1       2.094   6.916  20.028  0.00  0.00    +0.000 A 
ATOM      6  C   UNL     1       1.536   7.978  20.773  0.00  0.00    +0.000 A 
ENDROOT
BRANCH   1  10
ATOM      7  C   UNL     1      -0.682  12.478  22.279  0.00  0.00    +0.000 A 
ATOM      8  C   UNL     1       0.041  12.696  21.113  0.00  0.00    +0.000 A 
ATOM      9  C   UNL     1       0.613  11.621  20.435  0.00  0.00    +0.000 A 
ATOM     10  C   UNL     1       0.512  10.301  20.916  0.00  0.00    +0.000 A 
ATOM     11  C   UNL     1      -0.182  10.109  22.120  0.00  0.00    +0.000 A 
ATOM     12  C   UNL     1      -0.782  11.186  22.791  0.00  0.00    +0.000 A 
BRANCH   7  14
ATOM     13  C   UNL     1      -2.506  13.962  22.383  0.00  0.00    +0.000 C 
ATOM     14  O   UNL     1      -1.211  13.603  22.847  0.00  0.00    +0.000 OA
ENDBRANCH   7  14
ENDBRANCH   1  10
BRANCH   4  15
ATOM     15  O   UNL     1       2.958   6.104  17.935  0.00  0.00    +0.000 OA
BRANCH  15  16
ATOM     16  C   UNL     1       4.365   6.361  17.841  0.00  0.00    +0.000 C 
BRANCH  16  17
ATOM     17  C   UNL     1       4.910   6.270  16.416  0.00  0.00    +0.000 C 
BRANCH  17  18
ATOM     18  N   UNL     1       6.381   6.490  16.405  0.00  0.00    +0.000 NA
ATOM     19  C   UNL     1       7.129   5.418  15.713  0.00  0.00    +0.000 C 
ATOM     20  C   UNL     1       7.317   4.336  16.750  0.00  0.00    +0.000 C 
ATOM     21  C   UNL     1       7.587   5.120  18.019  0.00  0.00    +0.000 C 
ATOM     22  C   UNL     1       6.911   6.473  17.813  0.00  0.00    +0.000 C 
BRANCH  22  23
ATOM     23  C   UNL     1       7.928   7.626  17.963  0.00  0.00    +0.000 C 
ATOM     24  O   UNL     1       8.055   8.539  17.170  0.00  0.00    +0.000 OA
BRANCH  23  25
ATOM     25  O   UNL     1       8.679   7.504  19.085  0.00  0.00    +0.000 OA
ATOM     26  H   UNL     1       9.500   7.022  18.821  0.00  0.00    +0.000 HD
ENDBRANCH  23  25
ENDBRANCH  22  23
ENDBRANCH  17  18
ENDBRANCH  16  17
ENDBRANCH  15  16
ENDBRANCH   4  15
BRANCH   5  27
ATOM     27  S   UNL     1       2.656   5.460  20.910  0.00  0.00    +0.000 S 
BRANCH  27  28
ATOM     28  C   UNL     1       2.247   4.076  19.848  0.00  0.00    +0.000 A 
ATOM     29  C   UNL     1       0.886   3.811  19.606  0.00  0.00    +0.000 A 
ATOM     30  C   UNL     1       0.485   2.677  18.883  0.00  0.00    +0.000 A 
ATOM     31  C   UNL     1       1.445   1.797  18.396  0.00  0.00    +0.000 A 
ATOM     32  C   UNL     1       2.790   2.064  18.624  0.00  0.00    +0.000 A 
ATOM     33  F   UNL     1       3.713   1.209  18.165  0.00  0.00    +0.000 F 
ATOM     34  C   UNL     1       3.198   3.189  19.345  0.00  0.00    +0.000 A 
ENDBRANCH  27  28
ENDBRANCH   5  27
TORSDOF 10
ENDMDL
MODEL 7
REMARK VINA RESULT:      -7.7      4.812      7.806
REMARK  Name = 
REMARK  11 active torsions:
REMARK  status: ('A' for Active; 'I' for Inactive)
REMARK    1  A    between atoms: C_1  and  O_2
REMARK    2  A    between atoms: O_2  and  C_3
REMARK    3  A    between atoms: C_6  and  C_7
REMARK    4  A    between atoms: C_10  and  O_11
REMARK    5  A    between atoms: O_11  and  C_12
REMARK    6  A    between atoms: C_12  and  C_13
REMARK    7  A    between atoms: C_13  and  N_14
REMARK    8  A    between atoms: C_18  and  C_19
REMARK    9  A    between atoms: C_19  and  O_21
REMARK   10  A    between atoms: C_22  and  S_23
REMARK   11  A    between atoms: S_23  and  C_24
REMARK                            x       y       z     vdW  Elec       q    Type
REMARK                         _______ _______ _______ _____ _____    ______ ____
ROOT
ATOM      1  C   UNL     1       7.916   8.089  18.267  0.00  0.00    +0.000 A 
ATOM      2  C   UNL     1       8.398   7.081  19.107  0.00  0.00    +0.000 A 
ATOM      3  C   UNL     1       7.928   5.779  19.018  0.00  0.00    +0.000 A 
ATOM      4  C   UNL     1       6.893   5.441  18.137  0.00  0.00    +0.000 A 
ATOM      5  C   UNL     1       6.414   6.416  17.245  0.00  0.00    +0.000 A 
ATOM      6  C   UNL     1       6.919   7.731  17.335  0.00  0.00    +0.000 A 
ENDROOT
BRANCH   1  10
ATOM      7  C   UNL     1       9.658  12.020  18.570  0.00  0.00    +0.000 A 
ATOM      8  C   UNL     1      10.031  11.010  19.447  0.00  0.00    +0.000 A 
ATOM      9  C   UNL     1       9.468   9.741  19.331  0.00  0.00    +0.000 A 
ATOM     10  C   UNL     1       8.490   9.449  18.360  0.00  0.00    +0.000 A 
ATOM     11  C   UNL     1       8.093  10.496  17.515  0.00  0.00    +0.000 A 
ATOM     12  C   UNL     1       8.678  11.768  17.612  0.00  0.00    +0.000 A 
BRANCH   7  14
ATOM     13  C   UNL     1      10.226  14.120  17.671  0.00  0.00    +0.000 C 
ATOM     14  O   UNL     1      10.287  13.217  18.768  0.00  0.00    +0.000 OA
ENDBRANCH   7  14
ENDBRANCH   1  10
BRANCH   4  15
ATOM     15  O   UNL     1       6.304   4.189  18.148  0.00  0.00    +0.000 OA
BRANCH  15  16
ATOM     16  C   UNL     1       5.462   3.988  19.290  0.00  0.00    +0.000 C 
BRANCH  16  17
ATOM     17  C   UNL     1       4.456   5.116  19.516  0.00  0.00    +0.000 C 
BRANCH  17  18
ATOM     18  N   UNL     1       3.077   4.656  19.201  0.00  0.00    +0.000 NA
ATOM     19  C   UNL     1       2.058   5.172  20.139  0.00  0.00    +0.000 C 
ATOM     20  C   UNL     1       2.087   4.224  21.315  0.00  0.00    +0.000 C 
ATOM     21  C   UNL     1       2.285   2.871  20.659  0.00  0.00    +0.000 C 
ATOM     22  C   UNL     1       2.994   3.159  19.338  0.00  0.00    +0.000 C 
BRANCH  22  23
ATOM     23  C   UNL     1       2.183   2.607  18.145  0.00  0.00    +0.000 C 
ATOM     24  O   UNL     1       2.353   2.935  16.987  0.00  0.00    +0.000 OA
BRANCH  23  25
ATOM     25  O   UNL     1       1.244   1.710  18.536  0.00  0.00    +0.000 OA
ATOM     26  H   UNL     1       1.100   1.859  19.501  0.00  0.00    +0.000 HD
ENDBRANCH  23  25
ENDBRANCH  22  23
ENDBRANCH  17  18
ENDBRANCH  16  17
ENDBRANCH  15  16
ENDBRANCH   4  15
BRANCH   5  27
ATOM     27  S   UNL     1       5.085   6.091  16.087  0.00  0.00    +0.000 S 
BRANCH  27  28
ATOM     28  C   UNL     1       5.873   5.355  14.656  0.00  0.00    +0.000 A 
ATOM     29  C   UNL     1       5.244   4.249  14.054  0.00  0.00    +0.000 A 
ATOM     30  C   UNL     1       5.858   3.547  13.006  0.00  0.00    +0.000 A 
ATOM     31  C   UNL     1       7.110   3.946  12.552  0.00  0.00    +0.000 A 
ATOM     32  C   UNL     1       7.727   5.045  13.138  0.00  0.00    +0.000 A 
ATOM     33  F   UNL     1       8.939   5.421  12.708  0.00  0.00    +0.000 F 
ATOM     34  C   UNL     1       7.124   5.748  14.183  0.00  0.00    +0.000 A 
ENDBRANCH  27  28
ENDBRANCH   5  27
TORSDOF 10
ENDMDL
MODEL 8
REMARK VINA RESULT:      -7.6      0.880      1.467
REMARK  Name = 
REMARK  11 active torsions:
REMARK  status: ('A' for Active; 'I' for Inactive)
REMARK    1  A    between atoms: C_1  and  O_2
REMARK    2  A    between atoms: O_2  and  C_3
REMARK    3  A    between atoms: C_6  and  C_7
REMARK    4  A    between atoms: C_10  and  O_11
REMARK    5  A    between atoms: O_11  and  C_12
REMARK    6  A    between atoms: C_12  and  C_13
REMARK    7  A    between atoms: C_13  and  N_14
REMARK    8  A    between atoms: C_18  and  C_19
REMARK    9  A    between atoms: C_19  and  O_21
REMARK   10  A    between atoms: C_22  and  S_23
REMARK   11  A    between atoms: S_23  and  C_24
REMARK                            x       y       z     vdW  Elec       q    Type
REMARK                         _______ _______ _______ _____ _____    ______ ____
ROOT
ATOM      1  C   UNL     1       0.918   9.302  19.725  0.00  0.00    +0.000 A 
ATOM      2  C   UNL     1       1.173   9.390  18.353  0.00  0.00    +0.000 A 
ATOM      3  C   UNL     1       1.893   8.411  17.687  0.00  0.00    +0.000 A 
ATOM      4  C   UNL     1       2.465   7.335  18.378  0.00  0.00    +0.000 A 
ATOM      5  C   UNL     1       2.194   7.187  19.749  0.00  0.00    +0.000 A 
ATOM      6  C   UNL     1       1.440   8.182  20.407  0.00  0.00    +0.000 A 
ENDROOT
BRANCH   1  10
ATOM      7  C   UNL     1      -1.441  12.318  21.705  0.00  0.00    +0.000 A 
ATOM      8  C   UNL     1      -0.915  11.248  22.417  0.00  0.00    +0.000 A 
ATOM      9  C   UNL     1      -0.145  10.286  21.767  0.00  0.00    +0.000 A 
ATOM     10  C   UNL     1       0.095  10.341  20.380  0.00  0.00    +0.000 A 
ATOM     11  C   UNL     1      -0.484  11.404  19.671  0.00  0.00    +0.000 A 
ATOM     12  C   UNL     1      -1.237  12.389  20.328  0.00  0.00    +0.000 A 
BRANCH   7  14
ATOM     13  C   UNL     1      -3.264  13.805  21.773  0.00  0.00    +0.000 C 
ATOM     14  O   UNL     1      -2.164  13.206  22.449  0.00  0.00    +0.000 OA
ENDBRANCH   7  14
ENDBRANCH   1  10
BRANCH   4  15
ATOM     15  O   UNL     1       3.318   6.439  17.758  0.00  0.00    +0.000 OA
BRANCH  15  16
ATOM     16  C   UNL     1       4.605   7.006  17.483  0.00  0.00    +0.000 C 
BRANCH  16  17
ATOM     17  C   UNL     1       5.074   6.789  16.044  0.00  0.00    +0.000 C 
BRANCH  17  18
ATOM     18  N   UNL     1       6.338   6.003  16.021  0.00  0.00    +0.000 NA
ATOM     19  C   UNL     1       6.657   5.445  14.690  0.00  0.00    +0.000 C 
ATOM     20  C   UNL     1       5.875   4.155  14.606  0.00  0.00    +0.000 C 
ATOM     21  C   UNL     1       5.991   3.592  16.009  0.00  0.00    +0.000 C 
ATOM     22  C   UNL     1       6.209   4.800  16.915  0.00  0.00    +0.000 C 
BRANCH  22  23
ATOM     23  C   UNL     1       7.517   4.654  17.725  0.00  0.00    +0.000 C 
ATOM     24  O   UNL     1       8.509   4.072  17.330  0.00  0.00    +0.000 OA
BRANCH  23  25
ATOM     25  O   UNL     1       7.434   5.247  18.941  0.00  0.00    +0.000 OA
ATOM     26  H   UNL     1       8.084   5.991  18.934  0.00  0.00    +0.000 HD
ENDBRANCH  23  25
ENDBRANCH  22  23
ENDBRANCH  17  18
ENDBRANCH  16  17
ENDBRANCH  15  16
ENDBRANCH   4  15
BRANCH   5  27
ATOM     27  S   UNL     1       2.885   5.854  20.728  0.00  0.00    +0.000 S 
BRANCH  27  28
ATOM     28  C   UNL     1       2.544   4.360  19.801  0.00  0.00    +0.000 A 
ATOM     29  C   UNL     1       3.632   3.688  19.211  0.00  0.00    +0.000 A 
ATOM     30  C   UNL     1       3.432   2.581  18.374  0.00  0.00    +0.000 A 
ATOM     31  C   UNL     1       2.141   2.135  18.118  0.00  0.00    +0.000 A 
ATOM     32  C   UNL     1       1.066   2.790  18.709  0.00  0.00    +0.000 A 
ATOM     33  F   UNL     1      -0.178   2.368  18.451  0.00  0.00    +0.000 F 
ATOM     34  C   UNL     1       1.255   3.895  19.542  0.00  0.00    +0.000 A 
ENDBRANCH  27  28
ENDBRANCH   5  27
TORSDOF 10
ENDMDL
MODEL 9
REMARK VINA RESULT:      -7.6      4.406      7.590
REMARK  Name = 
REMARK  11 active torsions:
REMARK  status: ('A' for Active; 'I' for Inactive)
REMARK    1  A    between atoms: C_1  and  O_2
REMARK    2  A    between atoms: O_2  and  C_3
REMARK    3  A    between atoms: C_6  and  C_7
REMARK    4  A    between atoms: C_10  and  O_11
REMARK    5  A    between atoms: O_11  and  C_12
REMARK    6  A    between atoms: C_12  and  C_13
REMARK    7  A    between atoms: C_13  and  N_14
REMARK    8  A    between atoms: C_18  and  C_19
REMARK    9  A    between atoms: C_19  and  O_21
REMARK   10  A    between atoms: C_22  and  S_23
REMARK   11  A    between atoms: S_23  and  C_24
REMARK                            x       y       z     vdW  Elec       q    Type
REMARK                         _______ _______ _______ _____ _____    ______ ____
ROOT
ATOM      1  C   UNL     1       7.643   8.288  18.122  0.00  0.00    +0.000 A 
ATOM      2  C   UNL     1       8.271   7.122  18.569  0.00  0.00    +0.000 A 
ATOM      3  C   UNL     1       7.675   5.879  18.425  0.00  0.00    +0.000 A 
ATOM      4  C   UNL     1       6.382   5.751  17.900  0.00  0.00    +0.000 A 
ATOM      5  C   UNL     1       5.736   6.895  17.399  0.00  0.00    +0.000 A 
ATOM      6  C   UNL     1       6.368   8.150  17.534  0.00  0.00    +0.000 A 
ENDROOT
BRANCH   1  10
ATOM      7  C   UNL     1       9.755  12.027  18.505  0.00  0.00    +0.000 A 
ATOM      8  C   UNL     1      10.078  10.944  19.312  0.00  0.00    +0.000 A 
ATOM      9  C   UNL     1       9.395   9.738  19.171  0.00  0.00    +0.000 A 
ATOM     10  C   UNL     1       8.344   9.584  18.245  0.00  0.00    +0.000 A 
ATOM     11  C   UNL     1       8.002  10.704  17.472  0.00  0.00    +0.000 A 
ATOM     12  C   UNL     1       8.707  11.912  17.593  0.00  0.00    +0.000 A 
BRANCH   7  14
ATOM     13  C   UNL     1      11.907  12.976  18.583  0.00  0.00    +0.000 C 
ATOM     14  O   UNL     1      10.502  13.150  18.721  0.00  0.00    +0.000 OA
ENDBRANCH   7  14
ENDBRANCH   1  10
BRANCH   4  15
ATOM     15  O   UNL     1       5.711   4.541  17.898  0.00  0.00    +0.000 OA
BRANCH  15  16
ATOM     16  C   UNL     1       5.143   4.225  19.175  0.00  0.00    +0.000 C 
BRANCH  16  17
ATOM     17  C   UNL     1       5.003   2.724  19.428  0.00  0.00    +0.000 C 
BRANCH  17  18
ATOM     18  N   UNL     1       3.575   2.360  19.633  0.00  0.00    +0.000 NA
ATOM     19  C   UNL     1       2.988   1.623  18.495  0.00  0.00    +0.000 C 
ATOM     20  C   UNL     1       2.557   2.689  17.515  0.00  0.00    +0.000 C 
ATOM     21  C   UNL     1       2.018   3.784  18.416  0.00  0.00    +0.000 C 
ATOM     22  C   UNL     1       2.741   3.608  19.748  0.00  0.00    +0.000 C 
BRANCH  22  23
ATOM     23  C   UNL     1       1.733   3.413  20.902  0.00  0.00    +0.000 C 
ATOM     24  O   UNL     1       2.041   3.305  22.074  0.00  0.00    +0.000 OA
BRANCH  23  25
ATOM     25  O   UNL     1       0.452   3.367  20.460  0.00  0.00    +0.000 OA
ATOM     26  H   UNL     1      -0.089   3.865  21.121  0.00  0.00    +0.000 HD
ENDBRANCH  23  25
ENDBRANCH  22  23
ENDBRANCH  17  18
ENDBRANCH  16  17
ENDBRANCH  15  16
ENDBRANCH   4  15
BRANCH   5  27
ATOM     27  S   UNL     1       4.079   6.843  16.718  0.00  0.00    +0.000 S 
BRANCH  27  28
ATOM     28  C   UNL     1       3.049   7.688  17.915  0.00  0.00    +0.000 A 
ATOM     29  C   UNL     1       2.871   7.084  19.175  0.00  0.00    +0.000 A 
ATOM     30  C   UNL     1       1.987   7.624  20.120  0.00  0.00    +0.000 A 
ATOM     31  C   UNL     1       1.270   8.774  19.813  0.00  0.00    +0.000 A 
ATOM     32  C   UNL     1       1.452   9.378  18.574  0.00  0.00    +0.000 A 
ATOM     33  F   UNL     1       0.751  10.480  18.274  0.00  0.00    +0.000 F 
ATOM     34  C   UNL     1       2.329   8.846  17.625  0.00  0.00    +0.000 A 
ENDBRANCH  27  28
ENDBRANCH   5  27
TORSDOF 10
ENDMDL
