MODEL 1
REMARK VINA RESULT:      -7.6      0.000      0.000
REMARK  Name = 
REMARK  6 active torsions:
REMARK  status: ('A' for Active; 'I' for Inactive)
REMARK    1  A    between atoms: C_1  and  C_2
REMARK    2  A    between atoms: C_2  and  S_3
REMARK    3  A    between atoms: S_3  and  N_6
REMARK    4  A    between atoms: N_9  and  C_10
REMARK    5  A    between atoms: C_10  and  C_11
REMARK    6  A    between atoms: C_19  and  C_20
REMARK                            x       y       z     vdW  Elec       q    Type
REMARK                         _______ _______ _______ _____ _____    ______ ____
ROOT
ATOM      1  N   UNL     1       5.619   5.189  16.822  0.00  0.00    +0.000 NA
ATOM      2  C   UNL     1       4.987   6.544  17.003  0.00  0.00    +0.000 C 
ATOM      3  C   UNL     1       3.467   6.501  17.195  0.00  0.00    +0.000 C 
ATOM      4  N   UNL     1       3.053   5.933  18.466  0.00  0.00    +0.000 N 
ATOM      5  C   UNL     1       2.987   4.561  18.532  0.00  0.00    +0.000 A 
ATOM      6  N   UNL     1       1.771   4.040  18.802  0.00  0.00    +0.000 NA
ATOM      7  C   UNL     1       1.598   2.703  18.747  0.00  0.00    +0.000 A 
ATOM      8  C   UNL     1       0.203   2.194  18.943  0.00  0.00    +0.000 C 
ATOM      9  C   UNL     1       2.642   1.831  18.491  0.00  0.00    +0.000 A 
ATOM     10  C   UNL     1       3.903   2.363  18.252  0.00  0.00    +0.000 A 
ATOM     11  C   UNL     1       4.091   3.751  18.255  0.00  0.00    +0.000 A 
ATOM     12  C   UNL     1       5.466   4.339  18.048  0.00  0.00    +0.000 C 
ENDROOT
BRANCH   1  13
ATOM     13  S   UNL     1       7.267   5.279  16.334  0.00  0.00    +0.000 S 
ATOM     14  O   UNL     1       8.005   4.287  17.084  0.00  0.00    +0.000 OA
ATOM     15  O   UNL     1       7.644   6.678  16.367  0.00  0.00    +0.000 OA
BRANCH  13  17
ATOM     16  C   UNL     1       5.834   4.173  14.274  0.00  0.00    +0.000 C 
ATOM     17  C   UNL     1       7.201   4.734  14.624  0.00  0.00    +0.000 C 
ENDBRANCH  13  17
ENDBRANCH   1  13
BRANCH   4  18
ATOM     18  C   UNL     1       3.112   6.681  19.707  0.00  0.00    +0.000 C 
BRANCH  18  19
ATOM     19  C   UNL     1       2.087   7.788  19.750  0.00  0.00    +0.000 A 
ATOM     20  C   UNL     1       1.360   8.036  20.918  0.00  0.00    +0.000 A 
ATOM     21  C   UNL     1       0.461   9.091  20.936  0.00  0.00    +0.000 A 
ATOM     22  N   UNL     1       0.234   9.904  19.882  0.00  0.00    +0.000 NA
ATOM     23  C   UNL     1       0.922   9.630  18.754  0.00  0.00    +0.000 A 
ATOM     24  C   UNL     1       1.843   8.599  18.637  0.00  0.00    +0.000 A 
ENDBRANCH  18  19
ENDBRANCH   4  18
TORSDOF 4
ENDMDL
MODEL 2
REMARK VINA RESULT:      -7.4      1.289      1.719
REMARK  Name = 
REMARK  6 active torsions:
REMARK  status: ('A' for Active; 'I' for Inactive)
REMARK    1  A    between atoms: C_1  and  C_2
REMARK    2  A    between atoms: C_2  and  S_3
REMARK    3  A    between atoms: S_3  and  N_6
REMARK    4  A    between atoms: N_9  and  C_10
REMARK    5  A    between atoms: C_10  and  C_11
REMARK    6  A    between atoms: C_19  and  C_20
REMARK                            x       y       z     vdW  Elec       q    Type
REMARK                         _______ _______ _______ _____ _____    ______ ____
ROOT
ATOM      1  N   UNL     1       5.740   5.386  17.430  0.00  0.00    +0.000 NA
ATOM      2  C   UNL     1       4.988   6.691  17.444  0.00  0.00    +0.000 C 
ATOM      3  C   UNL     1       3.464   6.531  17.425  0.00  0.00    +0.000 C 
ATOM      4  N   UNL     1       2.916   5.990  18.656  0.00  0.00    +0.000 N 
ATOM      5  C   UNL     1       2.945   4.621  18.790  0.00  0.00    +0.000 A 
ATOM      6  N   UNL     1       1.745   4.015  18.917  0.00  0.00    +0.000 NA
ATOM      7  C   UNL     1       1.683   2.667  18.914  0.00  0.00    +0.000 A 
ATOM      8  C   UNL     1       0.317   2.054  18.943  0.00  0.00    +0.000 C 
ATOM      9  C   UNL     1       2.816   1.873  18.856  0.00  0.00    +0.000 A 
ATOM     10  C   UNL     1       4.054   2.496  18.765  0.00  0.00    +0.000 A 
ATOM     11  C   UNL     1       4.135   3.893  18.715  0.00  0.00    +0.000 A 
ATOM     12  C   UNL     1       5.477   4.583  18.669  0.00  0.00    +0.000 C 
ENDROOT
BRANCH   1  13
ATOM     13  S   UNL     1       7.429   5.589  17.172  0.00  0.00    +0.000 S 
ATOM     14  O   UNL     1       7.605   6.238  15.892  0.00  0.00    +0.000 OA
ATOM     15  O   UNL     1       8.060   4.317  17.461  0.00  0.00    +0.000 OA
BRANCH  13  17
ATOM     16  C   UNL     1       8.086   8.158  17.871  0.00  0.00    +0.000 C 
ATOM     17  C   UNL     1       7.884   6.768  18.449  0.00  0.00    +0.000 C 
ENDBRANCH  13  17
ENDBRANCH   1  13
BRANCH   4  18
ATOM     18  C   UNL     1       2.741   6.796  19.849  0.00  0.00    +0.000 C 
BRANCH  18  19
ATOM     19  C   UNL     1       1.880   8.008  19.591  0.00  0.00    +0.000 A 
ATOM     20  C   UNL     1       1.123   8.573  20.622  0.00  0.00    +0.000 A 
ATOM     21  C   UNL     1       0.382   9.714  20.361  0.00  0.00    +0.000 A 
ATOM     22  N   UNL     1       0.337  10.323  19.157  0.00  0.00    +0.000 NA
ATOM     23  C   UNL     1       1.049   9.746  18.166  0.00  0.00    +0.000 A 
ATOM     24  C   UNL     1       1.822   8.605  18.328  0.00  0.00    +0.000 A 
ENDBRANCH  18  19
ENDBRANCH   4  18
TORSDOF 4
ENDMDL
MODEL 3
REMARK VINA RESULT:      -7.0      2.901      4.929
REMARK  Name = 
REMARK  6 active torsions:
REMARK  status: ('A' for Active; 'I' for Inactive)
REMARK    1  A    between atoms: C_1  and  C_2
REMARK    2  A    between atoms: C_2  and  S_3
REMARK    3  A    between atoms: S_3  and  N_6
REMARK    4  A    between atoms: N_9  and  C_10
REMARK    5  A    between atoms: C_10  and  C_11
REMARK    6  A    between atoms: C_19  and  C_20
REMARK                            x       y       z     vdW  Elec       q    Type
REMARK                         _______ _______ _______ _____ _____    ______ ____
ROOT
ATOM      1  N   UNL     1       2.679   4.021  18.965  0.00  0.00    +0.000 NA
ATOM      2  C   UNL     1       1.894   5.190  19.500  0.00  0.00    +0.000 C 
ATOM      3  C   UNL     1       2.727   6.462  19.694  0.00  0.00    +0.000 C 
ATOM      4  N   UNL     1       3.152   7.079  18.449  0.00  0.00    +0.000 N 
ATOM      5  C   UNL     1       4.285   6.562  17.864  0.00  0.00    +0.000 A 
ATOM      6  N   UNL     1       5.320   7.417  17.723  0.00  0.00    +0.000 NA
ATOM      7  C   UNL     1       6.508   6.950  17.287  0.00  0.00    +0.000 A 
ATOM      8  C   UNL     1       7.648   7.921  17.260  0.00  0.00    +0.000 C 
ATOM      9  C   UNL     1       6.691   5.631  16.906  0.00  0.00    +0.000 A 
ATOM     10  C   UNL     1       5.615   4.758  17.013  0.00  0.00    +0.000 A 
ATOM     11  C   UNL     1       4.388   5.213  17.513  0.00  0.00    +0.000 A 
ATOM     12  C   UNL     1       3.198   4.288  17.584  0.00  0.00    +0.000 C 
ENDROOT
BRANCH   1  13
ATOM     13  S   UNL     1       1.799   2.543  19.020  0.00  0.00    +0.000 S 
ATOM     14  O   UNL     1       2.731   1.464  18.776  0.00  0.00    +0.000 OA
ATOM     15  O   UNL     1       0.622   2.718  18.194  0.00  0.00    +0.000 OA
BRANCH  13  17
ATOM     16  C   UNL     1       2.478   2.619  21.675  0.00  0.00    +0.000 C 
ATOM     17  C   UNL     1       1.293   2.449  20.741  0.00  0.00    +0.000 C 
ENDBRANCH  13  17
ENDBRANCH   1  13
BRANCH   4  18
ATOM     18  C   UNL     1       2.259   7.878  17.634  0.00  0.00    +0.000 C 
BRANCH  18  19
ATOM     19  C   UNL     1       1.818   9.136  18.343  0.00  0.00    +0.000 A 
ATOM     20  C   UNL     1       1.055   9.059  19.513  0.00  0.00    +0.000 A 
ATOM     21  C   UNL     1       0.709  10.233  20.164  0.00  0.00    +0.000 A 
ATOM     22  N   UNL     1       1.059  11.463  19.733  0.00  0.00    +0.000 NA
ATOM     23  C   UNL     1       1.768  11.519  18.587  0.00  0.00    +0.000 A 
ATOM     24  C   UNL     1       2.164  10.402  17.863  0.00  0.00    +0.000 A 
ENDBRANCH  18  19
ENDBRANCH   4  18
TORSDOF 4
ENDMDL
MODEL 4
REMARK VINA RESULT:      -7.0      2.515      6.065
REMARK  Name = 
REMARK  6 active torsions:
REMARK  status: ('A' for Active; 'I' for Inactive)
REMARK    1  A    between atoms: C_1  and  C_2
REMARK    2  A    between atoms: C_2  and  S_3
REMARK    3  A    between atoms: S_3  and  N_6
REMARK    4  A    between atoms: N_9  and  C_10
REMARK    5  A    between atoms: C_10  and  C_11
REMARK    6  A    between atoms: C_19  and  C_20
REMARK                            x       y       z     vdW  Elec       q    Type
REMARK                         _______ _______ _______ _____ _____    ______ ____
ROOT
ATOM      1  N   UNL     1       3.108   4.036  19.137  0.00  0.00    +0.000 NA
ATOM      2  C   UNL     1       3.656   4.206  17.745  0.00  0.00    +0.000 C 
ATOM      3  C   UNL     1       3.076   5.407  16.989  0.00  0.00    +0.000 C 
ATOM      4  N   UNL     1       3.505   6.691  17.514  0.00  0.00    +0.000 N 
ATOM      5  C   UNL     1       2.805   7.177  18.595  0.00  0.00    +0.000 A 
ATOM      6  N   UNL     1       2.171   8.354  18.408  0.00  0.00    +0.000 NA
ATOM      7  C   UNL     1       1.354   8.824  19.372  0.00  0.00    +0.000 A 
ATOM      8  C   UNL     1       0.591  10.075  19.061  0.00  0.00    +0.000 C 
ATOM      9  C   UNL     1       1.192   8.178  20.587  0.00  0.00    +0.000 A 
ATOM     10  C   UNL     1       1.875   6.986  20.796  0.00  0.00    +0.000 A 
ATOM     11  C   UNL     1       2.688   6.456  19.786  0.00  0.00    +0.000 A 
ATOM     12  C   UNL     1       3.476   5.190  20.020  0.00  0.00    +0.000 C 
ENDROOT
BRANCH   1  13
ATOM     13  S   UNL     1       3.557   2.539  19.855  0.00  0.00    +0.000 S 
ATOM     14  O   UNL     1       4.979   2.583  20.116  0.00  0.00    +0.000 OA
ATOM     15  O   UNL     1       2.975   1.487  19.046  0.00  0.00    +0.000 OA
BRANCH  13  17
ATOM     16  C   UNL     1       1.219   2.819  21.260  0.00  0.00    +0.000 C 
ATOM     17  C   UNL     1       2.710   2.591  21.438  0.00  0.00    +0.000 C 
ENDBRANCH  13  17
ENDBRANCH   1  13
BRANCH   4  18
ATOM     18  C   UNL     1       4.815   7.246  17.236  0.00  0.00    +0.000 C 
BRANCH  18  19
ATOM     19  C   UNL     1       5.861   6.170  17.066  0.00  0.00    +0.000 A 
ATOM     20  C   UNL     1       6.093   5.599  15.811  0.00  0.00    +0.000 A 
ATOM     21  C   UNL     1       7.094   4.648  15.684  0.00  0.00    +0.000 A 
ATOM     22  N   UNL     1       7.866   4.227  16.707  0.00  0.00    +0.000 NA
ATOM     23  C   UNL     1       7.606   4.767  17.916  0.00  0.00    +0.000 A 
ATOM     24  C   UNL     1       6.629   5.724  18.146  0.00  0.00    +0.000 A 
ENDBRANCH  18  19
ENDBRANCH   4  18
TORSDOF 4
ENDMDL
MODEL 5
REMARK VINA RESULT:      -7.0      1.570      5.142
REMARK  Name = 
REMARK  6 active torsions:
REMARK  status: ('A' for Active; 'I' for Inactive)
REMARK    1  A    between atoms: C_1  and  C_2
REMARK    2  A    between atoms: C_2  and  S_3
REMARK    3  A    between atoms: S_3  and  N_6
REMARK    4  A    between atoms: N_9  and  C_10
REMARK    5  A    between atoms: C_10  and  C_11
REMARK    6  A    between atoms: C_19  and  C_20
REMARK                            x       y       z     vdW  Elec       q    Type
REMARK                         _______ _______ _______ _____ _____    ______ ____
ROOT
ATOM      1  N   UNL     1       4.755   6.600  17.572  0.00  0.00    +0.000 NA
ATOM      2  C   UNL     1       4.722   5.477  18.575  0.00  0.00    +0.000 C 
ATOM      3  C   UNL     1       4.055   5.848  19.904  0.00  0.00    +0.000 C 
ATOM      4  N   UNL     1       2.620   6.047  19.803  0.00  0.00    +0.000 N 
ATOM      5  C   UNL     1       2.202   7.287  19.377  0.00  0.00    +0.000 A 
ATOM      6  N   UNL     1       1.442   7.986  20.246  0.00  0.00    +0.000 NA
ATOM      7  C   UNL     1       1.109   9.261  19.957  0.00  0.00    +0.000 A 
ATOM      8  C   UNL     1       0.363  10.021  21.010  0.00  0.00    +0.000 C 
ATOM      9  C   UNL     1       1.460   9.864  18.761  0.00  0.00    +0.000 A 
ATOM     10  C   UNL     1       2.209   9.133  17.847  0.00  0.00    +0.000 A 
ATOM     11  C   UNL     1       2.606   7.825  18.153  0.00  0.00    +0.000 A 
ATOM     12  C   UNL     1       3.375   7.002  17.147  0.00  0.00    +0.000 C 
ENDROOT
BRANCH   1  13
ATOM     13  S   UNL     1       5.745   6.251  16.209  0.00  0.00    +0.000 S 
ATOM     14  O   UNL     1       7.111   6.567  16.563  0.00  0.00    +0.000 OA
ATOM     15  O   UNL     1       5.110   6.857  15.056  0.00  0.00    +0.000 OA
BRANCH  13  17
ATOM     16  C   UNL     1       5.914   3.994  14.662  0.00  0.00    +0.000 C 
ATOM     17  C   UNL     1       5.615   4.465  16.074  0.00  0.00    +0.000 C 
ENDBRANCH  13  17
ENDBRANCH   1  13
BRANCH   4  18
ATOM     18  C   UNL     1       1.685   4.941  19.731  0.00  0.00    +0.000 C 
BRANCH  18  19
ATOM     19  C   UNL     1       2.317   3.704  19.141  0.00  0.00    +0.000 A 
ATOM     20  C   UNL     1       2.185   3.421  17.778  0.00  0.00    +0.000 A 
ATOM     21  C   UNL     1       2.819   2.301  17.263  0.00  0.00    +0.000 A 
ATOM     22  N   UNL     1       3.562   1.450  18.002  0.00  0.00    +0.000 NA
ATOM     23  C   UNL     1       3.652   1.722  19.321  0.00  0.00    +0.000 A 
ATOM     24  C   UNL     1       3.056   2.817  19.930  0.00  0.00    +0.000 A 
ENDBRANCH  18  19
ENDBRANCH   4  18
TORSDOF 4
ENDMDL
MODEL 6
REMARK VINA RESULT:      -6.9      1.108      1.463
REMARK  Name = 
REMARK  6 active torsions:
REMARK  status: ('A' for Active; 'I' for Inactive)
REMARK    1  A    between atoms: C_1  and  C_2
REMARK    2  A    between atoms: C_2  and  S_3
REMARK    3  A    between atoms: S_3  and  N_6
REMARK    4  A    between atoms: N_9  and  C_10
REMARK    5  A    between atoms: C_10  and  C_11
REMARK    6  A    between atoms: C_19  and  C_20
REMARK                            x       y       z     vdW  Elec       q    Type
REMARK                         _______ _______ _______ _____ _____    ______ ____
ROOT
ATOM      1  N   UNL     1       5.559   5.317  17.208  0.00  0.00    +0.000 NA
ATOM      2  C   UNL     1       4.703   6.536  16.984  0.00  0.00    +0.000 C 
ATOM      3  C   UNL     1       3.243   6.360  17.418  0.00  0.00    +0.000 C 
ATOM      4  N   UNL     1       3.067   6.273  18.857  0.00  0.00    +0.000 N 
ATOM      5  C   UNL     1       3.267   5.036  19.426  0.00  0.00    +0.000 A 
ATOM      6  N   UNL     1       2.203   4.497  20.057  0.00  0.00    +0.000 NA
ATOM      7  C   UNL     1       2.280   3.231  20.518  0.00  0.00    +0.000 A 
ATOM      8  C   UNL     1       1.031   2.648  21.105  0.00  0.00    +0.000 C 
ATOM      9  C   UNL     1       3.441   2.481  20.433  0.00  0.00    +0.000 A 
ATOM     10  C   UNL     1       4.550   3.050  19.818  0.00  0.00    +0.000 A 
ATOM     11  C   UNL     1       4.473   4.344  19.288  0.00  0.00    +0.000 A 
ATOM     12  C   UNL     1       5.686   4.992  18.666  0.00  0.00    +0.000 C 
ENDROOT
BRANCH   1  13
ATOM     13  S   UNL     1       7.105   5.440  16.465  0.00  0.00    +0.000 S 
ATOM     14  O   UNL     1       7.926   4.362  16.969  0.00  0.00    +0.000 OA
ATOM     15  O   UNL     1       7.526   6.821  16.584  0.00  0.00    +0.000 OA
BRANCH  13  17
ATOM     16  C   UNL     1       6.046   3.750  14.584  0.00  0.00    +0.000 C 
ATOM     17  C   UNL     1       6.743   5.090  14.741  0.00  0.00    +0.000 C 
ENDBRANCH  13  17
ENDBRANCH   1  13
BRANCH   4  18
ATOM     18  C   UNL     1       3.102   7.441  19.716  0.00  0.00    +0.000 C 
BRANCH  18  19
ATOM     19  C   UNL     1       1.948   8.376  19.448  0.00  0.00    +0.000 A 
ATOM     20  C   UNL     1       1.730   8.883  18.164  0.00  0.00    +0.000 A 
ATOM     21  C   UNL     1       0.632   9.701  17.945  0.00  0.00    +0.000 A 
ATOM     22  N   UNL     1      -0.250  10.049  18.905  0.00  0.00    +0.000 NA
ATOM     23  C   UNL     1      -0.006   9.575  20.145  0.00  0.00    +0.000 A 
ATOM     24  C   UNL     1       1.064   8.750  20.464  0.00  0.00    +0.000 A 
ENDBRANCH  18  19
ENDBRANCH   4  18
TORSDOF 4
ENDMDL
MODEL 7
REMARK VINA RESULT:      -6.9      2.955      5.053
REMARK  Name = 
REMARK  6 active torsions:
REMARK  status: ('A' for Active; 'I' for Inactive)
REMARK    1  A    between atoms: C_1  and  C_2
REMARK    2  A    between atoms: C_2  and  S_3
REMARK    3  A    between atoms: S_3  and  N_6
REMARK    4  A    between atoms: N_9  and  C_10
REMARK    5  A    between atoms: C_10  and  C_11
REMARK    6  A    between atoms: C_19  and  C_20
REMARK                            x       y       z     vdW  Elec       q    Type
REMARK                         _______ _______ _______ _____ _____    ______ ____
ROOT
ATOM      1  N   UNL     1       2.703   4.238  18.960  0.00  0.00    +0.000 NA
ATOM      2  C   UNL     1       1.872   5.448  19.296  0.00  0.00    +0.000 C 
ATOM      3  C   UNL     1       2.684   6.740  19.446  0.00  0.00    +0.000 C 
ATOM      4  N   UNL     1       3.234   7.234  18.196  0.00  0.00    +0.000 N 
ATOM      5  C   UNL     1       4.418   6.671  17.782  0.00  0.00    +0.000 A 
ATOM      6  N   UNL     1       5.465   7.515  17.662  0.00  0.00    +0.000 NA
ATOM      7  C   UNL     1       6.689   7.016  17.395  0.00  0.00    +0.000 A 
ATOM      8  C   UNL     1       7.829   7.988  17.388  0.00  0.00    +0.000 C 
ATOM      9  C   UNL     1       6.906   5.668  17.166  0.00  0.00    +0.000 A 
ATOM     10  C   UNL     1       5.822   4.802  17.250  0.00  0.00    +0.000 A 
ATOM     11  C   UNL     1       4.553   5.295  17.577  0.00  0.00    +0.000 A 
ATOM     12  C   UNL     1       3.359   4.373  17.619  0.00  0.00    +0.000 C 
ENDROOT
BRANCH   1  13
ATOM     13  S   UNL     1       1.818   2.767  19.072  0.00  0.00    +0.000 S 
ATOM     14  O   UNL     1       2.768   1.677  19.053  0.00  0.00    +0.000 OA
ATOM     15  O   UNL     1       0.744   2.842  18.102  0.00  0.00    +0.000 OA
BRANCH  13  17
ATOM     16  C   UNL     1       2.174   2.610  21.786  0.00  0.00    +0.000 C 
ATOM     17  C   UNL     1       1.117   2.853  20.723  0.00  0.00    +0.000 C 
ENDBRANCH  13  17
ENDBRANCH   1  13
BRANCH   4  18
ATOM     18  C   UNL     1       2.429   7.944  17.220  0.00  0.00    +0.000 C 
BRANCH  18  19
ATOM     19  C   UNL     1       1.771   9.167  17.811  0.00  0.00    +0.000 A 
ATOM     20  C   UNL     1       2.496  10.351  17.979  0.00  0.00    +0.000 A 
ATOM     21  C   UNL     1       1.846  11.468  18.481  0.00  0.00    +0.000 A 
ATOM     22  N   UNL     1       0.542  11.487  18.828  0.00  0.00    +0.000 NA
ATOM     23  C   UNL     1      -0.133  10.327  18.688  0.00  0.00    +0.000 A 
ATOM     24  C   UNL     1       0.427   9.157  18.196  0.00  0.00    +0.000 A 
ENDBRANCH  18  19
ENDBRANCH   4  18
TORSDOF 4
ENDMDL
MODEL 8
REMARK VINA RESULT:      -6.8      1.853      5.279
REMARK  Name = 
REMARK  6 active torsions:
REMARK  status: ('A' for Active; 'I' for Inactive)
REMARK    1  A    between atoms: C_1  and  C_2
REMARK    2  A    between atoms: C_2  and  S_3
REMARK    3  A    between atoms: S_3  and  N_6
REMARK    4  A    between atoms: N_9  and  C_10
REMARK    5  A    between atoms: C_10  and  C_11
REMARK    6  A    between atoms: C_19  and  C_20
REMARK                            x       y       z     vdW  Elec       q    Type
REMARK                         _______ _______ _______ _____ _____    ______ ____
ROOT
ATOM      1  N   UNL     1       4.580   6.431  17.562  0.00  0.00    +0.000 NA
ATOM      2  C   UNL     1       4.619   5.383  18.643  0.00  0.00    +0.000 C 
ATOM      3  C   UNL     1       4.046   5.851  19.985  0.00  0.00    +0.000 C 
ATOM      4  N   UNL     1       2.607   6.047  19.971  0.00  0.00    +0.000 N 
ATOM      5  C   UNL     1       2.157   7.254  19.486  0.00  0.00    +0.000 A 
ATOM      6  N   UNL     1       1.459   8.015  20.354  0.00  0.00    +0.000 NA
ATOM      7  C   UNL     1       1.104   9.267  19.998  0.00  0.00    +0.000 A 
ATOM      8  C   UNL     1       0.432  10.103  21.043  0.00  0.00    +0.000 C 
ATOM      9  C   UNL     1       1.369   9.783  18.740  0.00  0.00    +0.000 A 
ATOM     10  C   UNL     1       2.054   8.985  17.832  0.00  0.00    +0.000 A 
ATOM     11  C   UNL     1       2.474   7.701  18.201  0.00  0.00    +0.000 A 
ATOM     12  C   UNL     1       3.172   6.806  17.206  0.00  0.00    +0.000 C 
ENDROOT
BRANCH   1  13
ATOM     13  S   UNL     1       5.473   5.983  16.162  0.00  0.00    +0.000 S 
ATOM     14  O   UNL     1       5.303   7.026  15.176  0.00  0.00    +0.000 OA
ATOM     15  O   UNL     1       5.133   4.606  15.863  0.00  0.00    +0.000 OA
BRANCH  13  17
ATOM     16  C   UNL     1       7.463   7.359  17.452  0.00  0.00    +0.000 C 
ATOM     17  C   UNL     1       7.172   6.050  16.740  0.00  0.00    +0.000 C 
ENDBRANCH  13  17
ENDBRANCH   1  13
BRANCH   4  18
ATOM     18  C   UNL     1       1.672   4.941  20.043  0.00  0.00    +0.000 C 
BRANCH  18  19
ATOM     19  C   UNL     1       2.216   3.695  19.387  0.00  0.00    +0.000 A 
ATOM     20  C   UNL     1       1.972   3.442  18.034  0.00  0.00    +0.000 A 
ATOM     21  C   UNL     1       2.527   2.312  17.454  0.00  0.00    +0.000 A 
ATOM     22  N   UNL     1       3.295   1.424  18.120  0.00  0.00    +0.000 NA
ATOM     23  C   UNL     1       3.494   1.669  19.432  0.00  0.00    +0.000 A 
ATOM     24  C   UNL     1       2.982   2.771  20.103  0.00  0.00    +0.000 A 
ENDBRANCH  18  19
ENDBRANCH   4  18
TORSDOF 4
ENDMDL
MODEL 9
REMARK VINA RESULT:      -6.8      2.676      6.205
REMARK  Name = 
REMARK  6 active torsions:
REMARK  status: ('A' for Active; 'I' for Inactive)
REMARK    1  A    between atoms: C_1  and  C_2
REMARK    2  A    between atoms: C_2  and  S_3
REMARK    3  A    between atoms: S_3  and  N_6
REMARK    4  A    between atoms: N_9  and  C_10
REMARK    5  A    between atoms: C_10  and  C_11
REMARK    6  A    between atoms: C_19  and  C_20
REMARK                            x       y       z     vdW  Elec       q    Type
REMARK                         _______ _______ _______ _____ _____    ______ ____
ROOT
ATOM      1  N   UNL     1       2.516   4.354  19.716  0.00  0.00    +0.000 NA
ATOM      2  C   UNL     1       3.261   4.289  18.409  0.00  0.00    +0.000 C 
ATOM      3  C   UNL     1       2.918   5.427  17.440  0.00  0.00    +0.000 C 
ATOM      4  N   UNL     1       3.407   6.726  17.867  0.00  0.00    +0.000 N 
ATOM      5  C   UNL     1       2.624   7.410  18.769  0.00  0.00    +0.000 A 
ATOM      6  N   UNL     1       2.149   8.603  18.354  0.00  0.00    +0.000 NA
ATOM      7  C   UNL     1       1.265   9.267  19.127  0.00  0.00    +0.000 A 
ATOM      8  C   UNL     1       0.687  10.529  18.562  0.00  0.00    +0.000 C 
ATOM      9  C   UNL     1       0.874   8.804  20.371  0.00  0.00    +0.000 A 
ATOM     10  C   UNL     1       1.392   7.593  20.817  0.00  0.00    +0.000 A 
ATOM     11  C   UNL     1       2.272   6.866  20.007  0.00  0.00    +0.000 A 
ATOM     12  C   UNL     1       2.883   5.577  20.501  0.00  0.00    +0.000 C 
ENDROOT
BRANCH   1  13
ATOM     13  S   UNL     1       2.704   2.930  20.664  0.00  0.00    +0.000 S 
ATOM     14  O   UNL     1       2.167   3.200  21.979  0.00  0.00    +0.000 OA
ATOM     15  O   UNL     1       4.070   2.480  20.489  0.00  0.00    +0.000 OA
BRANCH  13  17
ATOM     16  C   UNL     1       0.561   2.487  19.011  0.00  0.00    +0.000 C 
ATOM     17  C   UNL     1       1.601   1.768  19.852  0.00  0.00    +0.000 C 
ENDBRANCH  13  17
ENDBRANCH   1  13
BRANCH   4  18
ATOM     18  C   UNL     1       4.794   7.121  17.720  0.00  0.00    +0.000 C 
BRANCH  18  19
ATOM     19  C   UNL     1       5.566   6.163  16.847  0.00  0.00    +0.000 A 
ATOM     20  C   UNL     1       6.574   5.362  17.392  0.00  0.00    +0.000 A 
ATOM     21  C   UNL     1       7.229   4.459  16.569  0.00  0.00    +0.000 A 
ATOM     22  N   UNL     1       6.959   4.304  15.256  0.00  0.00    +0.000 NA
ATOM     23  C   UNL     1       6.005   5.107  14.741  0.00  0.00    +0.000 A 
ATOM     24  C   UNL     1       5.293   6.040  15.481  0.00  0.00    +0.000 A 
ENDBRANCH  18  19
ENDBRANCH   4  18
TORSDOF 4
ENDMDL
