MODEL 1
REMARK VINA RESULT:      -7.4      0.000      0.000
REMARK  Name = 
REMARK  5 active torsions:
REMARK  status: ('A' for Active; 'I' for Inactive)
REMARK    1  A    between atoms: C_1  and  N_2
REMARK    2  A    between atoms: C_3  and  C_5
REMARK    3  A    between atoms: C_9  and  C_11
REMARK    4  A    between atoms: N_13  and  C_14
REMARK    5  A    between atoms: C_16  and  C_17
REMARK                            x       y       z     vdW  Elec       q    Type
REMARK                         _______ _______ _______ _____ _____    ______ ____
ROOT
ATOM      1  C   UNL     1       6.516   6.728  16.767  0.00  0.00    +0.000 C 
ATOM      2  C   UNL     1       6.844   5.323  16.266  0.00  0.00    +0.000 C 
ATOM      3  C   UNL     1       5.469   4.702  16.015  0.00  0.00    +0.000 C 
ATOM      4  N   UNL     1       4.634   5.277  17.051  0.00  0.00    +0.000 N 
ATOM      5  C   UNL     1       3.598   4.564  17.662  0.00  0.00    +0.000 C 
ATOM      6  O   UNL     1       3.334   3.407  17.327  0.00  0.00    +0.000 OA
ATOM      7  C   UNL     1       5.194   6.543  17.504  0.00  0.00    +0.000 C 
ENDROOT
BRANCH   5   8
ATOM      8  C   UNL     1       2.862   5.230  18.738  0.00  0.00    +0.000 A 
ATOM      9  C   UNL     1       2.357   6.520  18.726  0.00  0.00    +0.000 A 
ATOM     10  N   UNL     1       1.923   6.788  19.985  0.00  0.00    +0.000 N 
ATOM     11  C   UNL     1       1.577   8.084  20.514  0.00  0.00    +0.000 C 
ATOM     12  N   UNL     1       1.885   5.708  20.769  0.00  0.00    +0.000 NA
ATOM     13  C   UNL     1       2.438   4.748  20.012  0.00  0.00    +0.000 A 
BRANCH  13  14
ATOM     14  C   UNL     1       2.583   3.318  20.532  0.00  0.00    +0.000 C 
ATOM     15  C   UNL     1       1.610   2.820  21.588  0.00  0.00    +0.000 C 
ATOM     16  C   UNL     1       1.470   2.340  20.187  0.00  0.00    +0.000 C 
ENDBRANCH  13  14
ENDBRANCH   5   8
BRANCH   1  19
ATOM     17  C   UNL     1       8.663   9.425  18.340  0.00  0.00    +0.000 C 
ATOM     18  N   UNL     1       7.747   8.698  17.495  0.00  0.00    +0.000 N 
ATOM     19  C   UNL     1       7.548   7.354  17.691  0.00  0.00    +0.000 C 
ATOM     20  O   UNL     1       8.106   6.730  18.590  0.00  0.00    +0.000 OA
ATOM     21  H   UNL     1       7.228   9.196  16.787  0.00  0.00    +0.000 HD
ENDBRANCH   1  19
TORSDOF 3
ENDMDL
MODEL 2
REMARK VINA RESULT:      -6.9      2.018      5.892
REMARK  Name = 
REMARK  5 active torsions:
REMARK  status: ('A' for Active; 'I' for Inactive)
REMARK    1  A    between atoms: C_1  and  N_2
REMARK    2  A    between atoms: C_3  and  C_5
REMARK    3  A    between atoms: C_9  and  C_11
REMARK    4  A    between atoms: N_13  and  C_14
REMARK    5  A    between atoms: C_16  and  C_17
REMARK                            x       y       z     vdW  Elec       q    Type
REMARK                         _______ _______ _______ _____ _____    ______ ____
ROOT
ATOM      1  C   UNL     1       2.399   5.870  20.250  0.00  0.00    +0.000 C 
ATOM      2  C   UNL     1       1.539   4.824  19.543  0.00  0.00    +0.000 C 
ATOM      3  C   UNL     1       2.548   3.752  19.127  0.00  0.00    +0.000 C 
ATOM      4  N   UNL     1       3.748   4.504  18.819  0.00  0.00    +0.000 N 
ATOM      5  C   UNL     1       4.628   4.130  17.800  0.00  0.00    +0.000 C 
ATOM      6  O   UNL     1       4.429   3.118  17.124  0.00  0.00    +0.000 OA
ATOM      7  C   UNL     1       3.737   5.780  19.524  0.00  0.00    +0.000 C 
ENDROOT
BRANCH   5   8
ATOM      8  C   UNL     1       5.775   5.003  17.542  0.00  0.00    +0.000 A 
ATOM      9  C   UNL     1       6.648   5.529  18.480  0.00  0.00    +0.000 A 
ATOM     10  N   UNL     1       7.434   6.426  17.831  0.00  0.00    +0.000 N 
ATOM     11  C   UNL     1       8.294   7.410  18.441  0.00  0.00    +0.000 C 
ATOM     12  N   UNL     1       7.311   6.370  16.503  0.00  0.00    +0.000 NA
ATOM     13  C   UNL     1       6.314   5.491  16.315  0.00  0.00    +0.000 A 
BRANCH  13  14
ATOM     14  C   UNL     1       5.849   5.115  14.908  0.00  0.00    +0.000 C 
ATOM     15  C   UNL     1       6.889   4.932  13.816  0.00  0.00    +0.000 C 
ATOM     16  C   UNL     1       6.230   3.733  14.399  0.00  0.00    +0.000 C 
ENDBRANCH  13  14
ENDBRANCH   5   8
BRANCH   1  19
ATOM     17  C   UNL     1       0.969   9.142  21.517  0.00  0.00    +0.000 C 
ATOM     18  N   UNL     1       1.445   7.784  21.412  0.00  0.00    +0.000 N 
ATOM     19  C   UNL     1       1.871   7.294  20.203  0.00  0.00    +0.000 C 
ATOM     20  O   UNL     1       1.893   7.982  19.186  0.00  0.00    +0.000 OA
ATOM     21  H   UNL     1       1.496   7.214  22.244  0.00  0.00    +0.000 HD
ENDBRANCH   1  19
TORSDOF 3
ENDMDL
MODEL 3
REMARK VINA RESULT:      -6.9      2.461      4.492
REMARK  Name = 
REMARK  5 active torsions:
REMARK  status: ('A' for Active; 'I' for Inactive)
REMARK    1  A    between atoms: C_1  and  N_2
REMARK    2  A    between atoms: C_3  and  C_5
REMARK    3  A    between atoms: C_9  and  C_11
REMARK    4  A    between atoms: N_13  and  C_14
REMARK    5  A    between atoms: C_16  and  C_17
REMARK                            x       y       z     vdW  Elec       q    Type
REMARK                         _______ _______ _______ _____ _____    ______ ____
ROOT
ATOM      1  C   UNL     1       6.497   3.771  15.580  0.00  0.00    +0.000 C 
ATOM      2  C   UNL     1       7.523   4.790  16.074  0.00  0.00    +0.000 C 
ATOM      3  C   UNL     1       7.452   4.660  17.596  0.00  0.00    +0.000 C 
ATOM      4  N   UNL     1       6.057   4.368  17.856  0.00  0.00    +0.000 N 
ATOM      5  C   UNL     1       5.390   4.839  18.990  0.00  0.00    +0.000 C 
ATOM      6  O   UNL     1       5.974   5.515  19.840  0.00  0.00    +0.000 OA
ATOM      7  C   UNL     1       5.440   3.770  16.679  0.00  0.00    +0.000 C 
ENDROOT
BRANCH   5   8
ATOM      8  C   UNL     1       3.964   4.530  19.114  0.00  0.00    +0.000 A 
ATOM      9  C   UNL     1       3.401   3.289  19.363  0.00  0.00    +0.000 A 
ATOM     10  N   UNL     1       2.058   3.424  19.206  0.00  0.00    +0.000 N 
ATOM     11  C   UNL     1       1.097   2.356  19.095  0.00  0.00    +0.000 C 
ATOM     12  N   UNL     1       1.666   4.696  19.102  0.00  0.00    +0.000 NA
ATOM     13  C   UNL     1       2.820   5.381  19.064  0.00  0.00    +0.000 A 
BRANCH  13  14
ATOM     14  C   UNL     1       2.830   6.906  18.960  0.00  0.00    +0.000 C 
ATOM     15  C   UNL     1       3.459   7.554  17.738  0.00  0.00    +0.000 C 
ATOM     16  C   UNL     1       1.977   7.531  17.866  0.00  0.00    +0.000 C 
ENDBRANCH  13  14
ENDBRANCH   5   8
BRANCH   1  19
ATOM     17  C   UNL     1       5.581   3.340  11.929  0.00  0.00    +0.000 C 
ATOM     18  N   UNL     1       6.165   3.191  13.240  0.00  0.00    +0.000 N 
ATOM     19  C   UNL     1       5.857   4.082  14.237  0.00  0.00    +0.000 C 
ATOM     20  O   UNL     1       5.068   5.008  14.071  0.00  0.00    +0.000 OA
ATOM     21  H   UNL     1       6.769   2.403  13.423  0.00  0.00    +0.000 HD
ENDBRANCH   1  19
TORSDOF 3
ENDMDL
MODEL 4
REMARK VINA RESULT:      -6.9      1.682      1.714
REMARK  Name = 
REMARK  5 active torsions:
REMARK  status: ('A' for Active; 'I' for Inactive)
REMARK    1  A    between atoms: C_1  and  N_2
REMARK    2  A    between atoms: C_3  and  C_5
REMARK    3  A    between atoms: C_9  and  C_11
REMARK    4  A    between atoms: N_13  and  C_14
REMARK    5  A    between atoms: C_16  and  C_17
REMARK                            x       y       z     vdW  Elec       q    Type
REMARK                         _______ _______ _______ _____ _____    ______ ____
ROOT
ATOM      1  C   UNL     1       6.465   5.033  16.997  0.00  0.00    +0.000 C 
ATOM      2  C   UNL     1       6.107   3.787  16.189  0.00  0.00    +0.000 C 
ATOM      3  C   UNL     1       4.631   3.994  15.848  0.00  0.00    +0.000 C 
ATOM      4  N   UNL     1       4.097   4.679  17.008  0.00  0.00    +0.000 N 
ATOM      5  C   UNL     1       2.798   4.463  17.477  0.00  0.00    +0.000 C 
ATOM      6  O   UNL     1       2.034   3.684  16.903  0.00  0.00    +0.000 OA
ATOM      7  C   UNL     1       5.163   5.378  17.713  0.00  0.00    +0.000 C 
ENDROOT
BRANCH   5   8
ATOM      8  C   UNL     1       2.392   5.167  18.694  0.00  0.00    +0.000 A 
ATOM      9  C   UNL     1       1.965   6.482  18.791  0.00  0.00    +0.000 A 
ATOM     10  N   UNL     1       1.877   6.774  20.115  0.00  0.00    +0.000 N 
ATOM     11  C   UNL     1       1.740   8.087  20.694  0.00  0.00    +0.000 C 
ATOM     12  N   UNL     1       1.987   5.699  20.899  0.00  0.00    +0.000 NA
ATOM     13  C   UNL     1       2.282   4.710  20.041  0.00  0.00    +0.000 A 
BRANCH  13  14
ATOM     14  C   UNL     1       2.484   3.276  20.529  0.00  0.00    +0.000 C 
ATOM     15  C   UNL     1       1.564   2.733  21.610  0.00  0.00    +0.000 C 
ATOM     16  C   UNL     1       1.385   2.274  20.207  0.00  0.00    +0.000 C 
ENDBRANCH  13  14
ENDBRANCH   5   8
BRANCH   1  19
ATOM     17  C   UNL     1       8.380   5.434  20.242  0.00  0.00    +0.000 C 
ATOM     18  N   UNL     1       7.412   5.551  19.179  0.00  0.00    +0.000 N 
ATOM     19  C   UNL     1       7.589   4.862  18.006  0.00  0.00    +0.000 C 
ATOM     20  O   UNL     1       8.543   4.110  17.823  0.00  0.00    +0.000 OA
ATOM     21  H   UNL     1       6.586   6.114  19.325  0.00  0.00    +0.000 HD
ENDBRANCH   1  19
TORSDOF 3
ENDMDL
MODEL 5
REMARK VINA RESULT:      -6.9      2.391      6.067
REMARK  Name = 
REMARK  5 active torsions:
REMARK  status: ('A' for Active; 'I' for Inactive)
REMARK    1  A    between atoms: C_1  and  N_2
REMARK    2  A    between atoms: C_3  and  C_5
REMARK    3  A    between atoms: C_9  and  C_11
REMARK    4  A    between atoms: N_13  and  C_14
REMARK    5  A    between atoms: C_16  and  C_17
REMARK                            x       y       z     vdW  Elec       q    Type
REMARK                         _______ _______ _______ _____ _____    ______ ____
ROOT
ATOM      1  C   UNL     1       2.668   3.758  19.629  0.00  0.00    +0.000 C 
ATOM      2  C   UNL     1       2.280   5.079  20.290  0.00  0.00    +0.000 C 
ATOM      3  C   UNL     1       2.255   6.069  19.125  0.00  0.00    +0.000 C 
ATOM      4  N   UNL     1       3.315   5.607  18.252  0.00  0.00    +0.000 N 
ATOM      5  C   UNL     1       4.112   6.482  17.509  0.00  0.00    +0.000 C 
ATOM      6  O   UNL     1       3.930   7.701  17.549  0.00  0.00    +0.000 OA
ATOM      7  C   UNL     1       3.568   4.190  18.476  0.00  0.00    +0.000 C 
ENDROOT
BRANCH   5   8
ATOM      8  C   UNL     1       5.191   5.901  16.709  0.00  0.00    +0.000 A 
ATOM      9  C   UNL     1       5.101   5.422  15.412  0.00  0.00    +0.000 A 
ATOM     10  N   UNL     1       6.278   4.805  15.134  0.00  0.00    +0.000 N 
ATOM     11  C   UNL     1       6.543   3.930  14.020  0.00  0.00    +0.000 C 
ATOM     12  N   UNL     1       7.222   5.035  16.050  0.00  0.00    +0.000 NA
ATOM     13  C   UNL     1       6.574   5.719  17.006  0.00  0.00    +0.000 A 
BRANCH  13  14
ATOM     14  C   UNL     1       7.303   6.203  18.260  0.00  0.00    +0.000 C 
ATOM     15  C   UNL     1       6.966   5.564  19.597  0.00  0.00    +0.000 C 
ATOM     16  C   UNL     1       8.253   5.223  18.931  0.00  0.00    +0.000 C 
ENDBRANCH  13  14
ENDBRANCH   5   8
BRANCH   1  19
ATOM     17  C   UNL     1       5.346   1.312  20.727  0.00  0.00    +0.000 C 
ATOM     18  N   UNL     1       4.532   2.229  19.966  0.00  0.00    +0.000 N 
ATOM     19  C   UNL     1       3.397   2.767  20.520  0.00  0.00    +0.000 C 
ATOM     20  O   UNL     1       3.048   2.520  21.672  0.00  0.00    +0.000 OA
ATOM     21  H   UNL     1       4.827   2.498  19.039  0.00  0.00    +0.000 HD
ENDBRANCH   1  19
TORSDOF 3
ENDMDL
MODEL 6
REMARK VINA RESULT:      -6.8      2.442      6.190
REMARK  Name = 
REMARK  5 active torsions:
REMARK  status: ('A' for Active; 'I' for Inactive)
REMARK    1  A    between atoms: C_1  and  N_2
REMARK    2  A    between atoms: C_3  and  C_5
REMARK    3  A    between atoms: C_9  and  C_11
REMARK    4  A    between atoms: N_13  and  C_14
REMARK    5  A    between atoms: C_16  and  C_17
REMARK                            x       y       z     vdW  Elec       q    Type
REMARK                         _______ _______ _______ _____ _____    ______ ____
ROOT
ATOM      1  C   UNL     1       3.056   2.964  18.492  0.00  0.00    +0.000 C 
ATOM      2  C   UNL     1       2.539   4.066  19.415  0.00  0.00    +0.000 C 
ATOM      3  C   UNL     1       2.460   5.290  18.501  0.00  0.00    +0.000 C 
ATOM      4  N   UNL     1       3.579   5.121  17.596  0.00  0.00    +0.000 N 
ATOM      5  C   UNL     1       4.317   6.202  17.104  0.00  0.00    +0.000 C 
ATOM      6  O   UNL     1       4.031   7.362  17.408  0.00  0.00    +0.000 OA
ATOM      7  C   UNL     1       3.946   3.714  17.506  0.00  0.00    +0.000 C 
ENDROOT
BRANCH   5   8
ATOM      8  C   UNL     1       5.463   5.903  16.244  0.00  0.00    +0.000 A 
ATOM      9  C   UNL     1       5.439   5.664  14.879  0.00  0.00    +0.000 A 
ATOM     10  N   UNL     1       6.683   5.245  14.528  0.00  0.00    +0.000 N 
ATOM     11  C   UNL     1       7.056   4.625  13.281  0.00  0.00    +0.000 C 
ATOM     12  N   UNL     1       7.586   5.406  15.498  0.00  0.00    +0.000 NA
ATOM     13  C   UNL     1       6.856   5.825  16.543  0.00  0.00    +0.000 A 
BRANCH  13  14
ATOM     14  C   UNL     1       7.513   6.148  17.885  0.00  0.00    +0.000 C 
ATOM     15  C   UNL     1       6.852   5.658  19.162  0.00  0.00    +0.000 C 
ATOM     16  C   UNL     1       8.084   4.981  18.676  0.00  0.00    +0.000 C 
ENDBRANCH  13  14
ENDBRANCH   5   8
BRANCH   1  19
ATOM     17  C   UNL     1       5.254   1.274  21.075  0.00  0.00    +0.000 C 
ATOM     18  N   UNL     1       4.510   2.242  20.306  0.00  0.00    +0.000 N 
ATOM     19  C   UNL     1       3.843   1.855  19.170  0.00  0.00    +0.000 C 
ATOM     20  O   UNL     1       3.827   0.689  18.783  0.00  0.00    +0.000 OA
ATOM     21  H   UNL     1       4.456   3.195  20.634  0.00  0.00    +0.000 HD
ENDBRANCH   1  19
TORSDOF 3
ENDMDL
MODEL 7
REMARK VINA RESULT:      -6.7      2.081      6.249
REMARK  Name = 
REMARK  5 active torsions:
REMARK  status: ('A' for Active; 'I' for Inactive)
REMARK    1  A    between atoms: C_1  and  N_2
REMARK    2  A    between atoms: C_3  and  C_5
REMARK    3  A    between atoms: C_9  and  C_11
REMARK    4  A    between atoms: N_13  and  C_14
REMARK    5  A    between atoms: C_16  and  C_17
REMARK                            x       y       z     vdW  Elec       q    Type
REMARK                         _______ _______ _______ _____ _____    ______ ____
ROOT
ATOM      1  C   UNL     1       2.012   4.852  18.661  0.00  0.00    +0.000 C 
ATOM      2  C   UNL     1       2.209   6.123  19.485  0.00  0.00    +0.000 C 
ATOM      3  C   UNL     1       2.817   7.108  18.485  0.00  0.00    +0.000 C 
ATOM      4  N   UNL     1       3.639   6.275  17.632  0.00  0.00    +0.000 N 
ATOM      5  C   UNL     1       4.849   6.718  17.090  0.00  0.00    +0.000 C 
ATOM      6  O   UNL     1       5.264   7.860  17.302  0.00  0.00    +0.000 OA
ATOM      7  C   UNL     1       3.157   4.900  17.655  0.00  0.00    +0.000 C 
ENDROOT
BRANCH   5   8
ATOM      8  C   UNL     1       5.623   5.765  16.292  0.00  0.00    +0.000 A 
ATOM      9  C   UNL     1       5.503   5.530  14.932  0.00  0.00    +0.000 A 
ATOM     10  N   UNL     1       6.269   4.444  14.648  0.00  0.00    +0.000 N 
ATOM     11  C   UNL     1       6.241   3.671  13.432  0.00  0.00    +0.000 C 
ATOM     12  N   UNL     1       7.063   4.082  15.658  0.00  0.00    +0.000 NA
ATOM     13  C   UNL     1       6.691   4.894  16.660  0.00  0.00    +0.000 A 
BRANCH  13  14
ATOM     14  C   UNL     1       7.371   4.823  18.028  0.00  0.00    +0.000 C 
ATOM     15  C   UNL     1       7.756   6.118  18.723  0.00  0.00    +0.000 C 
ATOM     16  C   UNL     1       6.585   5.346  19.220  0.00  0.00    +0.000 C 
ENDBRANCH  13  14
ENDBRANCH   5   8
BRANCH   1  19
ATOM     17  C   UNL     1       2.292   2.543  21.651  0.00  0.00    +0.000 C 
ATOM     18  N   UNL     1       2.281   3.697  20.786  0.00  0.00    +0.000 N 
ATOM     19  C   UNL     1       2.053   3.549  19.441  0.00  0.00    +0.000 C 
ATOM     20  O   UNL     1       1.826   2.455  18.929  0.00  0.00    +0.000 OA
ATOM     21  H   UNL     1       2.402   4.616  21.188  0.00  0.00    +0.000 HD
ENDBRANCH   1  19
TORSDOF 3
ENDMDL
MODEL 8
REMARK VINA RESULT:      -6.7      2.387      6.017
REMARK  Name = 
REMARK  5 active torsions:
REMARK  status: ('A' for Active; 'I' for Inactive)
REMARK    1  A    between atoms: C_1  and  N_2
REMARK    2  A    between atoms: C_3  and  C_5
REMARK    3  A    between atoms: C_9  and  C_11
REMARK    4  A    between atoms: N_13  and  C_14
REMARK    5  A    between atoms: C_16  and  C_17
REMARK                            x       y       z     vdW  Elec       q    Type
REMARK                         _______ _______ _______ _____ _____    ______ ____
ROOT
ATOM      1  C   UNL     1       2.950   3.034  18.890  0.00  0.00    +0.000 C 
ATOM      2  C   UNL     1       1.708   3.895  19.113  0.00  0.00    +0.000 C 
ATOM      3  C   UNL     1       1.757   4.900  17.962  0.00  0.00    +0.000 C 
ATOM      4  N   UNL     1       3.173   5.135  17.765  0.00  0.00    +0.000 N 
ATOM      5  C   UNL     1       3.682   6.380  17.386  0.00  0.00    +0.000 C 
ATOM      6  O   UNL     1       2.935   7.340  17.180  0.00  0.00    +0.000 OA
ATOM      7  C   UNL     1       3.945   4.002  18.258  0.00  0.00    +0.000 C 
ENDROOT
BRANCH   5   8
ATOM      8  C   UNL     1       5.136   6.512  17.276  0.00  0.00    +0.000 A 
ATOM      9  C   UNL     1       5.992   7.076  18.208  0.00  0.00    +0.000 A 
ATOM     10  N   UNL     1       7.215   7.163  17.622  0.00  0.00    +0.000 N 
ATOM     11  C   UNL     1       8.341   7.924  18.101  0.00  0.00    +0.000 C 
ATOM     12  N   UNL     1       7.294   6.496  16.469  0.00  0.00    +0.000 NA
ATOM     13  C   UNL     1       6.035   6.079  16.258  0.00  0.00    +0.000 A 
BRANCH  13  14
ATOM     14  C   UNL     1       5.676   5.247  15.026  0.00  0.00    +0.000 C 
ATOM     15  C   UNL     1       6.796   4.668  14.179  0.00  0.00    +0.000 C 
ATOM     16  C   UNL     1       6.017   3.765  15.068  0.00  0.00    +0.000 C 
ENDBRANCH  13  14
ENDBRANCH   5   8
BRANCH   1  19
ATOM     17  C   UNL     1       5.445   1.170  21.047  0.00  0.00    +0.000 C 
ATOM     18  N   UNL     1       4.744   1.764  19.935  0.00  0.00    +0.000 N 
ATOM     19  C   UNL     1       3.548   2.406  20.137  0.00  0.00    +0.000 C 
ATOM     20  O   UNL     1       3.046   2.525  21.252  0.00  0.00    +0.000 OA
ATOM     21  H   UNL     1       5.163   1.736  19.017  0.00  0.00    +0.000 HD
ENDBRANCH   1  19
TORSDOF 3
ENDMDL
MODEL 9
REMARK VINA RESULT:      -6.6      1.295      1.451
REMARK  Name = 
REMARK  5 active torsions:
REMARK  status: ('A' for Active; 'I' for Inactive)
REMARK    1  A    between atoms: C_1  and  N_2
REMARK    2  A    between atoms: C_3  and  C_5
REMARK    3  A    between atoms: C_9  and  C_11
REMARK    4  A    between atoms: N_13  and  C_14
REMARK    5  A    between atoms: C_16  and  C_17
REMARK                            x       y       z     vdW  Elec       q    Type
REMARK                         _______ _______ _______ _____ _____    ______ ____
ROOT
ATOM      1  C   UNL     1       6.626   6.246  17.403  0.00  0.00    +0.000 C 
ATOM      2  C   UNL     1       6.649   4.940  16.611  0.00  0.00    +0.000 C 
ATOM      3  C   UNL     1       5.199   4.773  16.153  0.00  0.00    +0.000 C 
ATOM      4  N   UNL     1       4.423   5.322  17.246  0.00  0.00    +0.000 N 
ATOM      5  C   UNL     1       3.182   4.800  17.623  0.00  0.00    +0.000 C 
ATOM      6  O   UNL     1       2.679   3.850  17.018  0.00  0.00    +0.000 OA
ATOM      7  C   UNL     1       5.225   6.271  18.007  0.00  0.00    +0.000 C 
ENDROOT
BRANCH   5   8
ATOM      8  C   UNL     1       2.519   5.399  18.782  0.00  0.00    +0.000 A 
ATOM      9  C   UNL     1       2.050   6.698  18.893  0.00  0.00    +0.000 A 
ATOM     10  N   UNL     1       1.686   6.880  20.189  0.00  0.00    +0.000 N 
ATOM     11  C   UNL     1       1.403   8.139  20.830  0.00  0.00    +0.000 C 
ATOM     12  N   UNL     1       1.658   5.745  20.891  0.00  0.00    +0.000 NA
ATOM     13  C   UNL     1       2.146   4.832  20.037  0.00  0.00    +0.000 A 
BRANCH  13  14
ATOM     14  C   UNL     1       2.276   3.363  20.441  0.00  0.00    +0.000 C 
ATOM     15  C   UNL     1       1.379   2.822  21.541  0.00  0.00    +0.000 C 
ATOM     16  C   UNL     1       1.100   2.452  20.127  0.00  0.00    +0.000 C 
ENDBRANCH  13  14
ENDBRANCH   5   8
BRANCH   1  19
ATOM     17  C   UNL     1       8.712   5.266  20.409  0.00  0.00    +0.000 C 
ATOM     18  N   UNL     1       7.728   5.299  19.355  0.00  0.00    +0.000 N 
ATOM     19  C   UNL     1       7.671   6.370  18.498  0.00  0.00    +0.000 C 
ATOM     20  O   UNL     1       8.456   7.312  18.571  0.00  0.00    +0.000 OA
ATOM     21  H   UNL     1       7.110   4.510  19.233  0.00  0.00    +0.000 HD
ENDBRANCH   1  19
TORSDOF 3
ENDMDL
