MODEL 1
REMARK VINA RESULT:      -8.1      0.000      0.000
REMARK  Name = 
REMARK  6 active torsions:
REMARK  status: ('A' for Active; 'I' for Inactive)
REMARK    1  A    between atoms: C_1  and  C_2
REMARK    2  A    between atoms: C_2  and  N_3
REMARK    3  A    between atoms: C_8  and  S_9
REMARK    4  A    between atoms: S_9  and  N_12
REMARK    5  A    between atoms: N_12  and  C_13
REMARK    6  A    between atoms: C_16  and  C_17
REMARK                            x       y       z     vdW  Elec       q    Type
REMARK                         _______ _______ _______ _____ _____    ______ ____
ROOT
ATOM      1  N   UNL     1      -0.662  11.500  19.238  0.00  0.00    +0.000 N 
ATOM      2  C   UNL     1       0.651  11.084  19.104  0.00  0.00    +0.000 C 
ATOM      3  O   UNL     1       1.379  11.374  18.157  0.00  0.00    +0.000 OA
ATOM      4  C   UNL     1       1.062   9.971  19.961  0.00  0.00    +0.000 A 
ATOM      5  C   UNL     1       1.520   8.818  19.316  0.00  0.00    +0.000 A 
ATOM      6  C   UNL     1       1.794   7.676  20.066  0.00  0.00    +0.000 A 
ATOM      7  C   UNL     1       1.623   7.684  21.454  0.00  0.00    +0.000 A 
ATOM      8  C   UNL     1       1.203   8.860  22.091  0.00  0.00    +0.000 A 
ATOM      9  C   UNL     1       0.901  10.000  21.336  0.00  0.00    +0.000 A 
ATOM     10  O   UNL     1       0.546  11.144  21.994  0.00  0.00    +0.000 OA
ATOM     11  C   UNL     1      -0.705  11.641  21.726  0.00  0.00    +0.000 A 
ATOM     12  C   UNL     1      -1.386  12.098  22.864  0.00  0.00    +0.000 A 
ATOM     13  C   UNL     1      -2.663  12.630  22.748  0.00  0.00    +0.000 A 
ATOM     14  C   UNL     1      -3.219  12.681  21.489  0.00  0.00    +0.000 A 
ATOM     15  N   UNL     1      -2.583  12.266  20.373  0.00  0.00    +0.000 NA
ATOM     16  C   UNL     1      -1.319  11.770  20.473  0.00  0.00    +0.000 A 
ENDROOT
BRANCH   6  17
ATOM     17  S   UNL     1       2.264   6.184  19.205  0.00  0.00    +0.000 S 
ATOM     18  O   UNL     1       1.927   5.066  20.062  0.00  0.00    +0.000 OA
ATOM     19  O   UNL     1       1.729   6.283  17.865  0.00  0.00    +0.000 OA
BRANCH  17  20
ATOM     20  N   UNL     1       3.949   6.311  19.067  0.00  0.00    +0.000 N 
ATOM     21  H   UNL     1       4.396   5.999  19.932  0.00  0.00    +0.000 HD
BRANCH  20  22
ATOM     22  C   UNL     1       4.534   5.783  17.875  0.00  0.00    +0.000 A 
ATOM     23  C   UNL     1       4.845   6.635  16.818  0.00  0.00    +0.000 A 
ATOM     24  C   UNL     1       5.326   6.108  15.615  0.00  0.00    +0.000 A 
ATOM     25  C   UNL     1       5.474   4.722  15.454  0.00  0.00    +0.000 A 
ATOM     26  C   UNL     1       5.958   4.144  14.157  0.00  0.00    +0.000 C 
ATOM     27  C   UNL     1       5.160   3.872  16.522  0.00  0.00    +0.000 A 
ATOM     28  C   UNL     1       4.700   4.406  17.719  0.00  0.00    +0.000 A 
ATOM     29  F   UNL     1       4.385   3.580  18.728  0.00  0.00    +0.000 F 
ENDBRANCH  20  22
ENDBRANCH  17  20
ENDBRANCH   6  17
BRANCH   1  31
ATOM     30  C   UNL     1      -1.877  10.348  17.375  0.00  0.00    +0.000 C 
ATOM     31  C   UNL     1      -1.414  11.653  17.995  0.00  0.00    +0.000 C 
ENDBRANCH   1  31
TORSDOF 4
ENDMDL
MODEL 2
REMARK VINA RESULT:      -7.9      2.050      2.819
REMARK  Name = 
REMARK  6 active torsions:
REMARK  status: ('A' for Active; 'I' for Inactive)
REMARK    1  A    between atoms: C_1  and  C_2
REMARK    2  A    between atoms: C_2  and  N_3
REMARK    3  A    between atoms: C_8  and  S_9
REMARK    4  A    between atoms: S_9  and  N_12
REMARK    5  A    between atoms: N_12  and  C_13
REMARK    6  A    between atoms: C_16  and  C_17
REMARK                            x       y       z     vdW  Elec       q    Type
REMARK                         _______ _______ _______ _____ _____    ______ ____
ROOT
ATOM      1  N   UNL     1       0.969   9.386  19.020  0.00  0.00    +0.000 N 
ATOM      2  C   UNL     1       2.070   8.591  18.751  0.00  0.00    +0.000 C 
ATOM      3  O   UNL     1       2.869   8.797  17.840  0.00  0.00    +0.000 OA
ATOM      4  C   UNL     1       2.067   7.264  19.367  0.00  0.00    +0.000 A 
ATOM      5  C   UNL     1       2.124   6.169  18.498  0.00  0.00    +0.000 A 
ATOM      6  C   UNL     1       1.986   4.880  19.010  0.00  0.00    +0.000 A 
ATOM      7  C   UNL     1       1.802   4.680  20.382  0.00  0.00    +0.000 A 
ATOM      8  C   UNL     1       1.788   5.785  21.245  0.00  0.00    +0.000 A 
ATOM      9  C   UNL     1       1.900   7.082  20.729  0.00  0.00    +0.000 A 
ATOM     10  O   UNL     1       1.937   8.132  21.603  0.00  0.00    +0.000 OA
ATOM     11  C   UNL     1       0.930   9.058  21.491  0.00  0.00    +0.000 A 
ATOM     12  C   UNL     1       0.421   9.490  22.725  0.00  0.00    +0.000 A 
ATOM     13  C   UNL     1      -0.602  10.427  22.769  0.00  0.00    +0.000 A 
ATOM     14  C   UNL     1      -1.086  10.899  21.568  0.00  0.00    +0.000 A 
ATOM     15  N   UNL     1      -0.604  10.517  20.366  0.00  0.00    +0.000 NA
ATOM     16  C   UNL     1       0.418   9.620  20.313  0.00  0.00    +0.000 A 
ENDROOT
BRANCH   6  17
ATOM     17  S   UNL     1       1.944   3.509  17.867  0.00  0.00    +0.000 S 
ATOM     18  O   UNL     1       1.257   2.418  18.525  0.00  0.00    +0.000 OA
ATOM     19  O   UNL     1       1.476   4.029  16.601  0.00  0.00    +0.000 OA
BRANCH  17  20
ATOM     20  N   UNL     1       3.578   3.111  17.654  0.00  0.00    +0.000 N 
ATOM     21  H   UNL     1       3.683   2.473  16.862  0.00  0.00    +0.000 HD
BRANCH  20  22
ATOM     22  C   UNL     1       4.507   4.197  17.665  0.00  0.00    +0.000 A 
ATOM     23  C   UNL     1       4.729   4.932  16.503  0.00  0.00    +0.000 A 
ATOM     24  C   UNL     1       5.707   5.931  16.485  0.00  0.00    +0.000 A 
ATOM     25  C   UNL     1       6.490   6.181  17.622  0.00  0.00    +0.000 A 
ATOM     26  C   UNL     1       7.565   7.227  17.604  0.00  0.00    +0.000 C 
ATOM     27  C   UNL     1       6.261   5.438  18.787  0.00  0.00    +0.000 A 
ATOM     28  C   UNL     1       5.274   4.461  18.801  0.00  0.00    +0.000 A 
ATOM     29  F   UNL     1       5.076   3.743  19.918  0.00  0.00    +0.000 F 
ENDBRANCH  20  22
ENDBRANCH  17  20
ENDBRANCH   6  17
BRANCH   1  31
ATOM     30  C   UNL     1      -1.098   9.581  17.620  0.00  0.00    +0.000 C 
ATOM     31  C   UNL     1       0.335  10.015  17.864  0.00  0.00    +0.000 C 
ENDBRANCH   1  31
TORSDOF 4
ENDMDL
MODEL 3
REMARK VINA RESULT:      -7.8      0.879      1.242
REMARK  Name = 
REMARK  6 active torsions:
REMARK  status: ('A' for Active; 'I' for Inactive)
REMARK    1  A    between atoms: C_1  and  C_2
REMARK    2  A    between atoms: C_2  and  N_3
REMARK    3  A    between atoms: C_8  and  S_9
REMARK    4  A    between atoms: S_9  and  N_12
REMARK    5  A    between atoms: N_12  and  C_13
REMARK    6  A    between atoms: C_16  and  C_17
REMARK                            x       y       z     vdW  Elec       q    Type
REMARK                         _______ _______ _______ _____ _____    ______ ____
ROOT
ATOM      1  N   UNL     1      -0.523  11.242  19.009  0.00  0.00    +0.000 N 
ATOM      2  C   UNL     1       0.771  10.766  18.891  0.00  0.00    +0.000 C 
ATOM      3  O   UNL     1       1.493  10.948  17.912  0.00  0.00    +0.000 OA
ATOM      4  C   UNL     1       1.154   9.711  19.830  0.00  0.00    +0.000 A 
ATOM      5  C   UNL     1       1.557   8.492  19.275  0.00  0.00    +0.000 A 
ATOM      6  C   UNL     1       1.801   7.405  20.112  0.00  0.00    +0.000 A 
ATOM      7  C   UNL     1       1.655   7.532  21.498  0.00  0.00    +0.000 A 
ATOM      8  C   UNL     1       1.290   8.772  22.042  0.00  0.00    +0.000 A 
ATOM      9  C   UNL     1       1.019   9.857  21.200  0.00  0.00    +0.000 A 
ATOM     10  O   UNL     1       0.718  11.064  21.767  0.00  0.00    +0.000 OA
ATOM     11  C   UNL     1      -0.517  11.586  21.477  0.00  0.00    +0.000 A 
ATOM     12  C   UNL     1      -1.161  12.161  22.584  0.00  0.00    +0.000 A 
ATOM     13  C   UNL     1      -2.418  12.731  22.444  0.00  0.00    +0.000 A 
ATOM     14  C   UNL     1      -2.994  12.701  21.192  0.00  0.00    +0.000 A 
ATOM     15  N   UNL     1      -2.393  12.172  20.104  0.00  0.00    +0.000 NA
ATOM     16  C   UNL     1      -1.148  11.637  20.227  0.00  0.00    +0.000 A 
ENDROOT
BRANCH   6  17
ATOM     17  S   UNL     1       2.199   5.830  19.370  0.00  0.00    +0.000 S 
ATOM     18  O   UNL     1       1.840   4.800  20.322  0.00  0.00    +0.000 OA
ATOM     19  O   UNL     1       1.641   5.839  18.036  0.00  0.00    +0.000 OA
BRANCH  17  20
ATOM     20  N   UNL     1       3.884   5.882  19.193  0.00  0.00    +0.000 N 
ATOM     21  H   UNL     1       4.334   5.420  19.986  0.00  0.00    +0.000 HD
BRANCH  20  22
ATOM     22  C   UNL     1       4.405   5.505  17.916  0.00  0.00    +0.000 A 
ATOM     23  C   UNL     1       4.740   4.176  17.669  0.00  0.00    +0.000 A 
ATOM     24  C   UNL     1       5.340   3.822  16.456  0.00  0.00    +0.000 A 
ATOM     25  C   UNL     1       5.633   4.801  15.495  0.00  0.00    +0.000 A 
ATOM     26  C   UNL     1       6.306   4.437  14.204  0.00  0.00    +0.000 C 
ATOM     27  C   UNL     1       5.291   6.135  15.750  0.00  0.00    +0.000 A 
ATOM     28  C   UNL     1       4.679   6.475  16.950  0.00  0.00    +0.000 A 
ATOM     29  F   UNL     1       4.374   7.759  17.191  0.00  0.00    +0.000 F 
ENDBRANCH  20  22
ENDBRANCH  17  20
ENDBRANCH   6  17
BRANCH   1  31
ATOM     30  C   UNL     1      -1.849   9.997  17.287  0.00  0.00    +0.000 C 
ATOM     31  C   UNL     1      -1.290  11.323  17.768  0.00  0.00    +0.000 C 
ENDBRANCH   1  31
TORSDOF 4
ENDMDL
MODEL 4
REMARK VINA RESULT:      -7.8      2.173      3.042
REMARK  Name = 
REMARK  6 active torsions:
REMARK  status: ('A' for Active; 'I' for Inactive)
REMARK    1  A    between atoms: C_1  and  C_2
REMARK    2  A    between atoms: C_2  and  N_3
REMARK    3  A    between atoms: C_8  and  S_9
REMARK    4  A    between atoms: S_9  and  N_12
REMARK    5  A    between atoms: N_12  and  C_13
REMARK    6  A    between atoms: C_16  and  C_17
REMARK                            x       y       z     vdW  Elec       q    Type
REMARK                         _______ _______ _______ _____ _____    ______ ____
ROOT
ATOM      1  N   UNL     1       1.066   9.333  19.031  0.00  0.00    +0.000 N 
ATOM      2  C   UNL     1       2.148   8.512  18.766  0.00  0.00    +0.000 C 
ATOM      3  O   UNL     1       2.965   8.706  17.868  0.00  0.00    +0.000 OA
ATOM      4  C   UNL     1       2.102   7.177  19.365  0.00  0.00    +0.000 A 
ATOM      5  C   UNL     1       2.141   6.092  18.484  0.00  0.00    +0.000 A 
ATOM      6  C   UNL     1       1.961   4.802  18.978  0.00  0.00    +0.000 A 
ATOM      7  C   UNL     1       1.753   4.590  20.345  0.00  0.00    +0.000 A 
ATOM      8  C   UNL     1       1.758   5.685  21.221  0.00  0.00    +0.000 A 
ATOM      9  C   UNL     1       1.912   6.984  20.722  0.00  0.00    +0.000 A 
ATOM     10  O   UNL     1       1.965   8.022  21.610  0.00  0.00    +0.000 OA
ATOM     11  C   UNL     1       0.985   8.976  21.496  0.00  0.00    +0.000 A 
ATOM     12  C   UNL     1       0.472   9.407  22.729  0.00  0.00    +0.000 A 
ATOM     13  C   UNL     1      -0.526  10.371  22.771  0.00  0.00    +0.000 A 
ATOM     14  C   UNL     1      -0.981  10.871  21.571  0.00  0.00    +0.000 A 
ATOM     15  N   UNL     1      -0.494  10.490  20.370  0.00  0.00    +0.000 NA
ATOM     16  C   UNL     1       0.504   9.566  20.319  0.00  0.00    +0.000 A 
ENDROOT
BRANCH   6  17
ATOM     17  S   UNL     1       1.897   3.446  17.818  0.00  0.00    +0.000 S 
ATOM     18  O   UNL     1       0.975   2.465  18.349  0.00  0.00    +0.000 OA
ATOM     19  O   UNL     1       1.698   4.022  16.506  0.00  0.00    +0.000 OA
BRANCH  17  20
ATOM     20  N   UNL     1       3.473   2.821  17.840  0.00  0.00    +0.000 N 
ATOM     21  H   UNL     1       3.572   2.095  17.127  0.00  0.00    +0.000 HD
BRANCH  20  22
ATOM     22  C   UNL     1       4.538   3.774  17.865  0.00  0.00    +0.000 A 
ATOM     23  C   UNL     1       5.073   4.185  19.084  0.00  0.00    +0.000 A 
ATOM     24  C   UNL     1       6.047   5.188  19.115  0.00  0.00    +0.000 A 
ATOM     25  C   UNL     1       6.472   5.805  17.929  0.00  0.00    +0.000 A 
ATOM     26  C   UNL     1       7.492   6.905  17.954  0.00  0.00    +0.000 C 
ATOM     27  C   UNL     1       5.930   5.385  16.707  0.00  0.00    +0.000 A 
ATOM     28  C   UNL     1       4.977   4.375  16.684  0.00  0.00    +0.000 A 
ATOM     29  F   UNL     1       4.451   3.994  15.509  0.00  0.00    +0.000 F 
ENDBRANCH  20  22
ENDBRANCH  17  20
ENDBRANCH   6  17
BRANCH   1  31
ATOM     30  C   UNL     1      -0.903   9.460  17.488  0.00  0.00    +0.000 C 
ATOM     31  C   UNL     1       0.464   9.992  17.874  0.00  0.00    +0.000 C 
ENDBRANCH   1  31
TORSDOF 4
ENDMDL
MODEL 5
REMARK VINA RESULT:      -7.5      2.540      4.598
REMARK  Name = 
REMARK  6 active torsions:
REMARK  status: ('A' for Active; 'I' for Inactive)
REMARK    1  A    between atoms: C_1  and  C_2
REMARK    2  A    between atoms: C_2  and  N_3
REMARK    3  A    between atoms: C_8  and  S_9
REMARK    4  A    between atoms: S_9  and  N_12
REMARK    5  A    between atoms: N_12  and  C_13
REMARK    6  A    between atoms: C_16  and  C_17
REMARK                            x       y       z     vdW  Elec       q    Type
REMARK                         _______ _______ _______ _____ _____    ______ ____
ROOT
ATOM      1  N   UNL     1       1.505   8.499  20.795  0.00  0.00    +0.000 N 
ATOM      2  C   UNL     1       1.719   7.212  20.331  0.00  0.00    +0.000 C 
ATOM      3  O   UNL     1       1.459   6.192  20.966  0.00  0.00    +0.000 OA
ATOM      4  C   UNL     1       2.612   7.087  19.178  0.00  0.00    +0.000 A 
ATOM      5  C   UNL     1       3.759   6.305  19.355  0.00  0.00    +0.000 A 
ATOM      6  C   UNL     1       4.718   6.258  18.346  0.00  0.00    +0.000 A 
ATOM      7  C   UNL     1       4.533   6.977  17.160  0.00  0.00    +0.000 A 
ATOM      8  C   UNL     1       3.359   7.722  16.981  0.00  0.00    +0.000 A 
ATOM      9  C   UNL     1       2.407   7.792  18.005  0.00  0.00    +0.000 A 
ATOM     10  O   UNL     1       1.251   8.484  17.776  0.00  0.00    +0.000 OA
ATOM     11  C   UNL     1       1.007   9.558  18.595  0.00  0.00    +0.000 A 
ATOM     12  C   UNL     1       0.503  10.679  17.919  0.00  0.00    +0.000 A 
ATOM     13  C   UNL     1       0.207  11.842  18.617  0.00  0.00    +0.000 A 
ATOM     14  C   UNL     1       0.433  11.843  19.976  0.00  0.00    +0.000 A 
ATOM     15  N   UNL     1       0.899  10.774  20.658  0.00  0.00    +0.000 NA
ATOM     16  C   UNL     1       1.165   9.621  19.986  0.00  0.00    +0.000 A 
ENDROOT
BRANCH   6  17
ATOM     17  S   UNL     1       6.226   5.349  18.645  0.00  0.00    +0.000 S 
ATOM     18  O   UNL     1       7.263   5.954  17.836  0.00  0.00    +0.000 OA
ATOM     19  O   UNL     1       6.372   5.234  20.079  0.00  0.00    +0.000 OA
BRANCH  17  20
ATOM     20  N   UNL     1       5.881   3.794  18.065  0.00  0.00    +0.000 N 
ATOM     21  H   UNL     1       6.586   3.132  18.398  0.00  0.00    +0.000 HD
BRANCH  20  22
ATOM     22  C   UNL     1       4.532   3.343  18.208  0.00  0.00    +0.000 A 
ATOM     23  C   UNL     1       3.610   3.578  17.191  0.00  0.00    +0.000 A 
ATOM     24  C   UNL     1       2.269   3.224  17.370  0.00  0.00    +0.000 A 
ATOM     25  C   UNL     1       1.837   2.659  18.579  0.00  0.00    +0.000 A 
ATOM     26  C   UNL     1       0.395   2.306  18.794  0.00  0.00    +0.000 C 
ATOM     27  C   UNL     1       2.771   2.424  19.596  0.00  0.00    +0.000 A 
ATOM     28  C   UNL     1       4.104   2.762  19.403  0.00  0.00    +0.000 A 
ATOM     29  F   UNL     1       4.986   2.550  20.392  0.00  0.00    +0.000 F 
ENDBRANCH  20  22
ENDBRANCH  17  20
ENDBRANCH   6  17
BRANCH   1  31
ATOM     30  C   UNL     1       0.398   9.141  22.948  0.00  0.00    +0.000 C 
ATOM     31  C   UNL     1       1.660   8.693  22.234  0.00  0.00    +0.000 C 
ENDBRANCH   1  31
TORSDOF 4
ENDMDL
MODEL 6
REMARK VINA RESULT:      -7.4      2.595      4.714
REMARK  Name = 
REMARK  6 active torsions:
REMARK  status: ('A' for Active; 'I' for Inactive)
REMARK    1  A    between atoms: C_1  and  C_2
REMARK    2  A    between atoms: C_2  and  N_3
REMARK    3  A    between atoms: C_8  and  S_9
REMARK    4  A    between atoms: S_9  and  N_12
REMARK    5  A    between atoms: N_12  and  C_13
REMARK    6  A    between atoms: C_16  and  C_17
REMARK                            x       y       z     vdW  Elec       q    Type
REMARK                         _______ _______ _______ _____ _____    ______ ____
ROOT
ATOM      1  N   UNL     1       1.550   8.459  20.760  0.00  0.00    +0.000 N 
ATOM      2  C   UNL     1       1.775   7.177  20.289  0.00  0.00    +0.000 C 
ATOM      3  O   UNL     1       1.509   6.151  20.911  0.00  0.00    +0.000 OA
ATOM      4  C   UNL     1       2.687   7.064  19.150  0.00  0.00    +0.000 A 
ATOM      5  C   UNL     1       3.833   6.285  19.338  0.00  0.00    +0.000 A 
ATOM      6  C   UNL     1       4.808   6.248  18.344  0.00  0.00    +0.000 A 
ATOM      7  C   UNL     1       4.639   6.977  17.160  0.00  0.00    +0.000 A 
ATOM      8  C   UNL     1       3.465   7.719  16.970  0.00  0.00    +0.000 A 
ATOM      9  C   UNL     1       2.497   7.778  17.979  0.00  0.00    +0.000 A 
ATOM     10  O   UNL     1       1.343   8.468  17.738  0.00  0.00    +0.000 OA
ATOM     11  C   UNL     1       1.083   9.534  18.561  0.00  0.00    +0.000 A 
ATOM     12  C   UNL     1       0.585  10.660  17.887  0.00  0.00    +0.000 A 
ATOM     13  C   UNL     1       0.275  11.816  18.590  0.00  0.00    +0.000 A 
ATOM     14  C   UNL     1       0.479  11.806  19.952  0.00  0.00    +0.000 A 
ATOM     15  N   UNL     1       0.939  10.733  20.632  0.00  0.00    +0.000 NA
ATOM     16  C   UNL     1       1.219   9.586  19.955  0.00  0.00    +0.000 A 
ENDROOT
BRANCH   6  17
ATOM     17  S   UNL     1       6.314   5.342  18.658  0.00  0.00    +0.000 S 
ATOM     18  O   UNL     1       7.302   5.799  17.704  0.00  0.00    +0.000 OA
ATOM     19  O   UNL     1       6.562   5.417  20.082  0.00  0.00    +0.000 OA
BRANCH  17  20
ATOM     20  N   UNL     1       5.894   3.734  18.322  0.00  0.00    +0.000 N 
ATOM     21  H   UNL     1       6.545   3.098  18.788  0.00  0.00    +0.000 HD
BRANCH  20  22
ATOM     22  C   UNL     1       4.517   3.387  18.476  0.00  0.00    +0.000 A 
ATOM     23  C   UNL     1       4.049   2.934  19.707  0.00  0.00    +0.000 A 
ATOM     24  C   UNL     1       2.725   2.501  19.835  0.00  0.00    +0.000 A 
ATOM     25  C   UNL     1       1.869   2.494  18.723  0.00  0.00    +0.000 A 
ATOM     26  C   UNL     1       0.457   2.001  18.841  0.00  0.00    +0.000 C 
ATOM     27  C   UNL     1       2.346   2.952  17.489  0.00  0.00    +0.000 A 
ATOM     28  C   UNL     1       3.657   3.397  17.376  0.00  0.00    +0.000 A 
ATOM     29  F   UNL     1       4.109   3.816  16.184  0.00  0.00    +0.000 F 
ENDBRANCH  20  22
ENDBRANCH  17  20
ENDBRANCH   6  17
BRANCH   1  31
ATOM     30  C   UNL     1       0.411   9.092  22.899  0.00  0.00    +0.000 C 
ATOM     31  C   UNL     1       1.682   8.642  22.204  0.00  0.00    +0.000 C 
ENDBRANCH   1  31
TORSDOF 4
ENDMDL
MODEL 7
REMARK VINA RESULT:      -7.4      4.199      9.961
REMARK  Name = 
REMARK  6 active torsions:
REMARK  status: ('A' for Active; 'I' for Inactive)
REMARK    1  A    between atoms: C_1  and  C_2
REMARK    2  A    between atoms: C_2  and  N_3
REMARK    3  A    between atoms: C_8  and  S_9
REMARK    4  A    between atoms: S_9  and  N_12
REMARK    5  A    between atoms: N_12  and  C_13
REMARK    6  A    between atoms: C_16  and  C_17
REMARK                            x       y       z     vdW  Elec       q    Type
REMARK                         _______ _______ _______ _____ _____    ______ ____
ROOT
ATOM      1  N   UNL     1       0.698  10.171  21.227  0.00  0.00    +0.000 N 
ATOM      2  C   UNL     1       0.205  11.460  21.124  0.00  0.00    +0.000 C 
ATOM      3  O   UNL     1       0.377  12.339  21.966  0.00  0.00    +0.000 OA
ATOM      4  C   UNL     1      -0.853  11.665  20.134  0.00  0.00    +0.000 A 
ATOM      5  C   UNL     1      -2.078  12.141  20.613  0.00  0.00    +0.000 A 
ATOM      6  C   UNL     1      -3.166  12.225  19.748  0.00  0.00    +0.000 A 
ATOM      7  C   UNL     1      -3.035  11.847  18.407  0.00  0.00    +0.000 A 
ATOM      8  C   UNL     1      -1.790  11.412  17.932  0.00  0.00    +0.000 A 
ATOM      9  C   UNL     1      -0.702  11.302  18.807  0.00  0.00    +0.000 A 
ATOM     10  O   UNL     1       0.509  10.925  18.298  0.00  0.00    +0.000 OA
ATOM     11  C   UNL     1       1.046   9.763  18.793  0.00  0.00    +0.000 A 
ATOM     12  C   UNL     1       1.631   8.948  17.811  0.00  0.00    +0.000 A 
ATOM     13  C   UNL     1       2.216   7.740  18.163  0.00  0.00    +0.000 A 
ATOM     14  C   UNL     1       2.192   7.384  19.493  0.00  0.00    +0.000 A 
ATOM     15  N   UNL     1       1.654   8.154  20.464  0.00  0.00    +0.000 NA
ATOM     16  C   UNL     1       1.103   9.354  20.132  0.00  0.00    +0.000 A 
ENDROOT
BRANCH   6  17
ATOM     17  S   UNL     1      -4.747  12.723  20.412  0.00  0.00    +0.000 S 
ATOM     18  O   UNL     1      -4.905  14.136  20.141  0.00  0.00    +0.000 OA
ATOM     19  O   UNL     1      -5.722  11.761  19.947  0.00  0.00    +0.000 OA
BRANCH  17  20
ATOM     20  N   UNL     1      -4.579  12.476  22.081  0.00  0.00    +0.000 N 
ATOM     21  H   UNL     1      -3.755  11.900  22.268  0.00  0.00    +0.000 HD
BRANCH  20  22
ATOM     22  C   UNL     1      -4.692  13.633  22.913  0.00  0.00    +0.000 A 
ATOM     23  C   UNL     1      -5.930  14.251  23.078  0.00  0.00    +0.000 A 
ATOM     24  C   UNL     1      -6.025  15.437  23.811  0.00  0.00    +0.000 A 
ATOM     25  C   UNL     1      -4.877  16.028  24.361  0.00  0.00    +0.000 A 
ATOM     26  C   UNL     1      -4.963  17.318  25.122  0.00  0.00    +0.000 C 
ATOM     27  C   UNL     1      -3.637  15.400  24.193  0.00  0.00    +0.000 A 
ATOM     28  C   UNL     1      -3.554  14.212  23.478  0.00  0.00    +0.000 A 
ATOM     29  F   UNL     1      -2.358  13.629  23.307  0.00  0.00    +0.000 F 
ENDBRANCH  20  22
ENDBRANCH  17  20
ENDBRANCH   6  17
BRANCH   1  31
ATOM     30  C   UNL     1      -0.549   9.268  23.202  0.00  0.00    +0.000 C 
ATOM     31  C   UNL     1       0.787   9.626  22.579  0.00  0.00    +0.000 C 
ENDBRANCH   1  31
TORSDOF 4
ENDMDL
MODEL 8
REMARK VINA RESULT:      -7.3      4.510     10.098
REMARK  Name = 
REMARK  6 active torsions:
REMARK  status: ('A' for Active; 'I' for Inactive)
REMARK    1  A    between atoms: C_1  and  C_2
REMARK    2  A    between atoms: C_2  and  N_3
REMARK    3  A    between atoms: C_8  and  S_9
REMARK    4  A    between atoms: S_9  and  N_12
REMARK    5  A    between atoms: N_12  and  C_13
REMARK    6  A    between atoms: C_16  and  C_17
REMARK                            x       y       z     vdW  Elec       q    Type
REMARK                         _______ _______ _______ _____ _____    ______ ____
ROOT
ATOM      1  N   UNL     1       0.665  10.170  21.205  0.00  0.00    +0.000 N 
ATOM      2  C   UNL     1       0.156  11.453  21.102  0.00  0.00    +0.000 C 
ATOM      3  O   UNL     1       0.304  12.330  21.951  0.00  0.00    +0.000 OA
ATOM      4  C   UNL     1      -0.892  11.648  20.099  0.00  0.00    +0.000 A 
ATOM      5  C   UNL     1      -2.130  12.104  20.565  0.00  0.00    +0.000 A 
ATOM      6  C   UNL     1      -3.208  12.178  19.686  0.00  0.00    +0.000 A 
ATOM      7  C   UNL     1      -3.054  11.809  18.345  0.00  0.00    +0.000 A 
ATOM      8  C   UNL     1      -1.797  11.394  17.884  0.00  0.00    +0.000 A 
ATOM      9  C   UNL     1      -0.719  11.294  18.772  0.00  0.00    +0.000 A 
ATOM     10  O   UNL     1       0.504  10.937  18.278  0.00  0.00    +0.000 OA
ATOM     11  C   UNL     1       1.051   9.780  18.774  0.00  0.00    +0.000 A 
ATOM     12  C   UNL     1       1.660   8.979  17.795  0.00  0.00    +0.000 A 
ATOM     13  C   UNL     1       2.257   7.777  18.148  0.00  0.00    +0.000 A 
ATOM     14  C   UNL     1       2.221   7.414  19.477  0.00  0.00    +0.000 A 
ATOM     15  N   UNL     1       1.660   8.171  20.444  0.00  0.00    +0.000 NA
ATOM     16  C   UNL     1       1.096   9.365  20.112  0.00  0.00    +0.000 A 
ENDROOT
BRANCH   6  17
ATOM     17  S   UNL     1      -4.804  12.650  20.332  0.00  0.00    +0.000 S 
ATOM     18  O   UNL     1      -5.047  14.019  19.929  0.00  0.00    +0.000 OA
ATOM     19  O   UNL     1      -5.730  11.595  19.982  0.00  0.00    +0.000 OA
BRANCH  17  20
ATOM     20  N   UNL     1      -4.597  12.576  22.013  0.00  0.00    +0.000 N 
ATOM     21  H   UNL     1      -3.776  12.010  22.240  0.00  0.00    +0.000 HD
BRANCH  20  22
ATOM     22  C   UNL     1      -4.674  13.814  22.722  0.00  0.00    +0.000 A 
ATOM     23  C   UNL     1      -3.505  14.466  23.109  0.00  0.00    +0.000 A 
ATOM     24  C   UNL     1      -3.578  15.626  23.887  0.00  0.00    +0.000 A 
ATOM     25  C   UNL     1      -4.821  16.126  24.305  0.00  0.00    +0.000 A 
ATOM     26  C   UNL     1      -4.909  17.350  25.167  0.00  0.00    +0.000 C 
ATOM     27  C   UNL     1      -5.991  15.466  23.910  0.00  0.00    +0.000 A 
ATOM     28  C   UNL     1      -5.910  14.325  23.122  0.00  0.00    +0.000 A 
ATOM     29  F   UNL     1      -7.038  13.690  22.766  0.00  0.00    +0.000 F 
ENDBRANCH  20  22
ENDBRANCH  17  20
ENDBRANCH   6  17
BRANCH   1  31
ATOM     30  C   UNL     1      -0.594   9.479  23.256  0.00  0.00    +0.000 C 
ATOM     31  C   UNL     1       0.744   9.620  22.556  0.00  0.00    +0.000 C 
ENDBRANCH   1  31
TORSDOF 4
ENDMDL
MODEL 9
REMARK VINA RESULT:      -7.3      3.018      8.639
REMARK  Name = 
REMARK  6 active torsions:
REMARK  status: ('A' for Active; 'I' for Inactive)
REMARK    1  A    between atoms: C_1  and  C_2
REMARK    2  A    between atoms: C_2  and  N_3
REMARK    3  A    between atoms: C_8  and  S_9
REMARK    4  A    between atoms: S_9  and  N_12
REMARK    5  A    between atoms: N_12  and  C_13
REMARK    6  A    between atoms: C_16  and  C_17
REMARK                            x       y       z     vdW  Elec       q    Type
REMARK                         _______ _______ _______ _____ _____    ______ ____
ROOT
ATOM      1  N   UNL     1       1.938   4.654  19.754  0.00  0.00    +0.000 N 
ATOM      2  C   UNL     1       2.238   5.841  20.400  0.00  0.00    +0.000 C 
ATOM      3  O   UNL     1       2.155   6.012  21.614  0.00  0.00    +0.000 OA
ATOM      4  C   UNL     1       2.320   7.030  19.550  0.00  0.00    +0.000 A 
ATOM      5  C   UNL     1       1.439   8.075  19.846  0.00  0.00    +0.000 A 
ATOM      6  C   UNL     1       1.370   9.175  18.994  0.00  0.00    +0.000 A 
ATOM      7  C   UNL     1       2.181   9.241  17.856  0.00  0.00    +0.000 A 
ATOM      8  C   UNL     1       3.088   8.204  17.595  0.00  0.00    +0.000 A 
ATOM      9  C   UNL     1       3.140   7.086  18.436  0.00  0.00    +0.000 A 
ATOM     10  O   UNL     1       4.073   6.121  18.182  0.00  0.00    +0.000 OA
ATOM     11  C   UNL     1       3.595   4.865  17.904  0.00  0.00    +0.000 A 
ATOM     12  C   UNL     1       4.268   4.224  16.852  0.00  0.00    +0.000 A 
ATOM     13  C   UNL     1       3.895   2.947  16.459  0.00  0.00    +0.000 A 
ATOM     14  C   UNL     1       2.851   2.352  17.133  0.00  0.00    +0.000 A 
ATOM     15  N   UNL     1       2.196   2.935  18.160  0.00  0.00    +0.000 NA
ATOM     16  C   UNL     1       2.573   4.176  18.572  0.00  0.00    +0.000 A 
ENDROOT
BRANCH   6  17
ATOM     17  S   UNL     1       0.154  10.439  19.330  0.00  0.00    +0.000 S 
ATOM     18  O   UNL     1      -0.826   9.868  20.230  0.00  0.00    +0.000 OA
ATOM     19  O   UNL     1       0.879  11.640  19.684  0.00  0.00    +0.000 OA
BRANCH  17  20
ATOM     20  N   UNL     1      -0.557  10.728  17.819  0.00  0.00    +0.000 N 
ATOM     21  H   UNL     1      -0.246  10.023  17.146  0.00  0.00    +0.000 HD
BRANCH  20  22
ATOM     22  C   UNL     1      -1.965  10.972  17.810  0.00  0.00    +0.000 A 
ATOM     23  C   UNL     1      -2.530  11.808  18.770  0.00  0.00    +0.000 A 
ATOM     24  C   UNL     1      -3.918  11.971  18.823  0.00  0.00    +0.000 A 
ATOM     25  C   UNL     1      -4.751  11.276  17.934  0.00  0.00    +0.000 A 
ATOM     26  C   UNL     1      -6.243  11.417  18.004  0.00  0.00    +0.000 C 
ATOM     27  C   UNL     1      -4.175  10.437  16.971  0.00  0.00    +0.000 A 
ATOM     28  C   UNL     1      -2.795  10.296  16.914  0.00  0.00    +0.000 A 
ATOM     29  F   UNL     1      -2.256   9.475  15.999  0.00  0.00    +0.000 F 
ENDBRANCH  20  22
ENDBRANCH  17  20
ENDBRANCH   6  17
BRANCH   1  31
ATOM     30  C   UNL     1       1.341   2.853  21.388  0.00  0.00    +0.000 C 
ATOM     31  C   UNL     1       0.871   3.854  20.350  0.00  0.00    +0.000 C 
ENDBRANCH   1  31
TORSDOF 4
ENDMDL
