MODEL 1
REMARK VINA RESULT:      -7.2      0.000      0.000
REMARK  Name = 
REMARK  4 active torsions:
REMARK  status: ('A' for Active; 'I' for Inactive)
REMARK    1  A    between atoms: C_2  and  C_12
REMARK    2  A    between atoms: N_3  and  C_4
REMARK    3  A    between atoms: C_4  and  C_5
REMARK    4  A    between atoms: C_9  and  O_10
REMARK                            x       y       z     vdW  Elec       q    Type
REMARK                         _______ _______ _______ _____ _____    ______ ____
ROOT
ATOM      1  O   UNL     1       2.197   7.586  17.560  0.00  0.00    +0.000 OA
ATOM      2  C   UNL     1       2.455   7.436  18.758  0.00  0.00    +0.000 C 
ATOM      3  N   UNL     1       1.942   8.274  19.717  0.00  0.00    +0.000 N 
ATOM      4  H   UNL     1       2.274   8.162  20.669  0.00  0.00    +0.000 HD
ENDROOT
BRANCH   2   5
ATOM      5  C   UNL     1       3.349   6.266  19.234  0.00  0.00    +0.000 C 
ATOM      6  N   UNL     1       4.509   6.150  18.311  0.00  0.00    +0.000 NA
ATOM      7  C   UNL     1       5.457   5.140  18.783  0.00  0.00    +0.000 C 
ATOM      8  C   UNL     1       4.802   3.764  18.880  0.00  0.00    +0.000 C 
ATOM      9  C   UNL     1       3.595   3.816  19.819  0.00  0.00    +0.000 C 
ATOM     10  C   UNL     1       2.897   2.453  19.922  0.00  0.00    +0.000 C 
ATOM     11  C   UNL     1       1.689   2.529  20.855  0.00  0.00    +0.000 C 
ATOM     12  C   UNL     1       0.719   3.618  20.411  0.00  0.00    +0.000 C 
ATOM     13  C   UNL     1       1.415   4.975  20.322  0.00  0.00    +0.000 C 
ATOM     14  C   UNL     1       2.609   4.918  19.351  0.00  0.00    +0.000 C 
ATOM     15  H   UNL     1       4.982   7.056  18.296  0.00  0.00    +0.000 HD
ENDBRANCH   2   5
BRANCH   3  16
ATOM     16  C   UNL     1       1.034   9.350  19.369  0.00  0.00    +0.000 C 
BRANCH  16  17
ATOM     17  C   UNL     1       0.302   9.869  20.570  0.00  0.00    +0.000 A 
ATOM     18  C   UNL     1      -0.575  10.946  20.460  0.00  0.00    +0.000 A 
ATOM     19  N   UNL     1      -1.224  11.510  21.508  0.00  0.00    +0.000 NA
ATOM     20  C   UNL     1      -0.983  10.977  22.726  0.00  0.00    +0.000 A 
ATOM     21  C   UNL     1      -0.144   9.892  22.934  0.00  0.00    +0.000 A 
ATOM     22  C   UNL     1       0.506   9.331  21.844  0.00  0.00    +0.000 A 
BRANCH  21  23
ATOM     23  O   UNL     1       0.080   9.355  24.165  0.00  0.00    +0.000 OA
ATOM     24  H   UNL     1       0.304   8.413  24.062  0.00  0.00    +0.000 HD
ENDBRANCH  21  23
ENDBRANCH  16  17
ENDBRANCH   3  16
TORSDOF 4
ENDMDL
MODEL 2
REMARK VINA RESULT:      -7.2      4.595      8.357
REMARK  Name = 
REMARK  4 active torsions:
REMARK  status: ('A' for Active; 'I' for Inactive)
REMARK    1  A    between atoms: C_2  and  C_12
REMARK    2  A    between atoms: N_3  and  C_4
REMARK    3  A    between atoms: C_4  and  C_5
REMARK    4  A    between atoms: C_9  and  O_10
REMARK                            x       y       z     vdW  Elec       q    Type
REMARK                         _______ _______ _______ _____ _____    ______ ____
ROOT
ATOM      1  O   UNL     1       6.425   5.144  18.689  0.00  0.00    +0.000 OA
ATOM      2  C   UNL     1       5.721   4.398  18.002  0.00  0.00    +0.000 C 
ATOM      3  N   UNL     1       5.893   4.294  16.644  0.00  0.00    +0.000 N 
ATOM      4  H   UNL     1       5.218   3.745  16.122  0.00  0.00    +0.000 HD
ENDROOT
BRANCH   2   5
ATOM      5  C   UNL     1       4.630   3.515  18.655  0.00  0.00    +0.000 C 
ATOM      6  N   UNL     1       4.392   2.334  17.783  0.00  0.00    +0.000 NA
ATOM      7  C   UNL     1       3.459   1.398  18.411  0.00  0.00    +0.000 C 
ATOM      8  C   UNL     1       2.108   2.056  18.682  0.00  0.00    +0.000 C 
ATOM      9  C   UNL     1       2.286   3.284  19.578  0.00  0.00    +0.000 C 
ATOM     10  C   UNL     1       0.948   3.984  19.852  0.00  0.00    +0.000 C 
ATOM     11  C   UNL     1       1.149   5.212  20.738  0.00  0.00    +0.000 C 
ATOM     12  C   UNL     1       2.164   6.172  20.127  0.00  0.00    +0.000 C 
ATOM     13  C   UNL     1       3.497   5.473  19.867  0.00  0.00    +0.000 C 
ATOM     14  C   UNL     1       3.310   4.258  18.941  0.00  0.00    +0.000 C 
ATOM     15  H   UNL     1       5.288   1.861  17.654  0.00  0.00    +0.000 HD
ENDBRANCH   2   5
BRANCH   3  16
ATOM     16  C   UNL     1       6.941   5.026  15.959  0.00  0.00    +0.000 C 
BRANCH  16  17
ATOM     17  C   UNL     1       6.994   4.686  14.500  0.00  0.00    +0.000 A 
ATOM     18  C   UNL     1       7.785   5.427  13.623  0.00  0.00    +0.000 A 
ATOM     19  N   UNL     1       7.837   5.220  12.285  0.00  0.00    +0.000 NA
ATOM     20  C   UNL     1       7.058   4.231  11.796  0.00  0.00    +0.000 A 
ATOM     21  C   UNL     1       6.254   3.426  12.589  0.00  0.00    +0.000 A 
ATOM     22  C   UNL     1       6.222   3.656  13.957  0.00  0.00    +0.000 A 
BRANCH  21  23
ATOM     23  O   UNL     1       5.485   2.422  12.086  0.00  0.00    +0.000 OA
ATOM     24  H   UNL     1       6.014   1.904  11.455  0.00  0.00    +0.000 HD
ENDBRANCH  21  23
ENDBRANCH  16  17
ENDBRANCH   3  16
TORSDOF 4
ENDMDL
MODEL 3
REMARK VINA RESULT:      -7.2      2.395      7.092
REMARK  Name = 
REMARK  4 active torsions:
REMARK  status: ('A' for Active; 'I' for Inactive)
REMARK    1  A    between atoms: C_2  and  C_12
REMARK    2  A    between atoms: N_3  and  C_4
REMARK    3  A    between atoms: C_4  and  C_5
REMARK    4  A    between atoms: C_9  and  O_10
REMARK                            x       y       z     vdW  Elec       q    Type
REMARK                         _______ _______ _______ _____ _____    ______ ____
ROOT
ATOM      1  O   UNL     1       2.492  10.326  17.586  0.00  0.00    +0.000 OA
ATOM      2  C   UNL     1       1.726   9.503  18.096  0.00  0.00    +0.000 C 
ATOM      3  N   UNL     1       2.017   8.162  18.114  0.00  0.00    +0.000 N 
ATOM      4  H   UNL     1       1.302   7.527  18.454  0.00  0.00    +0.000 HD
ENDROOT
BRANCH   2   5
ATOM      5  C   UNL     1       0.411   9.960  18.772  0.00  0.00    +0.000 C 
ATOM      6  N   UNL     1      -0.071  11.188  18.088  0.00  0.00    +0.000 NA
ATOM      7  C   UNL     1      -1.380  11.597  18.603  0.00  0.00    +0.000 C 
ATOM      8  C   UNL     1      -1.322  11.891  20.100  0.00  0.00    +0.000 C 
ATOM      9  C   UNL     1      -0.829  10.660  20.864  0.00  0.00    +0.000 C 
ATOM     10  C   UNL     1      -0.737  10.928  22.372  0.00  0.00    +0.000 C 
ATOM     11  C   UNL     1      -0.233   9.691  23.114  0.00  0.00    +0.000 C 
ATOM     12  C   UNL     1       1.102   9.217  22.551  0.00  0.00    +0.000 C 
ATOM     13  C   UNL     1       1.001   8.940  21.053  0.00  0.00    +0.000 C 
ATOM     14  C   UNL     1       0.534  10.194  20.292  0.00  0.00    +0.000 C 
ATOM     15  H   UNL     1      -0.168  10.970  17.094  0.00  0.00    +0.000 HD
ENDBRANCH   2   5
BRANCH   3  16
ATOM     16  C   UNL     1       3.263   7.654  17.572  0.00  0.00    +0.000 C 
BRANCH  16  17
ATOM     17  C   UNL     1       3.509   6.233  17.984  0.00  0.00    +0.000 A 
ATOM     18  C   UNL     1       2.452   5.403  18.352  0.00  0.00    +0.000 A 
ATOM     19  N   UNL     1       2.601   4.130  18.793  0.00  0.00    +0.000 NA
ATOM     20  C   UNL     1       3.866   3.665  18.878  0.00  0.00    +0.000 A 
ATOM     21  C   UNL     1       4.981   4.406  18.516  0.00  0.00    +0.000 A 
ATOM     22  C   UNL     1       4.801   5.705  18.063  0.00  0.00    +0.000 A 
BRANCH  21  23
ATOM     23  O   UNL     1       6.251   3.920  18.593  0.00  0.00    +0.000 OA
ATOM     24  H   UNL     1       6.480   3.502  17.745  0.00  0.00    +0.000 HD
ENDBRANCH  21  23
ENDBRANCH  16  17
ENDBRANCH   3  16
TORSDOF 4
ENDMDL
MODEL 4
REMARK VINA RESULT:      -7.1      2.549      4.452
REMARK  Name = 
REMARK  4 active torsions:
REMARK  status: ('A' for Active; 'I' for Inactive)
REMARK    1  A    between atoms: C_2  and  C_12
REMARK    2  A    between atoms: N_3  and  C_4
REMARK    3  A    between atoms: C_4  and  C_5
REMARK    4  A    between atoms: C_9  and  O_10
REMARK                            x       y       z     vdW  Elec       q    Type
REMARK                         _______ _______ _______ _____ _____    ______ ____
ROOT
ATOM      1  O   UNL     1       3.315   3.713  19.793  0.00  0.00    +0.000 OA
ATOM      2  C   UNL     1       3.998   4.701  19.507  0.00  0.00    +0.000 C 
ATOM      3  N   UNL     1       3.526   5.978  19.680  0.00  0.00    +0.000 N 
ATOM      4  H   UNL     1       4.092   6.744  19.330  0.00  0.00    +0.000 HD
ENDROOT
BRANCH   2   5
ATOM      5  C   UNL     1       5.439   4.538  18.967  0.00  0.00    +0.000 C 
ATOM      6  N   UNL     1       6.343   5.414  19.759  0.00  0.00    +0.000 NA
ATOM      7  C   UNL     1       7.741   5.208  19.376  0.00  0.00    +0.000 C 
ATOM      8  C   UNL     1       7.966   5.522  17.899  0.00  0.00    +0.000 C 
ATOM      9  C   UNL     1       7.060   4.650  17.027  0.00  0.00    +0.000 C 
ATOM     10  C   UNL     1       7.244   4.956  15.535  0.00  0.00    +0.000 C 
ATOM     11  C   UNL     1       6.323   4.083  14.683  0.00  0.00    +0.000 C 
ATOM     12  C   UNL     1       4.868   4.241  15.108  0.00  0.00    +0.000 C 
ATOM     13  C   UNL     1       4.688   3.923  16.591  0.00  0.00    +0.000 C 
ATOM     14  C   UNL     1       5.581   4.827  17.459  0.00  0.00    +0.000 C 
ATOM     15  H   UNL     1       6.236   5.159  20.742  0.00  0.00    +0.000 HD
ENDBRANCH   2   5
BRANCH   3  16
ATOM     16  C   UNL     1       2.216   6.225  20.253  0.00  0.00    +0.000 C 
BRANCH  16  17
ATOM     17  C   UNL     1       1.764   7.636  20.017  0.00  0.00    +0.000 A 
ATOM     18  C   UNL     1       1.055   8.330  20.994  0.00  0.00    +0.000 A 
ATOM     19  N   UNL     1       0.560   9.582  20.832  0.00  0.00    +0.000 NA
ATOM     20  C   UNL     1       0.779  10.167  19.634  0.00  0.00    +0.000 A 
ATOM     21  C   UNL     1       1.490   9.565  18.606  0.00  0.00    +0.000 A 
ATOM     22  C   UNL     1       1.989   8.286  18.799  0.00  0.00    +0.000 A 
BRANCH  21  23
ATOM     23  O   UNL     1       1.715  10.171  17.408  0.00  0.00    +0.000 OA
ATOM     24  H   UNL     1       1.088   9.819  16.753  0.00  0.00    +0.000 HD
ENDBRANCH  21  23
ENDBRANCH  16  17
ENDBRANCH   3  16
TORSDOF 4
ENDMDL
MODEL 5
REMARK VINA RESULT:      -7.1      4.007      8.191
REMARK  Name = 
REMARK  4 active torsions:
REMARK  status: ('A' for Active; 'I' for Inactive)
REMARK    1  A    between atoms: C_2  and  C_12
REMARK    2  A    between atoms: N_3  and  C_4
REMARK    3  A    between atoms: C_4  and  C_5
REMARK    4  A    between atoms: C_9  and  O_10
REMARK                            x       y       z     vdW  Elec       q    Type
REMARK                         _______ _______ _______ _____ _____    ______ ____
ROOT
ATOM      1  O   UNL     1       6.094   4.321  18.596  0.00  0.00    +0.000 OA
ATOM      2  C   UNL     1       5.339   4.952  17.850  0.00  0.00    +0.000 C 
ATOM      3  N   UNL     1       5.730   5.345  16.593  0.00  0.00    +0.000 N 
ATOM      4  H   UNL     1       5.104   5.949  16.070  0.00  0.00    +0.000 HD
ENDROOT
BRANCH   2   5
ATOM      5  C   UNL     1       3.897   5.300  18.292  0.00  0.00    +0.000 C 
ATOM      6  N   UNL     1       3.963   6.370  19.322  0.00  0.00    +0.000 NA
ATOM      7  C   UNL     1       2.622   6.829  19.689  0.00  0.00    +0.000 C 
ATOM      8  C   UNL     1       1.779   5.690  20.255  0.00  0.00    +0.000 C 
ATOM      9  C   UNL     1       1.673   4.551  19.239  0.00  0.00    +0.000 C 
ATOM     10  C   UNL     1       0.850   3.377  19.786  0.00  0.00    +0.000 C 
ATOM     11  C   UNL     1       0.766   2.247  18.760  0.00  0.00    +0.000 C 
ATOM     12  C   UNL     1       2.155   1.797  18.323  0.00  0.00    +0.000 C 
ATOM     13  C   UNL     1       2.966   2.966  17.768  0.00  0.00    +0.000 C 
ATOM     14  C   UNL     1       3.091   4.092  18.811  0.00  0.00    +0.000 C 
ATOM     15  H   UNL     1       4.475   7.156  18.917  0.00  0.00    +0.000 HD
ENDBRANCH   2   5
BRANCH   3  16
ATOM     16  C   UNL     1       7.036   4.995  16.068  0.00  0.00    +0.000 C 
BRANCH  16  17
ATOM     17  C   UNL     1       6.980   4.691  14.600  0.00  0.00    +0.000 A 
ATOM     18  C   UNL     1       7.829   5.337  13.705  0.00  0.00    +0.000 A 
ATOM     19  N   UNL     1       7.797   5.161  12.361  0.00  0.00    +0.000 NA
ATOM     20  C   UNL     1       6.868   4.303  11.887  0.00  0.00    +0.000 A 
ATOM     21  C   UNL     1       5.992   3.597  12.699  0.00  0.00    +0.000 A 
ATOM     22  C   UNL     1       6.049   3.792  14.071  0.00  0.00    +0.000 A 
BRANCH  21  23
ATOM     23  O   UNL     1       5.070   2.723  12.210  0.00  0.00    +0.000 OA
ATOM     24  H   UNL     1       5.054   1.932  12.776  0.00  0.00    +0.000 HD
ENDBRANCH  21  23
ENDBRANCH  16  17
ENDBRANCH   3  16
TORSDOF 4
ENDMDL
MODEL 6
REMARK VINA RESULT:      -7.0      2.333      7.088
REMARK  Name = 
REMARK  4 active torsions:
REMARK  status: ('A' for Active; 'I' for Inactive)
REMARK    1  A    between atoms: C_2  and  C_12
REMARK    2  A    between atoms: N_3  and  C_4
REMARK    3  A    between atoms: C_4  and  C_5
REMARK    4  A    between atoms: C_9  and  O_10
REMARK                            x       y       z     vdW  Elec       q    Type
REMARK                         _______ _______ _______ _____ _____    ______ ____
ROOT
ATOM      1  O   UNL     1       2.527   9.981  17.519  0.00  0.00    +0.000 OA
ATOM      2  C   UNL     1       1.739   9.254  18.131  0.00  0.00    +0.000 C 
ATOM      3  N   UNL     1       1.978   7.913  18.301  0.00  0.00    +0.000 N 
ATOM      4  H   UNL     1       1.245   7.351  18.721  0.00  0.00    +0.000 HD
ENDROOT
BRANCH   2   5
ATOM      5  C   UNL     1       0.454   9.838  18.767  0.00  0.00    +0.000 C 
ATOM      6  N   UNL     1       0.083  11.077  18.032  0.00  0.00    +0.000 NA
ATOM      7  C   UNL     1      -1.196  11.606  18.508  0.00  0.00    +0.000 C 
ATOM      8  C   UNL     1      -1.138  11.947  19.994  0.00  0.00    +0.000 C 
ATOM      9  C   UNL     1      -0.759  10.709  20.810  0.00  0.00    +0.000 C 
ATOM     10  C   UNL     1      -0.669  11.022  22.309  0.00  0.00    +0.000 C 
ATOM     11  C   UNL     1      -0.279   9.776  23.102  0.00  0.00    +0.000 C 
ATOM     12  C   UNL     1       1.022   9.177  22.581  0.00  0.00    +0.000 C 
ATOM     13  C   UNL     1       0.923   8.856  21.091  0.00  0.00    +0.000 C 
ATOM     14  C   UNL     1       0.572  10.115  20.279  0.00  0.00    +0.000 C 
ATOM     15  H   UNL     1      -0.015  10.831  17.044  0.00  0.00    +0.000 HD
ENDBRANCH   2   5
BRANCH   3  16
ATOM     16  C   UNL     1       3.194   7.297  17.806  0.00  0.00    +0.000 C 
BRANCH  16  17
ATOM     17  C   UNL     1       3.256   5.838  18.148  0.00  0.00    +0.000 A 
ATOM     18  C   UNL     1       4.437   5.264  18.613  0.00  0.00    +0.000 A 
ATOM     19  N   UNL     1       4.588   3.944  18.883  0.00  0.00    +0.000 NA
ATOM     20  C   UNL     1       3.510   3.158  18.673  0.00  0.00    +0.000 A 
ATOM     21  C   UNL     1       2.286   3.638  18.232  0.00  0.00    +0.000 A 
ATOM     22  C   UNL     1       2.157   4.993  17.967  0.00  0.00    +0.000 A 
BRANCH  21  23
ATOM     23  O   UNL     1       1.202   2.837  18.038  0.00  0.00    +0.000 OA
ATOM     24  H   UNL     1       1.487   2.024  17.587  0.00  0.00    +0.000 HD
ENDBRANCH  21  23
ENDBRANCH  16  17
ENDBRANCH   3  16
TORSDOF 4
ENDMDL
MODEL 7
REMARK VINA RESULT:      -6.9      2.403      7.086
REMARK  Name = 
REMARK  4 active torsions:
REMARK  status: ('A' for Active; 'I' for Inactive)
REMARK    1  A    between atoms: C_2  and  C_12
REMARK    2  A    between atoms: N_3  and  C_4
REMARK    3  A    between atoms: C_4  and  C_5
REMARK    4  A    between atoms: C_9  and  O_10
REMARK                            x       y       z     vdW  Elec       q    Type
REMARK                         _______ _______ _______ _____ _____    ______ ____
ROOT
ATOM      1  O   UNL     1       3.003   9.219  17.871  0.00  0.00    +0.000 OA
ATOM      2  C   UNL     1       2.064   8.514  18.252  0.00  0.00    +0.000 C 
ATOM      3  N   UNL     1       2.152   7.144  18.270  0.00  0.00    +0.000 N 
ATOM      4  H   UNL     1       1.313   6.619  18.494  0.00  0.00    +0.000 HD
ENDROOT
BRANCH   2   5
ATOM      5  C   UNL     1       0.750   9.154  18.763  0.00  0.00    +0.000 C 
ATOM      6  N   UNL     1       0.365  10.249  17.833  0.00  0.00    +0.000 NA
ATOM      7  C   UNL     1      -0.938  10.810  18.195  0.00  0.00    +0.000 C 
ATOM      8  C   UNL     1      -0.924  11.384  19.609  0.00  0.00    +0.000 C 
ATOM      9  C   UNL     1      -0.532  10.302  20.618  0.00  0.00    +0.000 C 
ATOM     10  C   UNL     1      -0.485  10.851  22.050  0.00  0.00    +0.000 C 
ATOM     11  C   UNL     1      -0.081   9.758  23.039  0.00  0.00    +0.000 C 
ATOM     12  C   UNL     1       1.247   9.122  22.643  0.00  0.00    +0.000 C 
ATOM     13  C   UNL     1       1.191   8.566  21.222  0.00  0.00    +0.000 C 
ATOM     14  C   UNL     1       0.826   9.670  20.214  0.00  0.00    +0.000 C 
ATOM     15  H   UNL     1       0.296   9.848  16.896  0.00  0.00    +0.000 HD
ENDBRANCH   2   5
BRANCH   3  16
ATOM     16  C   UNL     1       3.372   6.463  17.882  0.00  0.00    +0.000 C 
BRANCH  16  17
ATOM     17  C   UNL     1       3.258   4.978  18.054  0.00  0.00    +0.000 A 
ATOM     18  C   UNL     1       2.149   4.287  17.571  0.00  0.00    +0.000 A 
ATOM     19  N   UNL     1       1.945   2.958  17.741  0.00  0.00    +0.000 NA
ATOM     20  C   UNL     1       2.891   2.286  18.434  0.00  0.00    +0.000 A 
ATOM     21  C   UNL     1       4.039   2.880  18.937  0.00  0.00    +0.000 A 
ATOM     22  C   UNL     1       4.225   4.242  18.745  0.00  0.00    +0.000 A 
BRANCH  21  23
ATOM     23  O   UNL     1       4.992   2.190  19.621  0.00  0.00    +0.000 OA
ATOM     24  H   UNL     1       5.793   2.738  19.686  0.00  0.00    +0.000 HD
ENDBRANCH  21  23
ENDBRANCH  16  17
ENDBRANCH   3  16
TORSDOF 4
ENDMDL
MODEL 8
REMARK VINA RESULT:      -6.9      1.162      1.422
REMARK  Name = 
REMARK  4 active torsions:
REMARK  status: ('A' for Active; 'I' for Inactive)
REMARK    1  A    between atoms: C_2  and  C_12
REMARK    2  A    between atoms: N_3  and  C_4
REMARK    3  A    between atoms: C_4  and  C_5
REMARK    4  A    between atoms: C_9  and  O_10
REMARK                            x       y       z     vdW  Elec       q    Type
REMARK                         _______ _______ _______ _____ _____    ______ ____
ROOT
ATOM      1  O   UNL     1       2.403   7.782  17.651  0.00  0.00    +0.000 OA
ATOM      2  C   UNL     1       2.538   7.467  18.837  0.00  0.00    +0.000 C 
ATOM      3  N   UNL     1       1.908   8.158  19.843  0.00  0.00    +0.000 N 
ATOM      4  H   UNL     1       2.141   7.916  20.800  0.00  0.00    +0.000 HD
ENDROOT
BRANCH   2   5
ATOM      5  C   UNL     1       3.403   6.249  19.238  0.00  0.00    +0.000 C 
ATOM      6  N   UNL     1       4.537   6.138  18.283  0.00  0.00    +0.000 NA
ATOM      7  C   UNL     1       5.462   5.078  18.686  0.00  0.00    +0.000 C 
ATOM      8  C   UNL     1       4.765   3.721  18.739  0.00  0.00    +0.000 C 
ATOM      9  C   UNL     1       3.582   3.768  19.708  0.00  0.00    +0.000 C 
ATOM     10  C   UNL     1       2.843   2.425  19.769  0.00  0.00    +0.000 C 
ATOM     11  C   UNL     1       1.660   2.498  20.733  0.00  0.00    +0.000 C 
ATOM     12  C   UNL     1       0.716   3.636  20.362  0.00  0.00    +0.000 C 
ATOM     13  C   UNL     1       1.454   4.972  20.316  0.00  0.00    +0.000 C 
ATOM     14  C   UNL     1       2.622   4.921  19.315  0.00  0.00    +0.000 C 
ATOM     15  H   UNL     1       5.039   7.028  18.296  0.00  0.00    +0.000 HD
ENDBRANCH   2   5
BRANCH   3  16
ATOM     16  C   UNL     1       1.017   9.265  19.553  0.00  0.00    +0.000 C 
BRANCH  16  17
ATOM     17  C   UNL     1       0.413   9.834  20.802  0.00  0.00    +0.000 A 
ATOM     18  C   UNL     1       0.791   9.360  22.056  0.00  0.00    +0.000 A 
ATOM     19  N   UNL     1       0.248   9.780  23.225  0.00  0.00    +0.000 NA
ATOM     20  C   UNL     1      -0.725  10.714  23.137  0.00  0.00    +0.000 A 
ATOM     21  C   UNL     1      -1.156  11.261  21.938  0.00  0.00    +0.000 A 
ATOM     22  C   UNL     1      -0.580  10.817  20.756  0.00  0.00    +0.000 A 
BRANCH  21  23
ATOM     23  O   UNL     1      -2.127  12.212  21.863  0.00  0.00    +0.000 OA
ATOM     24  H   UNL     1      -2.933  11.811  21.494  0.00  0.00    +0.000 HD
ENDBRANCH  21  23
ENDBRANCH  16  17
ENDBRANCH   3  16
TORSDOF 4
ENDMDL
MODEL 9
REMARK VINA RESULT:      -6.9      3.556      7.683
REMARK  Name = 
REMARK  4 active torsions:
REMARK  status: ('A' for Active; 'I' for Inactive)
REMARK    1  A    between atoms: C_2  and  C_12
REMARK    2  A    between atoms: N_3  and  C_4
REMARK    3  A    between atoms: C_4  and  C_5
REMARK    4  A    between atoms: C_9  and  O_10
REMARK                            x       y       z     vdW  Elec       q    Type
REMARK                         _______ _______ _______ _____ _____    ______ ____
ROOT
ATOM      1  O   UNL     1       4.880   6.998  17.284  0.00  0.00    +0.000 OA
ATOM      2  C   UNL     1       4.543   5.962  17.866  0.00  0.00    +0.000 C 
ATOM      3  N   UNL     1       5.372   4.869  17.928  0.00  0.00    +0.000 N 
ATOM      4  H   UNL     1       4.999   4.015  18.330  0.00  0.00    +0.000 HD
ENDROOT
BRANCH   2   5
ATOM      5  C   UNL     1       3.176   5.866  18.585  0.00  0.00    +0.000 C 
ATOM      6  N   UNL     1       3.243   6.665  19.837  0.00  0.00    +0.000 NA
ATOM      7  C   UNL     1       1.937   6.714  20.498  0.00  0.00    +0.000 C 
ATOM      8  C   UNL     1       1.445   5.317  20.863  0.00  0.00    +0.000 C 
ATOM      9  C   UNL     1       1.355   4.441  19.612  0.00  0.00    +0.000 C 
ATOM     10  C   UNL     1       0.884   3.019  19.946  0.00  0.00    +0.000 C 
ATOM     11  C   UNL     1       0.812   2.159  18.686  0.00  0.00    +0.000 C 
ATOM     12  C   UNL     1       2.149   2.144  17.952  0.00  0.00    +0.000 C 
ATOM     13  C   UNL     1       2.607   3.561  17.611  0.00  0.00    +0.000 C 
ATOM     14  C   UNL     1       2.723   4.422  18.881  0.00  0.00    +0.000 C 
ATOM     15  H   UNL     1       3.513   7.617  19.582  0.00  0.00    +0.000 HD
ENDBRANCH   2   5
BRANCH   3  16
ATOM     16  C   UNL     1       6.701   4.898  17.349  0.00  0.00    +0.000 C 
BRANCH  16  17
ATOM     17  C   UNL     1       6.666   4.675  15.867  0.00  0.00    +0.000 A 
ATOM     18  C   UNL     1       5.835   3.704  15.311  0.00  0.00    +0.000 A 
ATOM     19  N   UNL     1       5.793   3.403  13.990  0.00  0.00    +0.000 NA
ATOM     20  C   UNL     1       6.626   4.099  13.185  0.00  0.00    +0.000 A 
ATOM     21  C   UNL     1       7.474   5.097  13.640  0.00  0.00    +0.000 A 
ATOM     22  C   UNL     1       7.495   5.389  14.996  0.00  0.00    +0.000 A 
BRANCH  21  23
ATOM     23  O   UNL     1       8.298   5.802  12.817  0.00  0.00    +0.000 OA
ATOM     24  H   UNL     1       8.022   6.735  12.817  0.00  0.00    +0.000 HD
ENDBRANCH  21  23
ENDBRANCH  16  17
ENDBRANCH   3  16
TORSDOF 4
ENDMDL
