MODEL 1
REMARK VINA RESULT:      -9.8      0.000      0.000
REMARK  Name = 
REMARK  5 active torsions:
REMARK  status: ('A' for Active; 'I' for Inactive)
REMARK    1  A    between atoms: C_1  and  C_2
REMARK    2  A    between atoms: C_2  and  C_4
REMARK    3  A    between atoms: C_8  and  C_9
REMARK    4  A    between atoms: C_11  and  N_12
REMARK    5  A    between atoms: N_12  and  C_13
REMARK                            x       y       z     vdW  Elec       q    Type
REMARK                         _______ _______ _______ _____ _____    ______ ____
ROOT
ATOM      1  C   UNL     1       6.185   4.764  16.104  0.00  0.00    +0.000 A 
ATOM      2  C   UNL     1       4.930   5.107  16.467  0.00  0.00    +0.000 A 
ATOM      3  C   UNL     1       4.510   5.176  17.859  0.00  0.00    +0.000 A 
ATOM      4  C   UNL     1       5.449   4.944  18.800  0.00  0.00    +0.000 A 
ATOM      5  N   UNL     1       6.737   4.627  18.471  0.00  0.00    +0.000 N 
ATOM      6  C   UNL     1       7.196   4.503  17.180  0.00  0.00    +0.000 A 
ATOM      7  O   UNL     1       8.356   4.182  16.939  0.00  0.00    +0.000 OA
ATOM      8  H   UNL     1       7.418   4.449  19.201  0.00  0.00    +0.000 HD
ENDROOT
BRANCH   1  13
ATOM      9  C   UNL     1       6.056   3.561  12.534  0.00  0.00    +0.000 A 
ATOM     10  C   UNL     1       7.101   4.299  11.963  0.00  0.00    +0.000 A 
ATOM     11  C   UNL     1       7.855   5.175  12.744  0.00  0.00    +0.000 A 
ATOM     12  C   UNL     1       7.569   5.325  14.104  0.00  0.00    +0.000 A 
ATOM     13  C   UNL     1       6.526   4.599  14.687  0.00  0.00    +0.000 A 
ATOM     14  C   UNL     1       5.774   3.714  13.900  0.00  0.00    +0.000 A 
BRANCH   9  16
ATOM     15  C   UNL     1       3.955   3.125  11.097  0.00  0.00    +0.000 C 
ATOM     16  C   UNL     1       5.265   2.645  11.663  0.00  0.00    +0.000 C 
ATOM     17  O   UNL     1       5.697   1.518  11.398  0.00  0.00    +0.000 OA
ENDBRANCH   9  16
ENDBRANCH   1  13
BRANCH   3  18
ATOM     18  N   UNL     1       3.200   5.487  18.146  0.00  0.00    +0.000 N 
ATOM     19  H   UNL     1       2.797   6.238  17.590  0.00  0.00    +0.000 HD
BRANCH  18  20
ATOM     20  C   UNL     1       2.246   4.646  18.764  0.00  0.00    +0.000 A 
ATOM     21  C   UNL     1       1.593   3.606  18.085  0.00  0.00    +0.000 A 
ATOM     22  C   UNL     1       0.723   2.736  18.747  0.00  0.00    +0.000 A 
ATOM     23  C   UNL     1       0.487   2.890  20.110  0.00  0.00    +0.000 A 
ATOM     24  C   UNL     1       1.117   3.920  20.803  0.00  0.00    +0.000 A 
ATOM     25  C   UNL     1       1.993   4.787  20.136  0.00  0.00    +0.000 A 
ENDBRANCH  18  20
ENDBRANCH   3  18
TORSDOF 4
ENDMDL
MODEL 2
REMARK VINA RESULT:      -9.5      0.113      1.008
REMARK  Name = 
REMARK  5 active torsions:
REMARK  status: ('A' for Active; 'I' for Inactive)
REMARK    1  A    between atoms: C_1  and  C_2
REMARK    2  A    between atoms: C_2  and  C_4
REMARK    3  A    between atoms: C_8  and  C_9
REMARK    4  A    between atoms: C_11  and  N_12
REMARK    5  A    between atoms: N_12  and  C_13
REMARK                            x       y       z     vdW  Elec       q    Type
REMARK                         _______ _______ _______ _____ _____    ______ ____
ROOT
ATOM      1  C   UNL     1       6.208   4.689  16.086  0.00  0.00    +0.000 A 
ATOM      2  C   UNL     1       4.949   4.992  16.467  0.00  0.00    +0.000 A 
ATOM      3  C   UNL     1       4.542   5.031  17.864  0.00  0.00    +0.000 A 
ATOM      4  C   UNL     1       5.498   4.812  18.792  0.00  0.00    +0.000 A 
ATOM      5  N   UNL     1       6.790   4.534  18.445  0.00  0.00    +0.000 N 
ATOM      6  C   UNL     1       7.238   4.441  17.148  0.00  0.00    +0.000 A 
ATOM      7  O   UNL     1       8.404   4.156  16.890  0.00  0.00    +0.000 OA
ATOM      8  H   UNL     1       7.484   4.366  19.165  0.00  0.00    +0.000 HD
ENDROOT
BRANCH   1  13
ATOM      9  C   UNL     1       6.061   3.545  12.497  0.00  0.00    +0.000 A 
ATOM     10  C   UNL     1       7.092   4.305  11.930  0.00  0.00    +0.000 A 
ATOM     11  C   UNL     1       7.843   5.177  12.719  0.00  0.00    +0.000 A 
ATOM     12  C   UNL     1       7.567   5.300  14.083  0.00  0.00    +0.000 A 
ATOM     13  C   UNL     1       6.538   4.552  14.663  0.00  0.00    +0.000 A 
ATOM     14  C   UNL     1       5.790   3.671  13.868  0.00  0.00    +0.000 A 
BRANCH   9  16
ATOM     15  C   UNL     1       3.947   3.103  11.081  0.00  0.00    +0.000 C 
ATOM     16  C   UNL     1       5.274   2.634  11.618  0.00  0.00    +0.000 C 
ATOM     17  O   UNL     1       5.721   1.521  11.321  0.00  0.00    +0.000 OA
ENDBRANCH   9  16
ENDBRANCH   1  13
BRANCH   3  18
ATOM     18  N   UNL     1       3.227   5.301  18.170  0.00  0.00    +0.000 N 
ATOM     19  H   UNL     1       2.778   6.001  17.583  0.00  0.00    +0.000 HD
BRANCH  18  20
ATOM     20  C   UNL     1       2.327   4.457  18.860  0.00  0.00    +0.000 A 
ATOM     21  C   UNL     1       2.006   4.631  20.214  0.00  0.00    +0.000 A 
ATOM     22  C   UNL     1       1.044   3.835  20.843  0.00  0.00    +0.000 A 
ATOM     23  C   UNL     1       0.381   2.845  20.125  0.00  0.00    +0.000 A 
ATOM     24  C   UNL     1       0.689   2.649  18.781  0.00  0.00    +0.000 A 
ATOM     25  C   UNL     1       1.650   3.452  18.154  0.00  0.00    +0.000 A 
ENDBRANCH  18  20
ENDBRANCH   3  18
TORSDOF 4
ENDMDL
MODEL 3
REMARK VINA RESULT:      -9.2      1.627      2.360
REMARK  Name = 
REMARK  5 active torsions:
REMARK  status: ('A' for Active; 'I' for Inactive)
REMARK    1  A    between atoms: C_1  and  C_2
REMARK    2  A    between atoms: C_2  and  C_4
REMARK    3  A    between atoms: C_8  and  C_9
REMARK    4  A    between atoms: C_11  and  N_12
REMARK    5  A    between atoms: N_12  and  C_13
REMARK                            x       y       z     vdW  Elec       q    Type
REMARK                         _______ _______ _______ _____ _____    ______ ____
ROOT
ATOM      1  C   UNL     1       6.077   4.671  16.183  0.00  0.00    +0.000 A 
ATOM      2  C   UNL     1       4.804   4.951  16.533  0.00  0.00    +0.000 A 
ATOM      3  C   UNL     1       4.360   4.975  17.918  0.00  0.00    +0.000 A 
ATOM      4  C   UNL     1       5.294   4.766  18.870  0.00  0.00    +0.000 A 
ATOM      5  N   UNL     1       6.600   4.511  18.556  0.00  0.00    +0.000 N 
ATOM      6  C   UNL     1       7.082   4.433  17.271  0.00  0.00    +0.000 A 
ATOM      7  O   UNL     1       8.259   4.168  17.042  0.00  0.00    +0.000 OA
ATOM      8  H   UNL     1       7.276   4.349  19.293  0.00  0.00    +0.000 HD
ENDROOT
BRANCH   1  13
ATOM      9  C   UNL     1       6.024   3.571  12.578  0.00  0.00    +0.000 A 
ATOM     10  C   UNL     1       7.077   4.329  12.049  0.00  0.00    +0.000 A 
ATOM     11  C   UNL     1       7.812   5.185  12.871  0.00  0.00    +0.000 A 
ATOM     12  C   UNL     1       7.498   5.294  14.228  0.00  0.00    +0.000 A 
ATOM     13  C   UNL     1       6.447   4.548  14.769  0.00  0.00    +0.000 A 
ATOM     14  C   UNL     1       5.715   3.683  13.942  0.00  0.00    +0.000 A 
BRANCH   9  16
ATOM     15  C   UNL     1       3.949   3.165  11.095  0.00  0.00    +0.000 C 
ATOM     16  C   UNL     1       5.255   2.678  11.666  0.00  0.00    +0.000 C 
ATOM     17  O   UNL     1       5.700   1.564  11.370  0.00  0.00    +0.000 OA
ENDBRANCH   9  16
ENDBRANCH   1  13
BRANCH   3  18
ATOM     18  N   UNL     1       3.033   5.223  18.191  0.00  0.00    +0.000 N 
ATOM     19  H   UNL     1       2.463   4.399  18.371  0.00  0.00    +0.000 HD
BRANCH  18  20
ATOM     20  C   UNL     1       2.479   6.430  18.676  0.00  0.00    +0.000 A 
ATOM     21  C   UNL     1       2.096   6.609  20.014  0.00  0.00    +0.000 A 
ATOM     22  C   UNL     1       1.636   7.843  20.481  0.00  0.00    +0.000 A 
ATOM     23  C   UNL     1       1.550   8.928  19.615  0.00  0.00    +0.000 A 
ATOM     24  C   UNL     1       1.916   8.772  18.281  0.00  0.00    +0.000 A 
ATOM     25  C   UNL     1       2.382   7.535  17.818  0.00  0.00    +0.000 A 
ENDBRANCH  18  20
ENDBRANCH   3  18
TORSDOF 4
ENDMDL
MODEL 4
REMARK VINA RESULT:      -9.2      1.164      1.175
REMARK  Name = 
REMARK  5 active torsions:
REMARK  status: ('A' for Active; 'I' for Inactive)
REMARK    1  A    between atoms: C_1  and  C_2
REMARK    2  A    between atoms: C_2  and  C_4
REMARK    3  A    between atoms: C_8  and  C_9
REMARK    4  A    between atoms: C_11  and  N_12
REMARK    5  A    between atoms: N_12  and  C_13
REMARK                            x       y       z     vdW  Elec       q    Type
REMARK                         _______ _______ _______ _____ _____    ______ ____
ROOT
ATOM      1  C   UNL     1       6.358   4.819  16.103  0.00  0.00    +0.000 A 
ATOM      2  C   UNL     1       5.578   3.928  16.751  0.00  0.00    +0.000 A 
ATOM      3  C   UNL     1       5.351   3.987  18.187  0.00  0.00    +0.000 A 
ATOM      4  C   UNL     1       5.905   5.018  18.859  0.00  0.00    +0.000 A 
ATOM      5  N   UNL     1       6.674   5.957  18.232  0.00  0.00    +0.000 N 
ATOM      6  C   UNL     1       6.965   5.944  16.888  0.00  0.00    +0.000 A 
ATOM      7  O   UNL     1       7.690   6.795  16.379  0.00  0.00    +0.000 OA
ATOM      8  H   UNL     1       7.084   6.716  18.766  0.00  0.00    +0.000 HD
ENDROOT
BRANCH   1  13
ATOM      9  C   UNL     1       6.094   3.608  12.543  0.00  0.00    +0.000 A 
ATOM     10  C   UNL     1       7.119   4.342  11.932  0.00  0.00    +0.000 A 
ATOM     11  C   UNL     1       7.903   5.218  12.682  0.00  0.00    +0.000 A 
ATOM     12  C   UNL     1       7.668   5.372  14.051  0.00  0.00    +0.000 A 
ATOM     13  C   UNL     1       6.646   4.650  14.674  0.00  0.00    +0.000 A 
ATOM     14  C   UNL     1       5.864   3.764  13.919  0.00  0.00    +0.000 A 
BRANCH   9  16
ATOM     15  C   UNL     1       3.948   3.179  11.171  0.00  0.00    +0.000 C 
ATOM     16  C   UNL     1       5.269   2.691  11.705  0.00  0.00    +0.000 C 
ATOM     17  O   UNL     1       5.682   1.557  11.440  0.00  0.00    +0.000 OA
ENDBRANCH   9  16
ENDBRANCH   1  13
BRANCH   3  18
ATOM     18  N   UNL     1       4.579   3.013  18.782  0.00  0.00    +0.000 N 
ATOM     19  H   UNL     1       5.092   2.321  19.324  0.00  0.00    +0.000 HD
BRANCH  18  20
ATOM     20  C   UNL     1       3.205   3.098  19.100  0.00  0.00    +0.000 A 
ATOM     21  C   UNL     1       2.208   2.447  18.358  0.00  0.00    +0.000 A 
ATOM     22  C   UNL     1       0.867   2.478  18.753  0.00  0.00    +0.000 A 
ATOM     23  C   UNL     1       0.496   3.164  19.904  0.00  0.00    +0.000 A 
ATOM     24  C   UNL     1       1.467   3.825  20.653  0.00  0.00    +0.000 A 
ATOM     25  C   UNL     1       2.809   3.787  20.256  0.00  0.00    +0.000 A 
ENDBRANCH  18  20
ENDBRANCH   3  18
TORSDOF 4
ENDMDL
MODEL 5
REMARK VINA RESULT:      -8.9      1.348      1.748
REMARK  Name = 
REMARK  5 active torsions:
REMARK  status: ('A' for Active; 'I' for Inactive)
REMARK    1  A    between atoms: C_1  and  C_2
REMARK    2  A    between atoms: C_2  and  C_4
REMARK    3  A    between atoms: C_8  and  C_9
REMARK    4  A    between atoms: C_11  and  N_12
REMARK    5  A    between atoms: N_12  and  C_13
REMARK                            x       y       z     vdW  Elec       q    Type
REMARK                         _______ _______ _______ _____ _____    ______ ____
ROOT
ATOM      1  C   UNL     1       6.390   4.823  16.164  0.00  0.00    +0.000 A 
ATOM      2  C   UNL     1       5.661   3.891  16.814  0.00  0.00    +0.000 A 
ATOM      3  C   UNL     1       5.429   3.942  18.250  0.00  0.00    +0.000 A 
ATOM      4  C   UNL     1       5.922   5.006  18.919  0.00  0.00    +0.000 A 
ATOM      5  N   UNL     1       6.636   5.986  18.288  0.00  0.00    +0.000 N 
ATOM      6  C   UNL     1       6.929   5.984  16.945  0.00  0.00    +0.000 A 
ATOM      7  O   UNL     1       7.605   6.874  16.434  0.00  0.00    +0.000 OA
ATOM      8  H   UNL     1       7.001   6.770  18.820  0.00  0.00    +0.000 HD
ENDROOT
BRANCH   1  13
ATOM      9  C   UNL     1       6.157   3.635  12.594  0.00  0.00    +0.000 A 
ATOM     10  C   UNL     1       7.184   4.377  11.995  0.00  0.00    +0.000 A 
ATOM     11  C   UNL     1       7.959   5.252  12.758  0.00  0.00    +0.000 A 
ATOM     12  C   UNL     1       7.712   5.395  14.126  0.00  0.00    +0.000 A 
ATOM     13  C   UNL     1       6.689   4.665  14.736  0.00  0.00    +0.000 A 
ATOM     14  C   UNL     1       5.916   3.781  13.969  0.00  0.00    +0.000 A 
BRANCH   9  16
ATOM     15  C   UNL     1       5.945   1.417  11.287  0.00  0.00    +0.000 C 
ATOM     16  C   UNL     1       5.343   2.720  11.743  0.00  0.00    +0.000 C 
ATOM     17  O   UNL     1       4.185   3.025  11.440  0.00  0.00    +0.000 OA
ENDBRANCH   9  16
ENDBRANCH   1  13
BRANCH   3  18
ATOM     18  N   UNL     1       4.715   2.928  18.848  0.00  0.00    +0.000 N 
ATOM     19  H   UNL     1       5.272   2.234  19.341  0.00  0.00    +0.000 HD
BRANCH  18  20
ATOM     20  C   UNL     1       3.356   2.963  19.236  0.00  0.00    +0.000 A 
ATOM     21  C   UNL     1       2.935   3.406  20.498  0.00  0.00    +0.000 A 
ATOM     22  C   UNL     1       1.578   3.514  20.818  0.00  0.00    +0.000 A 
ATOM     23  C   UNL     1       0.612   3.179  19.875  0.00  0.00    +0.000 A 
ATOM     24  C   UNL     1       1.006   2.730  18.618  0.00  0.00    +0.000 A 
ATOM     25  C   UNL     1       2.366   2.628  18.300  0.00  0.00    +0.000 A 
ENDBRANCH  18  20
ENDBRANCH   3  18
TORSDOF 4
ENDMDL
MODEL 6
REMARK VINA RESULT:      -8.7      1.583      1.987
REMARK  Name = 
REMARK  5 active torsions:
REMARK  status: ('A' for Active; 'I' for Inactive)
REMARK    1  A    between atoms: C_1  and  C_2
REMARK    2  A    between atoms: C_2  and  C_4
REMARK    3  A    between atoms: C_8  and  C_9
REMARK    4  A    between atoms: C_11  and  N_12
REMARK    5  A    between atoms: N_12  and  C_13
REMARK                            x       y       z     vdW  Elec       q    Type
REMARK                         _______ _______ _______ _____ _____    ______ ____
ROOT
ATOM      1  C   UNL     1       5.374   5.027  15.787  0.00  0.00    +0.000 A 
ATOM      2  C   UNL     1       5.154   4.093  16.737  0.00  0.00    +0.000 A 
ATOM      3  C   UNL     1       4.653   4.428  18.061  0.00  0.00    +0.000 A 
ATOM      4  C   UNL     1       4.348   5.722  18.298  0.00  0.00    +0.000 A 
ATOM      5  N   UNL     1       4.526   6.690  17.350  0.00  0.00    +0.000 N 
ATOM      6  C   UNL     1       5.032   6.455  16.093  0.00  0.00    +0.000 A 
ATOM      7  O   UNL     1       5.204   7.367  15.289  0.00  0.00    +0.000 OA
ATOM      8  H   UNL     1       4.295   7.655  17.561  0.00  0.00    +0.000 HD
ENDROOT
BRANCH   1  13
ATOM      9  C   UNL     1       5.841   3.437  12.401  0.00  0.00    +0.000 A 
ATOM     10  C   UNL     1       7.088   3.956  12.029  0.00  0.00    +0.000 A 
ATOM     11  C   UNL     1       7.780   4.811  12.887  0.00  0.00    +0.000 A 
ATOM     12  C   UNL     1       7.231   5.158  14.124  0.00  0.00    +0.000 A 
ATOM     13  C   UNL     1       5.986   4.651  14.507  0.00  0.00    +0.000 A 
ATOM     14  C   UNL     1       5.295   3.787  13.646  0.00  0.00    +0.000 A 
BRANCH   9  16
ATOM     15  C   UNL     1       3.816   2.989  10.862  0.00  0.00    +0.000 C 
ATOM     16  C   UNL     1       5.126   2.537  11.451  0.00  0.00    +0.000 C 
ATOM     17  O   UNL     1       5.620   1.448  11.141  0.00  0.00    +0.000 OA
ENDBRANCH   9  16
ENDBRANCH   1  13
BRANCH   3  18
ATOM     18  N   UNL     1       4.500   3.424  18.991  0.00  0.00    +0.000 N 
ATOM     19  H   UNL     1       5.362   3.086  19.415  0.00  0.00    +0.000 HD
BRANCH  18  20
ATOM     20  C   UNL     1       3.334   3.126  19.733  0.00  0.00    +0.000 A 
ATOM     21  C   UNL     1       3.364   2.765  21.088  0.00  0.00    +0.000 A 
ATOM     22  C   UNL     1       2.187   2.565  21.815  0.00  0.00    +0.000 A 
ATOM     23  C   UNL     1       0.951   2.724  21.197  0.00  0.00    +0.000 A 
ATOM     24  C   UNL     1       0.896   3.075  19.851  0.00  0.00    +0.000 A 
ATOM     25  C   UNL     1       2.078   3.279  19.127  0.00  0.00    +0.000 A 
ENDBRANCH  18  20
ENDBRANCH   3  18
TORSDOF 4
ENDMDL
MODEL 7
REMARK VINA RESULT:      -8.6      1.211      1.370
REMARK  Name = 
REMARK  5 active torsions:
REMARK  status: ('A' for Active; 'I' for Inactive)
REMARK    1  A    between atoms: C_1  and  C_2
REMARK    2  A    between atoms: C_2  and  C_4
REMARK    3  A    between atoms: C_8  and  C_9
REMARK    4  A    between atoms: C_11  and  N_12
REMARK    5  A    between atoms: N_12  and  C_13
REMARK                            x       y       z     vdW  Elec       q    Type
REMARK                         _______ _______ _______ _____ _____    ______ ____
ROOT
ATOM      1  C   UNL     1       5.756   5.184  15.818  0.00  0.00    +0.000 A 
ATOM      2  C   UNL     1       4.564   4.717  16.249  0.00  0.00    +0.000 A 
ATOM      3  C   UNL     1       4.066   4.968  17.593  0.00  0.00    +0.000 A 
ATOM      4  C   UNL     1       4.817   5.752  18.394  0.00  0.00    +0.000 A 
ATOM      5  N   UNL     1       6.013   6.269  17.981  0.00  0.00    +0.000 N 
ATOM      6  C   UNL     1       6.566   6.041  16.743  0.00  0.00    +0.000 A 
ATOM      7  O   UNL     1       7.661   6.504  16.434  0.00  0.00    +0.000 OA
ATOM      8  H   UNL     1       6.559   6.848  18.610  0.00  0.00    +0.000 HD
ENDROOT
BRANCH   1  13
ATOM      9  C   UNL     1       5.975   3.547  12.429  0.00  0.00    +0.000 A 
ATOM     10  C   UNL     1       7.160   4.108  11.935  0.00  0.00    +0.000 A 
ATOM     11  C   UNL     1       7.893   5.007  12.712  0.00  0.00    +0.000 A 
ATOM     12  C   UNL     1       7.445   5.355  13.989  0.00  0.00    +0.000 A 
ATOM     13  C   UNL     1       6.263   4.807  14.493  0.00  0.00    +0.000 A 
ATOM     14  C   UNL     1       5.532   3.899  13.713  0.00  0.00    +0.000 A 
BRANCH   9  16
ATOM     15  C   UNL     1       3.882   3.031  11.007  0.00  0.00    +0.000 C 
ATOM     16  C   UNL     1       5.214   2.601  11.564  0.00  0.00    +0.000 C 
ATOM     17  O   UNL     1       5.686   1.492  11.295  0.00  0.00    +0.000 OA
ENDBRANCH   9  16
ENDBRANCH   1  13
BRANCH   3  18
ATOM     18  N   UNL     1       2.862   4.417  17.972  0.00  0.00    +0.000 N 
ATOM     19  H   UNL     1       2.233   4.176  17.210  0.00  0.00    +0.000 HD
BRANCH  18  20
ATOM     20  C   UNL     1       2.580   3.756  19.189  0.00  0.00    +0.000 A 
ATOM     21  C   UNL     1       3.506   2.927  19.839  0.00  0.00    +0.000 A 
ATOM     22  C   UNL     1       3.228   2.360  21.086  0.00  0.00    +0.000 A 
ATOM     23  C   UNL     1       2.011   2.613  21.711  0.00  0.00    +0.000 A 
ATOM     24  C   UNL     1       1.073   3.427  21.082  0.00  0.00    +0.000 A 
ATOM     25  C   UNL     1       1.357   3.996  19.834  0.00  0.00    +0.000 A 
ENDBRANCH  18  20
ENDBRANCH   3  18
TORSDOF 4
ENDMDL
MODEL 8
REMARK VINA RESULT:      -8.5      1.323      1.566
REMARK  Name = 
REMARK  5 active torsions:
REMARK  status: ('A' for Active; 'I' for Inactive)
REMARK    1  A    between atoms: C_1  and  C_2
REMARK    2  A    between atoms: C_2  and  C_4
REMARK    3  A    between atoms: C_8  and  C_9
REMARK    4  A    between atoms: C_11  and  N_12
REMARK    5  A    between atoms: N_12  and  C_13
REMARK                            x       y       z     vdW  Elec       q    Type
REMARK                         _______ _______ _______ _____ _____    ______ ____
ROOT
ATOM      1  C   UNL     1       5.811   5.113  15.762  0.00  0.00    +0.000 A 
ATOM      2  C   UNL     1       4.647   4.574  16.183  0.00  0.00    +0.000 A 
ATOM      3  C   UNL     1       4.127   4.787  17.526  0.00  0.00    +0.000 A 
ATOM      4  C   UNL     1       4.827   5.609  18.336  0.00  0.00    +0.000 A 
ATOM      5  N   UNL     1       5.992   6.199  17.934  0.00  0.00    +0.000 N 
ATOM      6  C   UNL     1       6.564   6.012  16.697  0.00  0.00    +0.000 A 
ATOM      7  O   UNL     1       7.631   6.540  16.397  0.00  0.00    +0.000 OA
ATOM      8  H   UNL     1       6.499   6.805  18.569  0.00  0.00    +0.000 HD
ENDROOT
BRANCH   1  13
ATOM      9  C   UNL     1       6.175   3.475  12.386  0.00  0.00    +0.000 A 
ATOM     10  C   UNL     1       7.298   4.144  11.882  0.00  0.00    +0.000 A 
ATOM     11  C   UNL     1       7.943   5.117  12.647  0.00  0.00    +0.000 A 
ATOM     12  C   UNL     1       7.469   5.432  13.923  0.00  0.00    +0.000 A 
ATOM     13  C   UNL     1       6.347   4.776  14.438  0.00  0.00    +0.000 A 
ATOM     14  C   UNL     1       5.705   3.794  13.670  0.00  0.00    +0.000 A 
BRANCH   9  16
ATOM     15  C   UNL     1       6.269   1.211  11.147  0.00  0.00    +0.000 C 
ATOM     16  C   UNL     1       5.506   2.451  11.534  0.00  0.00    +0.000 C 
ATOM     17  O   UNL     1       4.337   2.616  11.173  0.00  0.00    +0.000 OA
ENDBRANCH   9  16
ENDBRANCH   1  13
BRANCH   3  18
ATOM     18  N   UNL     1       2.956   4.163  17.895  0.00  0.00    +0.000 N 
ATOM     19  H   UNL     1       2.458   3.691  17.144  0.00  0.00    +0.000 HD
BRANCH  18  20
ATOM     20  C   UNL     1       2.602   3.726  19.192  0.00  0.00    +0.000 A 
ATOM     21  C   UNL     1       1.354   3.995  19.773  0.00  0.00    +0.000 A 
ATOM     22  C   UNL     1       1.002   3.471  21.020  0.00  0.00    +0.000 A 
ATOM     23  C   UNL     1       1.898   2.664  21.714  0.00  0.00    +0.000 A 
ATOM     24  C   UNL     1       3.146   2.389  21.161  0.00  0.00    +0.000 A 
ATOM     25  C   UNL     1       3.492   2.912  19.909  0.00  0.00    +0.000 A 
ENDBRANCH  18  20
ENDBRANCH   3  18
TORSDOF 4
ENDMDL
MODEL 9
REMARK VINA RESULT:      -8.4      1.685      1.959
REMARK  Name = 
REMARK  5 active torsions:
REMARK  status: ('A' for Active; 'I' for Inactive)
REMARK    1  A    between atoms: C_1  and  C_2
REMARK    2  A    between atoms: C_2  and  C_4
REMARK    3  A    between atoms: C_8  and  C_9
REMARK    4  A    between atoms: C_11  and  N_12
REMARK    5  A    between atoms: N_12  and  C_13
REMARK                            x       y       z     vdW  Elec       q    Type
REMARK                         _______ _______ _______ _____ _____    ______ ____
ROOT
ATOM      1  C   UNL     1       5.413   4.972  15.674  0.00  0.00    +0.000 A 
ATOM      2  C   UNL     1       5.133   4.015  16.584  0.00  0.00    +0.000 A 
ATOM      3  C   UNL     1       4.597   4.322  17.902  0.00  0.00    +0.000 A 
ATOM      4  C   UNL     1       4.321   5.615  18.171  0.00  0.00    +0.000 A 
ATOM      5  N   UNL     1       4.561   6.608  17.263  0.00  0.00    +0.000 N 
ATOM      6  C   UNL     1       5.104   6.399  16.016  0.00  0.00    +0.000 A 
ATOM      7  O   UNL     1       5.330   7.331  15.250  0.00  0.00    +0.000 OA
ATOM      8  H   UNL     1       4.351   7.572  17.498  0.00  0.00    +0.000 HD
ENDROOT
BRANCH   1  13
ATOM      9  C   UNL     1       6.029   3.338  12.333  0.00  0.00    +0.000 A 
ATOM     10  C   UNL     1       7.222   3.962  11.944  0.00  0.00    +0.000 A 
ATOM     11  C   UNL     1       7.831   4.902  12.776  0.00  0.00    +0.000 A 
ATOM     12  C   UNL     1       7.251   5.230  14.004  0.00  0.00    +0.000 A 
ATOM     13  C   UNL     1       6.058   4.619  14.404  0.00  0.00    +0.000 A 
ATOM     14  C   UNL     1       5.453   3.670  13.569  0.00  0.00    +0.000 A 
BRANCH   9  16
ATOM     15  C   UNL     1       6.164   1.099  11.052  0.00  0.00    +0.000 C 
ATOM     16  C   UNL     1       5.402   2.348  11.411  0.00  0.00    +0.000 C 
ATOM     17  O   UNL     1       4.266   2.547  10.970  0.00  0.00    +0.000 OA
ENDBRANCH   9  16
ENDBRANCH   1  13
BRANCH   3  18
ATOM     18  N   UNL     1       4.382   3.293  18.792  0.00  0.00    +0.000 N 
ATOM     19  H   UNL     1       5.215   2.787  19.083  0.00  0.00    +0.000 HD
BRANCH  18  20
ATOM     20  C   UNL     1       3.277   3.141  19.661  0.00  0.00    +0.000 A 
ATOM     21  C   UNL     1       1.949   3.312  19.242  0.00  0.00    +0.000 A 
ATOM     22  C   UNL     1       0.876   3.066  20.103  0.00  0.00    +0.000 A 
ATOM     23  C   UNL     1       1.112   2.642  21.407  0.00  0.00    +0.000 A 
ATOM     24  C   UNL     1       2.422   2.473  21.848  0.00  0.00    +0.000 A 
ATOM     25  C   UNL     1       3.494   2.716  20.980  0.00  0.00    +0.000 A 
ENDBRANCH  18  20
ENDBRANCH   3  18
TORSDOF 4
ENDMDL
