MODEL 1
REMARK VINA RESULT:      -5.6      0.000      0.000
REMARK  Name = 
REMARK  4 active torsions:
REMARK  status: ('A' for Active; 'I' for Inactive)
REMARK    1  A    between atoms: C_1  and  C_2
REMARK    2  A    between atoms: C_2  and  C_3
REMARK    3  A    between atoms: C_3  and  C_4
REMARK    4  A    between atoms: C_4  and  N_5
REMARK                            x       y       z     vdW  Elec       q    Type
REMARK                         _______ _______ _______ _____ _____    ______ ____
ROOT
ATOM      1  N   UNL     1       4.327   2.958  18.275  0.00  0.00    +0.000 N 
ATOM      2  C   UNL     1       5.041   4.130  18.279  0.00  0.00    +0.000 C 
ATOM      3  O   UNL     1       5.115   4.964  19.173  0.00  0.00    +0.000 OA
ATOM      4  N   UNL     1       5.851   4.264  17.150  0.00  0.00    +0.000 N 
ATOM      5  C   UNL     1       5.502   4.165  15.818  0.00  0.00    +0.000 A 
ATOM      6  C   UNL     1       6.655   4.446  15.121  0.00  0.00    +0.000 A 
ATOM      7  N   UNL     1       7.702   4.665  15.975  0.00  0.00    +0.000 NA
ATOM      8  C   UNL     1       7.183   4.582  17.179  0.00  0.00    +0.000 A 
ATOM      9  H   UNL     1       4.541   2.239  17.593  0.00  0.00    +0.000 HD
ENDROOT
BRANCH   1  10
ATOM     10  C   UNL     1       3.519   2.599  19.427  0.00  0.00    +0.000 C 
BRANCH  10  11
ATOM     11  C   UNL     1       2.189   1.980  19.006  0.00  0.00    +0.000 C 
BRANCH  11  13
ATOM     12  C   UNL     1       1.192   3.680  20.581  0.00  0.00    +0.000 C 
ATOM     13  C   UNL     1       1.017   2.924  19.277  0.00  0.00    +0.000 C 
ENDBRANCH  11  13
ENDBRANCH  10  11
ENDBRANCH   1  10
TORSDOF 3
ENDMDL
MODEL 2
REMARK VINA RESULT:      -5.5      3.327      5.831
REMARK  Name = 
REMARK  4 active torsions:
REMARK  status: ('A' for Active; 'I' for Inactive)
REMARK    1  A    between atoms: C_1  and  C_2
REMARK    2  A    between atoms: C_2  and  C_3
REMARK    3  A    between atoms: C_3  and  C_4
REMARK    4  A    between atoms: C_4  and  N_5
REMARK                            x       y       z     vdW  Elec       q    Type
REMARK                         _______ _______ _______ _____ _____    ______ ____
ROOT
ATOM      1  N   UNL     1       5.946   3.728  13.727  0.00  0.00    +0.000 N 
ATOM      2  C   UNL     1       6.548   4.686  14.506  0.00  0.00    +0.000 C 
ATOM      3  O   UNL     1       7.511   5.387  14.227  0.00  0.00    +0.000 OA
ATOM      4  N   UNL     1       5.853   4.920  15.694  0.00  0.00    +0.000 N 
ATOM      5  C   UNL     1       5.443   4.011  16.650  0.00  0.00    +0.000 A 
ATOM      6  C   UNL     1       4.864   4.769  17.643  0.00  0.00    +0.000 A 
ATOM      7  N   UNL     1       4.863   6.097  17.307  0.00  0.00    +0.000 NA
ATOM      8  C   UNL     1       5.489   6.157  16.154  0.00  0.00    +0.000 A 
ATOM      9  H   UNL     1       5.018   3.398  13.962  0.00  0.00    +0.000 HD
ENDROOT
BRANCH   1  10
ATOM     10  C   UNL     1       6.469   3.439  12.405  0.00  0.00    +0.000 C 
BRANCH  10  11
ATOM     11  C   UNL     1       5.445   2.697  11.548  0.00  0.00    +0.000 C 
BRANCH  11  13
ATOM     12  C   UNL     1       3.481   3.595  10.244  0.00  0.00    +0.000 C 
ATOM     13  C   UNL     1       4.067   3.353  11.624  0.00  0.00    +0.000 C 
ENDBRANCH  11  13
ENDBRANCH  10  11
ENDBRANCH   1  10
TORSDOF 3
ENDMDL
MODEL 3
REMARK VINA RESULT:      -5.3      1.083      1.083
REMARK  Name = 
REMARK  4 active torsions:
REMARK  status: ('A' for Active; 'I' for Inactive)
REMARK    1  A    between atoms: C_1  and  C_2
REMARK    2  A    between atoms: C_2  and  C_3
REMARK    3  A    between atoms: C_3  and  C_4
REMARK    4  A    between atoms: C_4  and  N_5
REMARK                            x       y       z     vdW  Elec       q    Type
REMARK                         _______ _______ _______ _____ _____    ______ ____
ROOT
ATOM      1  N   UNL     1       4.383   3.156  17.421  0.00  0.00    +0.000 N 
ATOM      2  C   UNL     1       4.627   4.484  17.173  0.00  0.00    +0.000 C 
ATOM      3  O   UNL     1       4.147   5.457  17.740  0.00  0.00    +0.000 OA
ATOM      4  N   UNL     1       5.644   4.672  16.235  0.00  0.00    +0.000 N 
ATOM      5  C   UNL     1       5.764   4.134  14.969  0.00  0.00    +0.000 A 
ATOM      6  C   UNL     1       6.909   4.692  14.447  0.00  0.00    +0.000 A 
ATOM      7  N   UNL     1       7.515   5.511  15.361  0.00  0.00    +0.000 NA
ATOM      8  C   UNL     1       6.719   5.504  16.406  0.00  0.00    +0.000 A 
ATOM      9  H   UNL     1       5.019   2.452  17.066  0.00  0.00    +0.000 HD
ENDROOT
BRANCH   1  10
ATOM     10  C   UNL     1       3.437   2.775  18.454  0.00  0.00    +0.000 C 
BRANCH  10  11
ATOM     11  C   UNL     1       2.000   2.815  17.939  0.00  0.00    +0.000 C 
BRANCH  11  13
ATOM     12  C   UNL     1       0.978   3.636  20.094  0.00  0.00    +0.000 C 
ATOM     13  C   UNL     1       0.994   2.531  19.054  0.00  0.00    +0.000 C 
ENDBRANCH  11  13
ENDBRANCH  10  11
ENDBRANCH   1  10
TORSDOF 3
ENDMDL
MODEL 4
REMARK VINA RESULT:      -5.3      0.904      1.077
REMARK  Name = 
REMARK  4 active torsions:
REMARK  status: ('A' for Active; 'I' for Inactive)
REMARK    1  A    between atoms: C_1  and  C_2
REMARK    2  A    between atoms: C_2  and  C_3
REMARK    3  A    between atoms: C_3  and  C_4
REMARK    4  A    between atoms: C_4  and  N_5
REMARK                            x       y       z     vdW  Elec       q    Type
REMARK                         _______ _______ _______ _____ _____    ______ ____
ROOT
ATOM      1  N   UNL     1       4.982   3.214  18.275  0.00  0.00    +0.000 N 
ATOM      2  C   UNL     1       5.113   4.520  17.872  0.00  0.00    +0.000 C 
ATOM      3  O   UNL     1       4.716   5.527  18.443  0.00  0.00    +0.000 OA
ATOM      4  N   UNL     1       5.908   4.648  16.732  0.00  0.00    +0.000 N 
ATOM      5  C   UNL     1       5.790   4.001  15.517  0.00  0.00    +0.000 A 
ATOM      6  C   UNL     1       6.779   4.539  14.725  0.00  0.00    +0.000 A 
ATOM      7  N   UNL     1       7.522   5.453  15.422  0.00  0.00    +0.000 NA
ATOM      8  C   UNL     1       6.957   5.520  16.606  0.00  0.00    +0.000 A 
ATOM      9  H   UNL     1       5.563   2.497  17.855  0.00  0.00    +0.000 HD
ENDROOT
BRANCH   1  10
ATOM     10  C   UNL     1       4.285   2.905  19.509  0.00  0.00    +0.000 C 
BRANCH  10  11
ATOM     11  C   UNL     1       2.892   2.339  19.238  0.00  0.00    +0.000 C 
BRANCH  11  13
ATOM     12  C   UNL     1       1.448   3.982  17.980  0.00  0.00    +0.000 C 
ATOM     13  C   UNL     1       1.816   3.420  19.341  0.00  0.00    +0.000 C 
ENDBRANCH  11  13
ENDBRANCH  10  11
ENDBRANCH   1  10
TORSDOF 3
ENDMDL
MODEL 5
REMARK VINA RESULT:      -5.3      1.677      1.949
REMARK  Name = 
REMARK  4 active torsions:
REMARK  status: ('A' for Active; 'I' for Inactive)
REMARK    1  A    between atoms: C_1  and  C_2
REMARK    2  A    between atoms: C_2  and  C_3
REMARK    3  A    between atoms: C_3  and  C_4
REMARK    4  A    between atoms: C_4  and  N_5
REMARK                            x       y       z     vdW  Elec       q    Type
REMARK                         _______ _______ _______ _____ _____    ______ ____
ROOT
ATOM      1  N   UNL     1       3.161   4.092  17.704  0.00  0.00    +0.000 N 
ATOM      2  C   UNL     1       3.869   5.156  18.206  0.00  0.00    +0.000 C 
ATOM      3  O   UNL     1       3.435   6.140  18.792  0.00  0.00    +0.000 OA
ATOM      4  N   UNL     1       5.249   4.970  18.111  0.00  0.00    +0.000 N 
ATOM      5  C   UNL     1       6.004   4.642  17.002  0.00  0.00    +0.000 A 
ATOM      6  C   UNL     1       7.309   4.649  17.440  0.00  0.00    +0.000 A 
ATOM      7  N   UNL     1       7.375   4.921  18.780  0.00  0.00    +0.000 NA
ATOM      8  C   UNL     1       6.132   5.140  19.144  0.00  0.00    +0.000 A 
ATOM      9  H   UNL     1       3.643   3.232  17.470  0.00  0.00    +0.000 HD
ENDROOT
BRANCH   1  10
ATOM     10  C   UNL     1       1.715   4.064  17.825  0.00  0.00    +0.000 C 
BRANCH  10  11
ATOM     11  C   UNL     1       1.265   3.118  18.937  0.00  0.00    +0.000 C 
BRANCH  11  13
ATOM     12  C   UNL     1       1.900   3.548  21.341  0.00  0.00    +0.000 C 
ATOM     13  C   UNL     1       0.930   3.877  20.220  0.00  0.00    +0.000 C 
ENDBRANCH  11  13
ENDBRANCH  10  11
ENDBRANCH   1  10
TORSDOF 3
ENDMDL
MODEL 6
REMARK VINA RESULT:      -5.3      0.883      1.048
REMARK  Name = 
REMARK  4 active torsions:
REMARK  status: ('A' for Active; 'I' for Inactive)
REMARK    1  A    between atoms: C_1  and  C_2
REMARK    2  A    between atoms: C_2  and  C_3
REMARK    3  A    between atoms: C_3  and  C_4
REMARK    4  A    between atoms: C_4  and  N_5
REMARK                            x       y       z     vdW  Elec       q    Type
REMARK                         _______ _______ _______ _____ _____    ______ ____
ROOT
ATOM      1  N   UNL     1       4.737   3.145  18.749  0.00  0.00    +0.000 N 
ATOM      2  C   UNL     1       5.590   4.219  18.690  0.00  0.00    +0.000 C 
ATOM      3  O   UNL     1       6.052   4.865  19.621  0.00  0.00    +0.000 OA
ATOM      4  N   UNL     1       6.038   4.471  17.392  0.00  0.00    +0.000 N 
ATOM      5  C   UNL     1       5.298   4.650  16.240  0.00  0.00    +0.000 A 
ATOM      6  C   UNL     1       6.221   4.934  15.259  0.00  0.00    +0.000 A 
ATOM      7  N   UNL     1       7.495   4.888  15.758  0.00  0.00    +0.000 NA
ATOM      8  C   UNL     1       7.351   4.642  17.040  0.00  0.00    +0.000 A 
ATOM      9  H   UNL     1       4.627   2.543  17.941  0.00  0.00    +0.000 HD
ENDROOT
BRANCH   1  10
ATOM     10  C   UNL     1       4.263   2.668  20.035  0.00  0.00    +0.000 C 
BRANCH  10  11
ATOM     11  C   UNL     1       2.768   2.925  20.211  0.00  0.00    +0.000 C 
BRANCH  11  13
ATOM     12  C   UNL     1       0.750   2.446  18.775  0.00  0.00    +0.000 C 
ATOM     13  C   UNL     1       2.078   3.176  18.871  0.00  0.00    +0.000 C 
ENDBRANCH  11  13
ENDBRANCH  10  11
ENDBRANCH   1  10
TORSDOF 3
ENDMDL
MODEL 7
REMARK VINA RESULT:      -5.3      1.793      5.204
REMARK  Name = 
REMARK  4 active torsions:
REMARK  status: ('A' for Active; 'I' for Inactive)
REMARK    1  A    between atoms: C_1  and  C_2
REMARK    2  A    between atoms: C_2  and  C_3
REMARK    3  A    between atoms: C_3  and  C_4
REMARK    4  A    between atoms: C_4  and  N_5
REMARK                            x       y       z     vdW  Elec       q    Type
REMARK                         _______ _______ _______ _____ _____    ______ ____
ROOT
ATOM      1  N   UNL     1       6.138   4.024  17.784  0.00  0.00    +0.000 N 
ATOM      2  C   UNL     1       4.867   4.541  17.849  0.00  0.00    +0.000 C 
ATOM      3  O   UNL     1       4.516   5.700  17.674  0.00  0.00    +0.000 OA
ATOM      4  N   UNL     1       3.899   3.549  18.017  0.00  0.00    +0.000 N 
ATOM      5  C   UNL     1       3.835   2.554  18.972  0.00  0.00    +0.000 A 
ATOM      6  C   UNL     1       2.650   1.896  18.730  0.00  0.00    +0.000 A 
ATOM      7  N   UNL     1       2.014   2.421  17.637  0.00  0.00    +0.000 NA
ATOM      8  C   UNL     1       2.767   3.427  17.254  0.00  0.00    +0.000 A 
ATOM      9  H   UNL     1       6.272   3.024  17.698  0.00  0.00    +0.000 HD
ENDROOT
BRANCH   1  10
ATOM     10  C   UNL     1       7.260   4.900  17.497  0.00  0.00    +0.000 C 
BRANCH  10  11
ATOM     11  C   UNL     1       7.838   5.506  18.774  0.00  0.00    +0.000 C 
BRANCH  11  13
ATOM     12  C   UNL     1       7.488   7.554  17.343  0.00  0.00    +0.000 C 
ATOM     13  C   UNL     1       8.104   7.002  18.616  0.00  0.00    +0.000 C 
ENDBRANCH  11  13
ENDBRANCH  10  11
ENDBRANCH   1  10
TORSDOF 3
ENDMDL
MODEL 8
REMARK VINA RESULT:      -5.3      1.402      1.522
REMARK  Name = 
REMARK  4 active torsions:
REMARK  status: ('A' for Active; 'I' for Inactive)
REMARK    1  A    between atoms: C_1  and  C_2
REMARK    2  A    between atoms: C_2  and  C_3
REMARK    3  A    between atoms: C_3  and  C_4
REMARK    4  A    between atoms: C_4  and  N_5
REMARK                            x       y       z     vdW  Elec       q    Type
REMARK                         _______ _______ _______ _____ _____    ______ ____
ROOT
ATOM      1  N   UNL     1       3.574   3.517  17.864  0.00  0.00    +0.000 N 
ATOM      2  C   UNL     1       4.726   3.799  18.555  0.00  0.00    +0.000 C 
ATOM      3  O   UNL     1       5.149   3.254  19.566  0.00  0.00    +0.000 OA
ATOM      4  N   UNL     1       5.520   4.745  17.904  0.00  0.00    +0.000 N 
ATOM      5  C   UNL     1       5.169   5.998  17.441  0.00  0.00    +0.000 A 
ATOM      6  C   UNL     1       6.334   6.538  16.944  0.00  0.00    +0.000 A 
ATOM      7  N   UNL     1       7.368   5.646  17.043  0.00  0.00    +0.000 NA
ATOM      8  C   UNL     1       6.858   4.598  17.649  0.00  0.00    +0.000 A 
ATOM      9  H   UNL     1       3.459   3.857  16.916  0.00  0.00    +0.000 HD
ENDROOT
BRANCH   1  10
ATOM     10  C   UNL     1       2.685   2.472  18.336  0.00  0.00    +0.000 C 
BRANCH  10  11
ATOM     11  C   UNL     1       1.274   3.004  18.580  0.00  0.00    +0.000 C 
BRANCH  11  13
ATOM     12  C   UNL     1       1.321   2.889  21.099  0.00  0.00    +0.000 C 
ATOM     13  C   UNL     1       1.188   3.792  19.886  0.00  0.00    +0.000 C 
ENDBRANCH  11  13
ENDBRANCH  10  11
ENDBRANCH   1  10
TORSDOF 3
ENDMDL
MODEL 9
REMARK VINA RESULT:      -5.3      1.855      5.333
REMARK  Name = 
REMARK  4 active torsions:
REMARK  status: ('A' for Active; 'I' for Inactive)
REMARK    1  A    between atoms: C_1  and  C_2
REMARK    2  A    between atoms: C_2  and  C_3
REMARK    3  A    between atoms: C_3  and  C_4
REMARK    4  A    between atoms: C_4  and  N_5
REMARK                            x       y       z     vdW  Elec       q    Type
REMARK                         _______ _______ _______ _____ _____    ______ ____
ROOT
ATOM      1  N   UNL     1       5.966   4.106  18.577  0.00  0.00    +0.000 N 
ATOM      2  C   UNL     1       4.844   3.955  17.801  0.00  0.00    +0.000 C 
ATOM      3  O   UNL     1       4.702   4.238  16.619  0.00  0.00    +0.000 OA
ATOM      4  N   UNL     1       3.821   3.281  18.471  0.00  0.00    +0.000 N 
ATOM      5  C   UNL     1       3.263   3.560  19.703  0.00  0.00    +0.000 A 
ATOM      6  C   UNL     1       2.254   2.636  19.859  0.00  0.00    +0.000 A 
ATOM      7  N   UNL     1       2.208   1.777  18.794  0.00  0.00    +0.000 NA
ATOM      8  C   UNL     1       3.133   2.209  17.968  0.00  0.00    +0.000 A 
ATOM      9  H   UNL     1       6.041   3.610  19.457  0.00  0.00    +0.000 HD
ENDROOT
BRANCH   1  10
ATOM     10  C   UNL     1       7.168   4.683  18.004  0.00  0.00    +0.000 C 
BRANCH  10  11
ATOM     11  C   UNL     1       7.821   5.680  18.958  0.00  0.00    +0.000 C 
BRANCH  11  13
ATOM     12  C   UNL     1       6.915   7.282  17.232  0.00  0.00    +0.000 C 
ATOM     13  C   UNL     1       7.946   7.066  18.326  0.00  0.00    +0.000 C 
ENDBRANCH  11  13
ENDBRANCH  10  11
ENDBRANCH   1  10
TORSDOF 3
ENDMDL
