MODEL 1
REMARK VINA RESULT:      -9.1      0.000      0.000
REMARK  Name = 
REMARK  11 active torsions:
REMARK  status: ('A' for Active; 'I' for Inactive)
REMARK    1  A    between atoms: C_1  and  O_2
REMARK    2  A    between atoms: O_2  and  C_3
REMARK    3  A    between atoms: C_5  and  O_6
REMARK    4  A    between atoms: O_6  and  C_7
REMARK    5  A    between atoms: N_10  and  C_11
REMARK    6  A    between atoms: C_11  and  C_12
REMARK    7  A    between atoms: C_12  and  C_13
REMARK    8  A    between atoms: C_13  and  N_14
REMARK    9  A    between atoms: C_19  and  C_20
REMARK   10  A    between atoms: N_22  and  C_23
REMARK   11  A    between atoms: N_22  and  C_24
REMARK                            x       y       z     vdW  Elec       q    Type
REMARK                         _______ _______ _______ _____ _____    ______ ____
ROOT
ATOM      1  N   UNL     1       2.838   5.901  18.314  0.00  0.00    +0.000 N 
ATOM      2  C   UNL     1       2.367   4.629  18.582  0.00  0.00    +0.000 A 
ATOM      3  C   UNL     1       3.095   3.734  17.817  0.00  0.00    +0.000 A 
ATOM      4  C   UNL     1       4.022   4.476  17.034  0.00  0.00    +0.000 A 
ATOM      5  C   UNL     1       4.984   4.119  16.068  0.00  0.00    +0.000 A 
ATOM      6  C   UNL     1       5.733   5.101  15.388  0.00  0.00    +0.000 A 
ATOM      7  C   UNL     1       5.492   6.444  15.678  0.00  0.00    +0.000 A 
ATOM      8  C   UNL     1       4.575   6.825  16.677  0.00  0.00    +0.000 A 
ATOM      9  C   UNL     1       3.835   5.823  17.336  0.00  0.00    +0.000 A 
ATOM     10  C   UNL     1       2.851   2.258  17.834  0.00  0.00    +0.000 C 
ATOM     11  C   UNL     1       2.053   1.832  19.078  0.00  0.00    +0.000 C 
ATOM     12  C   UNL     1       0.855   2.754  19.304  0.00  0.00    +0.000 C 
ATOM     13  C   UNL     1       1.296   4.202  19.545  0.00  0.00    +0.000 C 
ENDROOT
BRANCH   6  14
ATOM     14  C   UNL     1       6.629   4.605  14.295  0.00  0.00    +0.000 C 
ATOM     15  O   UNL     1       7.831   4.842  14.453  0.00  0.00    +0.000 OA
ATOM     16  N   UNL     1       6.177   3.944  13.148  0.00  0.00    +0.000 N 
ATOM     17  C   UNL     1       4.810   3.621  12.774  0.00  0.00    +0.000 C 
ATOM     18  C   UNL     1       7.178   3.551  12.161  0.00  0.00    +0.000 C 
ENDBRANCH   6  14
BRANCH   1  19
ATOM     19  C   UNL     1       2.424   7.184  18.887  0.00  0.00    +0.000 C 
BRANCH  19  20
ATOM     20  C   UNL     1       1.738   8.155  17.943  0.00  0.00    +0.000 C 
BRANCH  20  21
ATOM     21  C   UNL     1       2.152   9.603  18.085  0.00  0.00    +0.000 C 
BRANCH  21  27
ATOM     22  C   UNL     1      -1.730  11.749  19.582  0.00  0.00    +0.000 A 
ATOM     23  C   UNL     1      -1.349  11.644  20.894  0.00  0.00    +0.000 A 
ATOM     24  C   UNL     1      -0.127  11.060  21.089  0.00  0.00    +0.000 A 
ATOM     25  N   UNL     1       0.664  10.649  20.091  0.00  0.00    +0.000 NA
ATOM     26  C   UNL     1       0.198  10.796  18.851  0.00  0.00    +0.000 A 
ATOM     27  N   UNL     1       0.977  10.396  17.789  0.00  0.00    +0.000 N 
ATOM     28  N   UNL     1      -0.992  11.308  18.551  0.00  0.00    +0.000 NA
ATOM     29  H   UNL     1       0.363  10.110  17.037  0.00  0.00    +0.000 HD
BRANCH  22  31
ATOM     30  C   UNL     1      -3.772  11.574  18.453  0.00  0.00    +0.000 C 
ATOM     31  O   UNL     1      -2.954  12.343  19.332  0.00  0.00    +0.000 OA
ENDBRANCH  22  31
BRANCH  24  32
ATOM     32  O   UNL     1       0.305  10.884  22.387  0.00  0.00    +0.000 OA
ATOM     33  C   UNL     1      -0.462   9.900  23.084  0.00  0.00    +0.000 C 
ENDBRANCH  24  32
ENDBRANCH  21  27
ENDBRANCH  20  21
ENDBRANCH  19  20
ENDBRANCH   1  19
TORSDOF 7
ENDMDL
MODEL 2
REMARK VINA RESULT:      -8.8      1.049      1.200
REMARK  Name = 
REMARK  11 active torsions:
REMARK  status: ('A' for Active; 'I' for Inactive)
REMARK    1  A    between atoms: C_1  and  O_2
REMARK    2  A    between atoms: O_2  and  C_3
REMARK    3  A    between atoms: C_5  and  O_6
REMARK    4  A    between atoms: O_6  and  C_7
REMARK    5  A    between atoms: N_10  and  C_11
REMARK    6  A    between atoms: C_11  and  C_12
REMARK    7  A    between atoms: C_12  and  C_13
REMARK    8  A    between atoms: C_13  and  N_14
REMARK    9  A    between atoms: C_19  and  C_20
REMARK   10  A    between atoms: N_22  and  C_23
REMARK   11  A    between atoms: N_22  and  C_24
REMARK                            x       y       z     vdW  Elec       q    Type
REMARK                         _______ _______ _______ _____ _____    ______ ____
ROOT
ATOM      1  N   UNL     1       2.804   5.873  18.417  0.00  0.00    +0.000 N 
ATOM      2  C   UNL     1       2.346   4.585  18.620  0.00  0.00    +0.000 A 
ATOM      3  C   UNL     1       3.092   3.735  17.822  0.00  0.00    +0.000 A 
ATOM      4  C   UNL     1       4.016   4.523  17.083  0.00  0.00    +0.000 A 
ATOM      5  C   UNL     1       4.991   4.224  16.110  0.00  0.00    +0.000 A 
ATOM      6  C   UNL     1       5.734   5.244  15.484  0.00  0.00    +0.000 A 
ATOM      7  C   UNL     1       5.475   6.570  15.834  0.00  0.00    +0.000 A 
ATOM      8  C   UNL     1       4.544   6.893  16.841  0.00  0.00    +0.000 A 
ATOM      9  C   UNL     1       3.811   5.853  17.446  0.00  0.00    +0.000 A 
ATOM     10  C   UNL     1       2.865   2.257  17.768  0.00  0.00    +0.000 C 
ATOM     11  C   UNL     1       2.062   1.765  18.983  0.00  0.00    +0.000 C 
ATOM     12  C   UNL     1       0.850   2.661  19.240  0.00  0.00    +0.000 C 
ATOM     13  C   UNL     1       1.272   4.101  19.552  0.00  0.00    +0.000 C 
ENDROOT
BRANCH   6  14
ATOM     14  C   UNL     1       6.646   4.811  14.377  0.00  0.00    +0.000 C 
ATOM     15  O   UNL     1       7.819   5.181  14.488  0.00  0.00    +0.000 OA
ATOM     16  N   UNL     1       6.234   4.066  13.268  0.00  0.00    +0.000 N 
ATOM     17  C   UNL     1       4.900   3.585  12.949  0.00  0.00    +0.000 C 
ATOM     18  C   UNL     1       7.242   3.749  12.260  0.00  0.00    +0.000 C 
ENDBRANCH   6  14
BRANCH   1  19
ATOM     19  C   UNL     1       2.370   7.124  19.045  0.00  0.00    +0.000 C 
BRANCH  19  20
ATOM     20  C   UNL     1       2.096   8.288  18.111  0.00  0.00    +0.000 C 
BRANCH  20  21
ATOM     21  C   UNL     1       1.376   9.465  18.732  0.00  0.00    +0.000 C 
BRANCH  21  27
ATOM     22  C   UNL     1      -2.817  11.428  18.037  0.00  0.00    +0.000 A 
ATOM     23  C   UNL     1      -2.792  12.046  19.259  0.00  0.00    +0.000 A 
ATOM     24  C   UNL     1      -1.650  11.835  19.983  0.00  0.00    +0.000 A 
ATOM     25  N   UNL     1      -0.614  11.115  19.537  0.00  0.00    +0.000 NA
ATOM     26  C   UNL     1      -0.740  10.556  18.334  0.00  0.00    +0.000 A 
ATOM     27  N   UNL     1       0.301   9.812  17.827  0.00  0.00    +0.000 N 
ATOM     28  N   UNL     1      -1.822  10.658  17.566  0.00  0.00    +0.000 NA
ATOM     29  H   UNL     1      -0.086   9.099  17.221  0.00  0.00    +0.000 HD
BRANCH  22  31
ATOM     30  C   UNL     1      -5.153  11.307  17.955  0.00  0.00    +0.000 C 
ATOM     31  O   UNL     1      -3.946  11.619  17.262  0.00  0.00    +0.000 OA
ENDBRANCH  22  31
BRANCH  24  32
ATOM     32  O   UNL     1      -1.572  12.393  21.241  0.00  0.00    +0.000 OA
ATOM     33  C   UNL     1      -0.230  12.723  21.605  0.00  0.00    +0.000 C 
ENDBRANCH  24  32
ENDBRANCH  21  27
ENDBRANCH  20  21
ENDBRANCH  19  20
ENDBRANCH   1  19
TORSDOF 7
ENDMDL
MODEL 3
REMARK VINA RESULT:      -8.8      1.309      2.234
REMARK  Name = 
REMARK  11 active torsions:
REMARK  status: ('A' for Active; 'I' for Inactive)
REMARK    1  A    between atoms: C_1  and  O_2
REMARK    2  A    between atoms: O_2  and  C_3
REMARK    3  A    between atoms: C_5  and  O_6
REMARK    4  A    between atoms: O_6  and  C_7
REMARK    5  A    between atoms: N_10  and  C_11
REMARK    6  A    between atoms: C_11  and  C_12
REMARK    7  A    between atoms: C_12  and  C_13
REMARK    8  A    between atoms: C_13  and  N_14
REMARK    9  A    between atoms: C_19  and  C_20
REMARK   10  A    between atoms: N_22  and  C_23
REMARK   11  A    between atoms: N_22  and  C_24
REMARK                            x       y       z     vdW  Elec       q    Type
REMARK                         _______ _______ _______ _____ _____    ______ ____
ROOT
ATOM      1  N   UNL     1       2.868   5.927  18.362  0.00  0.00    +0.000 N 
ATOM      2  C   UNL     1       2.419   4.641  18.601  0.00  0.00    +0.000 A 
ATOM      3  C   UNL     1       3.158   3.777  17.813  0.00  0.00    +0.000 A 
ATOM      4  C   UNL     1       4.069   4.551  17.043  0.00  0.00    +0.000 A 
ATOM      5  C   UNL     1       5.033   4.233  16.065  0.00  0.00    +0.000 A 
ATOM      6  C   UNL     1       5.762   5.242  15.406  0.00  0.00    +0.000 A 
ATOM      7  C   UNL     1       5.502   6.574  15.728  0.00  0.00    +0.000 A 
ATOM      8  C   UNL     1       4.583   6.917  16.739  0.00  0.00    +0.000 A 
ATOM      9  C   UNL     1       3.862   5.888  17.378  0.00  0.00    +0.000 A 
ATOM     10  C   UNL     1       2.938   2.297  17.797  0.00  0.00    +0.000 C 
ATOM     11  C   UNL     1       2.152   1.829  19.033  0.00  0.00    +0.000 C 
ATOM     12  C   UNL     1       0.940   2.726  19.285  0.00  0.00    +0.000 C 
ATOM     13  C   UNL     1       1.359   4.175  19.558  0.00  0.00    +0.000 C 
ENDROOT
BRANCH   6  14
ATOM     14  C   UNL     1       6.662   4.786  14.298  0.00  0.00    +0.000 C 
ATOM     15  O   UNL     1       7.840   5.144  14.397  0.00  0.00    +0.000 OA
ATOM     16  N   UNL     1       6.234   4.036  13.199  0.00  0.00    +0.000 N 
ATOM     17  C   UNL     1       4.892   3.567  12.894  0.00  0.00    +0.000 C 
ATOM     18  C   UNL     1       7.232   3.697  12.188  0.00  0.00    +0.000 C 
ENDBRANCH   6  14
BRANCH   1  19
ATOM     19  C   UNL     1       2.436   7.190  18.966  0.00  0.00    +0.000 C 
BRANCH  19  20
ATOM     20  C   UNL     1       1.486   8.041  18.145  0.00  0.00    +0.000 C 
BRANCH  20  21
ATOM     21  C   UNL     1       1.886   9.491  17.981  0.00  0.00    +0.000 C 
BRANCH  21  27
ATOM     22  C   UNL     1      -2.078  11.683  19.164  0.00  0.00    +0.000 A 
ATOM     23  C   UNL     1      -2.761  11.134  18.111  0.00  0.00    +0.000 A 
ATOM     24  C   UNL     1      -2.027  10.273  17.341  0.00  0.00    +0.000 A 
ATOM     25  N   UNL     1      -0.755   9.952  17.598  0.00  0.00    +0.000 NA
ATOM     26  C   UNL     1      -0.183  10.542  18.647  0.00  0.00    +0.000 A 
ATOM     27  N   UNL     1       1.124  10.239  18.958  0.00  0.00    +0.000 N 
ATOM     28  N   UNL     1      -0.787  11.427  19.434  0.00  0.00    +0.000 NA
ATOM     29  H   UNL     1       1.540  11.052  19.395  0.00  0.00    +0.000 HD
BRANCH  22  31
ATOM     30  C   UNL     1      -4.192  12.453  19.808  0.00  0.00    +0.000 C 
ATOM     31  O   UNL     1      -2.779  12.552  19.980  0.00  0.00    +0.000 OA
ENDBRANCH  22  31
BRANCH  24  32
ATOM     32  O   UNL     1      -2.638   9.714  16.238  0.00  0.00    +0.000 OA
ATOM     33  C   UNL     1      -2.980  10.692  15.253  0.00  0.00    +0.000 C 
ENDBRANCH  24  32
ENDBRANCH  21  27
ENDBRANCH  20  21
ENDBRANCH  19  20
ENDBRANCH   1  19
TORSDOF 7
ENDMDL
MODEL 4
REMARK VINA RESULT:      -8.6      0.837      2.107
REMARK  Name = 
REMARK  11 active torsions:
REMARK  status: ('A' for Active; 'I' for Inactive)
REMARK    1  A    between atoms: C_1  and  O_2
REMARK    2  A    between atoms: O_2  and  C_3
REMARK    3  A    between atoms: C_5  and  O_6
REMARK    4  A    between atoms: O_6  and  C_7
REMARK    5  A    between atoms: N_10  and  C_11
REMARK    6  A    between atoms: C_11  and  C_12
REMARK    7  A    between atoms: C_12  and  C_13
REMARK    8  A    between atoms: C_13  and  N_14
REMARK    9  A    between atoms: C_19  and  C_20
REMARK   10  A    between atoms: N_22  and  C_23
REMARK   11  A    between atoms: N_22  and  C_24
REMARK                            x       y       z     vdW  Elec       q    Type
REMARK                         _______ _______ _______ _____ _____    ______ ____
ROOT
ATOM      1  N   UNL     1       2.857   5.959  18.301  0.00  0.00    +0.000 N 
ATOM      2  C   UNL     1       2.399   4.678  18.550  0.00  0.00    +0.000 A 
ATOM      3  C   UNL     1       3.137   3.802  17.773  0.00  0.00    +0.000 A 
ATOM      4  C   UNL     1       4.057   4.565  17.001  0.00  0.00    +0.000 A 
ATOM      5  C   UNL     1       5.023   4.232  16.031  0.00  0.00    +0.000 A 
ATOM      6  C   UNL     1       5.762   5.231  15.367  0.00  0.00    +0.000 A 
ATOM      7  C   UNL     1       5.508   6.568  15.675  0.00  0.00    +0.000 A 
ATOM      8  C   UNL     1       4.586   6.924  16.679  0.00  0.00    +0.000 A 
ATOM      9  C   UNL     1       3.856   5.906  17.323  0.00  0.00    +0.000 A 
ATOM     10  C   UNL     1       2.908   2.324  17.769  0.00  0.00    +0.000 C 
ATOM     11  C   UNL     1       2.114   1.872  19.005  0.00  0.00    +0.000 C 
ATOM     12  C   UNL     1       0.906   2.778  19.243  0.00  0.00    +0.000 C 
ATOM     13  C   UNL     1       1.331   4.227  19.505  0.00  0.00    +0.000 C 
ENDROOT
BRANCH   6  14
ATOM     14  C   UNL     1       6.665   4.760  14.267  0.00  0.00    +0.000 C 
ATOM     15  O   UNL     1       7.847   5.104  14.374  0.00  0.00    +0.000 OA
ATOM     16  N   UNL     1       6.236   4.010  13.168  0.00  0.00    +0.000 N 
ATOM     17  C   UNL     1       4.891   3.556  12.854  0.00  0.00    +0.000 C 
ATOM     18  C   UNL     1       7.238   3.655  12.166  0.00  0.00    +0.000 C 
ENDBRANCH   6  14
BRANCH   1  19
ATOM     19  C   UNL     1       2.429   7.230  18.892  0.00  0.00    +0.000 C 
BRANCH  19  20
ATOM     20  C   UNL     1       2.279   8.401  17.938  0.00  0.00    +0.000 C 
BRANCH  20  21
ATOM     21  C   UNL     1       1.079   9.289  18.182  0.00  0.00    +0.000 C 
BRANCH  21  27
ATOM     22  C   UNL     1      -0.596  11.859  21.718  0.00  0.00    +0.000 A 
ATOM     23  C   UNL     1      -1.679  12.265  20.983  0.00  0.00    +0.000 A 
ATOM     24  C   UNL     1      -1.744  11.737  19.722  0.00  0.00    +0.000 A 
ATOM     25  N   UNL     1      -0.853  10.865  19.239  0.00  0.00    +0.000 NA
ATOM     26  C   UNL     1       0.163  10.535  20.036  0.00  0.00    +0.000 A 
ATOM     27  N   UNL     1       1.104   9.635  19.588  0.00  0.00    +0.000 N 
ATOM     28  N   UNL     1       0.349  11.022  21.259  0.00  0.00    +0.000 NA
ATOM     29  H   UNL     1       1.988   9.856  20.028  0.00  0.00    +0.000 HD
BRANCH  22  31
ATOM     30  C   UNL     1      -1.564  13.232  23.349  0.00  0.00    +0.000 C 
ATOM     31  O   UNL     1      -0.491  12.357  23.004  0.00  0.00    +0.000 OA
ENDBRANCH  22  31
BRANCH  24  32
ATOM     32  O   UNL     1      -2.785  12.134  18.910  0.00  0.00    +0.000 OA
ATOM     33  C   UNL     1      -2.836  11.389  17.691  0.00  0.00    +0.000 C 
ENDBRANCH  24  32
ENDBRANCH  21  27
ENDBRANCH  20  21
ENDBRANCH  19  20
ENDBRANCH   1  19
TORSDOF 7
ENDMDL
MODEL 5
REMARK VINA RESULT:      -8.5      1.031      1.290
REMARK  Name = 
REMARK  11 active torsions:
REMARK  status: ('A' for Active; 'I' for Inactive)
REMARK    1  A    between atoms: C_1  and  O_2
REMARK    2  A    between atoms: O_2  and  C_3
REMARK    3  A    between atoms: C_5  and  O_6
REMARK    4  A    between atoms: O_6  and  C_7
REMARK    5  A    between atoms: N_10  and  C_11
REMARK    6  A    between atoms: C_11  and  C_12
REMARK    7  A    between atoms: C_12  and  C_13
REMARK    8  A    between atoms: C_13  and  N_14
REMARK    9  A    between atoms: C_19  and  C_20
REMARK   10  A    between atoms: N_22  and  C_23
REMARK   11  A    between atoms: N_22  and  C_24
REMARK                            x       y       z     vdW  Elec       q    Type
REMARK                         _______ _______ _______ _____ _____    ______ ____
ROOT
ATOM      1  N   UNL     1       2.794   5.870  18.448  0.00  0.00    +0.000 N 
ATOM      2  C   UNL     1       2.345   4.578  18.650  0.00  0.00    +0.000 A 
ATOM      3  C   UNL     1       3.097   3.734  17.852  0.00  0.00    +0.000 A 
ATOM      4  C   UNL     1       4.016   4.529  17.113  0.00  0.00    +0.000 A 
ATOM      5  C   UNL     1       4.994   4.237  16.141  0.00  0.00    +0.000 A 
ATOM      6  C   UNL     1       5.730   5.263  15.516  0.00  0.00    +0.000 A 
ATOM      7  C   UNL     1       5.461   6.587  15.866  0.00  0.00    +0.000 A 
ATOM      8  C   UNL     1       4.528   6.903  16.873  0.00  0.00    +0.000 A 
ATOM      9  C   UNL     1       3.802   5.857  17.477  0.00  0.00    +0.000 A 
ATOM     10  C   UNL     1       2.881   2.255  17.797  0.00  0.00    +0.000 C 
ATOM     11  C   UNL     1       2.080   1.756  19.011  0.00  0.00    +0.000 C 
ATOM     12  C   UNL     1       0.863   2.644  19.268  0.00  0.00    +0.000 C 
ATOM     13  C   UNL     1       1.274   4.087  19.582  0.00  0.00    +0.000 C 
ENDROOT
BRANCH   6  14
ATOM     14  C   UNL     1       6.645   4.836  14.409  0.00  0.00    +0.000 C 
ATOM     15  O   UNL     1       7.821   5.196  14.532  0.00  0.00    +0.000 OA
ATOM     16  N   UNL     1       6.234   4.110  13.288  0.00  0.00    +0.000 N 
ATOM     17  C   UNL     1       4.898   3.643  12.955  0.00  0.00    +0.000 C 
ATOM     18  C   UNL     1       7.246   3.797  12.283  0.00  0.00    +0.000 C 
ENDBRANCH   6  14
BRANCH   1  19
ATOM     19  C   UNL     1       2.351   7.117  19.076  0.00  0.00    +0.000 C 
BRANCH  19  20
ATOM     20  C   UNL     1       1.940   7.030  20.534  0.00  0.00    +0.000 C 
BRANCH  20  21
ATOM     21  C   UNL     1       1.404   8.310  21.138  0.00  0.00    +0.000 C 
BRANCH  21  27
ATOM     22  C   UNL     1      -1.529  11.669  19.715  0.00  0.00    +0.000 A 
ATOM     23  C   UNL     1      -1.629  12.193  20.977  0.00  0.00    +0.000 A 
ATOM     24  C   UNL     1      -0.866  11.560  21.920  0.00  0.00    +0.000 A 
ATOM     25  N   UNL     1      -0.053  10.534  21.647  0.00  0.00    +0.000 NA
ATOM     26  C   UNL     1      -0.030  10.101  20.387  0.00  0.00    +0.000 A 
ATOM     27  N   UNL     1       0.796   9.051  20.053  0.00  0.00    +0.000 N 
ATOM     28  N   UNL     1      -0.763  10.611  19.402  0.00  0.00    +0.000 NA
ATOM     29  H   UNL     1       0.371   8.547  19.285  0.00  0.00    +0.000 HD
BRANCH  22  31
ATOM     30  C   UNL     1      -3.397  11.503  18.315  0.00  0.00    +0.000 C 
ATOM     31  O   UNL     1      -2.273  12.281  18.723  0.00  0.00    +0.000 OA
ENDBRANCH  22  31
BRANCH  24  32
ATOM     32  O   UNL     1      -0.948  12.008  23.222  0.00  0.00    +0.000 OA
ATOM     33  C   UNL     1      -1.768  13.172  23.345  0.00  0.00    +0.000 C 
ENDBRANCH  24  32
ENDBRANCH  21  27
ENDBRANCH  20  21
ENDBRANCH  19  20
ENDBRANCH   1  19
TORSDOF 7
ENDMDL
MODEL 6
REMARK VINA RESULT:      -8.5      2.182      2.597
REMARK  Name = 
REMARK  11 active torsions:
REMARK  status: ('A' for Active; 'I' for Inactive)
REMARK    1  A    between atoms: C_1  and  O_2
REMARK    2  A    between atoms: O_2  and  C_3
REMARK    3  A    between atoms: C_5  and  O_6
REMARK    4  A    between atoms: O_6  and  C_7
REMARK    5  A    between atoms: N_10  and  C_11
REMARK    6  A    between atoms: C_11  and  C_12
REMARK    7  A    between atoms: C_12  and  C_13
REMARK    8  A    between atoms: C_13  and  N_14
REMARK    9  A    between atoms: C_19  and  C_20
REMARK   10  A    between atoms: N_22  and  C_23
REMARK   11  A    between atoms: N_22  and  C_24
REMARK                            x       y       z     vdW  Elec       q    Type
REMARK                         _______ _______ _______ _____ _____    ______ ____
ROOT
ATOM      1  N   UNL     1       2.848   6.012  18.335  0.00  0.00    +0.000 N 
ATOM      2  C   UNL     1       2.388   4.736  18.602  0.00  0.00    +0.000 A 
ATOM      3  C   UNL     1       3.121   3.848  17.834  0.00  0.00    +0.000 A 
ATOM      4  C   UNL     1       4.039   4.597  17.049  0.00  0.00    +0.000 A 
ATOM      5  C   UNL     1       5.001   4.250  16.079  0.00  0.00    +0.000 A 
ATOM      6  C   UNL     1       5.739   5.238  15.398  0.00  0.00    +0.000 A 
ATOM      7  C   UNL     1       5.489   6.579  15.690  0.00  0.00    +0.000 A 
ATOM      8  C   UNL     1       4.572   6.952  16.693  0.00  0.00    +0.000 A 
ATOM      9  C   UNL     1       3.843   5.943  17.353  0.00  0.00    +0.000 A 
ATOM     10  C   UNL     1       2.889   2.370  17.851  0.00  0.00    +0.000 C 
ATOM     11  C   UNL     1       2.099   1.936  19.096  0.00  0.00    +0.000 C 
ATOM     12  C   UNL     1       0.894   2.848  19.327  0.00  0.00    +0.000 C 
ATOM     13  C   UNL     1       1.324   4.300  19.568  0.00  0.00    +0.000 C 
ENDROOT
BRANCH   6  14
ATOM     14  C   UNL     1       6.636   4.751  14.301  0.00  0.00    +0.000 C 
ATOM     15  O   UNL     1       7.823   5.075  14.410  0.00  0.00    +0.000 OA
ATOM     16  N   UNL     1       6.197   4.006  13.202  0.00  0.00    +0.000 N 
ATOM     17  C   UNL     1       4.845   3.574  12.886  0.00  0.00    +0.000 C 
ATOM     18  C   UNL     1       7.195   3.633  12.203  0.00  0.00    +0.000 C 
ENDBRANCH   6  14
BRANCH   1  19
ATOM     19  C   UNL     1       2.426   7.291  18.910  0.00  0.00    +0.000 C 
BRANCH  19  20
ATOM     20  C   UNL     1       1.854   8.311  17.943  0.00  0.00    +0.000 C 
BRANCH  20  21
ATOM     21  C   UNL     1       1.281   9.560  18.576  0.00  0.00    +0.000 C 
BRANCH  21  27
ATOM     22  C   UNL     1       2.325  14.123  18.580  0.00  0.00    +0.000 A 
ATOM     23  C   UNL     1       1.884  14.279  19.869  0.00  0.00    +0.000 A 
ATOM     24  C   UNL     1       1.442  13.129  20.464  0.00  0.00    +0.000 A 
ATOM     25  N   UNL     1       1.462  11.932  19.868  0.00  0.00    +0.000 NA
ATOM     26  C   UNL     1       1.910  11.890  18.613  0.00  0.00    +0.000 A 
ATOM     27  N   UNL     1       1.957  10.680  17.958  0.00  0.00    +0.000 N 
ATOM     28  N   UNL     1       2.320  12.951  17.924  0.00  0.00    +0.000 NA
ATOM     29  H   UNL     1       1.829  10.852  16.968  0.00  0.00    +0.000 HD
BRANCH  22  31
ATOM     30  C   UNL     1       3.793  15.943  18.686  0.00  0.00    +0.000 C 
ATOM     31  O   UNL     1       2.792  15.255  17.938  0.00  0.00    +0.000 OA
ENDBRANCH  22  31
BRANCH  24  32
ATOM     32  O   UNL     1       0.945  13.218  21.748  0.00  0.00    +0.000 OA
ATOM     33  C   UNL     1      -0.281  13.951  21.805  0.00  0.00    +0.000 C 
ENDBRANCH  24  32
ENDBRANCH  21  27
ENDBRANCH  20  21
ENDBRANCH  19  20
ENDBRANCH   1  19
TORSDOF 7
ENDMDL
MODEL 7
REMARK VINA RESULT:      -8.4      1.516      2.037
REMARK  Name = 
REMARK  11 active torsions:
REMARK  status: ('A' for Active; 'I' for Inactive)
REMARK    1  A    between atoms: C_1  and  O_2
REMARK    2  A    between atoms: O_2  and  C_3
REMARK    3  A    between atoms: C_5  and  O_6
REMARK    4  A    between atoms: O_6  and  C_7
REMARK    5  A    between atoms: N_10  and  C_11
REMARK    6  A    between atoms: C_11  and  C_12
REMARK    7  A    between atoms: C_12  and  C_13
REMARK    8  A    between atoms: C_13  and  N_14
REMARK    9  A    between atoms: C_19  and  C_20
REMARK   10  A    between atoms: N_22  and  C_23
REMARK   11  A    between atoms: N_22  and  C_24
REMARK                            x       y       z     vdW  Elec       q    Type
REMARK                         _______ _______ _______ _____ _____    ______ ____
ROOT
ATOM      1  N   UNL     1       2.856   5.996  18.338  0.00  0.00    +0.000 N 
ATOM      2  C   UNL     1       2.411   4.714  18.602  0.00  0.00    +0.000 A 
ATOM      3  C   UNL     1       3.161   3.835  17.840  0.00  0.00    +0.000 A 
ATOM      4  C   UNL     1       4.075   4.597  17.061  0.00  0.00    +0.000 A 
ATOM      5  C   UNL     1       5.048   4.261  16.099  0.00  0.00    +0.000 A 
ATOM      6  C   UNL     1       5.779   5.258  15.423  0.00  0.00    +0.000 A 
ATOM      7  C   UNL     1       5.510   6.596  15.712  0.00  0.00    +0.000 A 
ATOM      8  C   UNL     1       4.581   6.957  16.708  0.00  0.00    +0.000 A 
ATOM      9  C   UNL     1       3.859   5.940  17.364  0.00  0.00    +0.000 A 
ATOM     10  C   UNL     1       2.947   2.355  17.856  0.00  0.00    +0.000 C 
ATOM     11  C   UNL     1       2.153   1.912  19.096  0.00  0.00    +0.000 C 
ATOM     12  C   UNL     1       0.935   2.808  19.317  0.00  0.00    +0.000 C 
ATOM     13  C   UNL     1       1.345   4.265  19.561  0.00  0.00    +0.000 C 
ENDROOT
BRANCH   6  14
ATOM     14  C   UNL     1       6.690   4.782  14.333  0.00  0.00    +0.000 C 
ATOM     15  O   UNL     1       7.874   5.112  14.456  0.00  0.00    +0.000 OA
ATOM     16  N   UNL     1       6.267   4.042  13.225  0.00  0.00    +0.000 N 
ATOM     17  C   UNL     1       4.921   3.604  12.892  0.00  0.00    +0.000 C 
ATOM     18  C   UNL     1       7.277   3.680  12.235  0.00  0.00    +0.000 C 
ENDBRANCH   6  14
BRANCH   1  19
ATOM     19  C   UNL     1       2.414   7.270  18.910  0.00  0.00    +0.000 C 
BRANCH  19  20
ATOM     20  C   UNL     1       1.728   8.235  17.959  0.00  0.00    +0.000 C 
BRANCH  20  21
ATOM     21  C   UNL     1       1.563   9.648  18.474  0.00  0.00    +0.000 C 
BRANCH  21  27
ATOM     22  C   UNL     1      -0.442  11.720  22.162  0.00  0.00    +0.000 A 
ATOM     23  C   UNL     1      -0.061  12.966  21.739  0.00  0.00    +0.000 A 
ATOM     24  C   UNL     1       0.611  12.984  20.547  0.00  0.00    +0.000 A 
ATOM     25  N   UNL     1       0.857  11.889  19.820  0.00  0.00    +0.000 NA
ATOM     26  C   UNL     1       0.445  10.725  20.322  0.00  0.00    +0.000 A 
ATOM     27  N   UNL     1       0.668   9.569  19.609  0.00  0.00    +0.000 N 
ATOM     28  N   UNL     1      -0.175  10.588  21.491  0.00  0.00    +0.000 NA
ATOM     29  H   UNL     1       0.769   8.807  20.267  0.00  0.00    +0.000 HD
BRANCH  22  31
ATOM     30  C   UNL     1      -2.500  12.040  23.228  0.00  0.00    +0.000 C 
ATOM     31  O   UNL     1      -1.134  11.650  23.357  0.00  0.00    +0.000 OA
ENDBRANCH  22  31
BRANCH  24  32
ATOM     32  O   UNL     1       1.061  14.201  20.078  0.00  0.00    +0.000 OA
ATOM     33  C   UNL     1       0.385  15.301  20.691  0.00  0.00    +0.000 C 
ENDBRANCH  24  32
ENDBRANCH  21  27
ENDBRANCH  20  21
ENDBRANCH  19  20
ENDBRANCH   1  19
TORSDOF 7
ENDMDL
MODEL 8
REMARK VINA RESULT:      -8.4      1.373      1.666
REMARK  Name = 
REMARK  11 active torsions:
REMARK  status: ('A' for Active; 'I' for Inactive)
REMARK    1  A    between atoms: C_1  and  O_2
REMARK    2  A    between atoms: O_2  and  C_3
REMARK    3  A    between atoms: C_5  and  O_6
REMARK    4  A    between atoms: O_6  and  C_7
REMARK    5  A    between atoms: N_10  and  C_11
REMARK    6  A    between atoms: C_11  and  C_12
REMARK    7  A    between atoms: C_12  and  C_13
REMARK    8  A    between atoms: C_13  and  N_14
REMARK    9  A    between atoms: C_19  and  C_20
REMARK   10  A    between atoms: N_22  and  C_23
REMARK   11  A    between atoms: N_22  and  C_24
REMARK                            x       y       z     vdW  Elec       q    Type
REMARK                         _______ _______ _______ _____ _____    ______ ____
ROOT
ATOM      1  N   UNL     1       2.857   5.851  18.355  0.00  0.00    +0.000 N 
ATOM      2  C   UNL     1       2.381   4.569  18.561  0.00  0.00    +0.000 A 
ATOM      3  C   UNL     1       3.112   3.709  17.760  0.00  0.00    +0.000 A 
ATOM      4  C   UNL     1       4.044   4.483  17.016  0.00  0.00    +0.000 A 
ATOM      5  C   UNL     1       5.011   4.170  16.040  0.00  0.00    +0.000 A 
ATOM      6  C   UNL     1       5.765   5.179  15.410  0.00  0.00    +0.000 A 
ATOM      7  C   UNL     1       5.527   6.509  15.760  0.00  0.00    +0.000 A 
ATOM      8  C   UNL     1       4.605   6.845  16.771  0.00  0.00    +0.000 A 
ATOM      9  C   UNL     1       3.859   5.816  17.380  0.00  0.00    +0.000 A 
ATOM     10  C   UNL     1       2.864   2.234  17.708  0.00  0.00    +0.000 C 
ATOM     11  C   UNL     1       2.059   1.754  18.926  0.00  0.00    +0.000 C 
ATOM     12  C   UNL     1       0.861   2.667  19.188  0.00  0.00    +0.000 C 
ATOM     13  C   UNL     1       1.304   4.102  19.498  0.00  0.00    +0.000 C 
ENDROOT
BRANCH   6  14
ATOM     14  C   UNL     1       6.666   4.732  14.300  0.00  0.00    +0.000 C 
ATOM     15  O   UNL     1       7.848   5.074  14.412  0.00  0.00    +0.000 OA
ATOM     16  N   UNL     1       6.236   4.006  13.185  0.00  0.00    +0.000 N 
ATOM     17  C   UNL     1       4.891   3.558  12.864  0.00  0.00    +0.000 C 
ATOM     18  C   UNL     1       7.237   3.672  12.175  0.00  0.00    +0.000 C 
ENDBRANCH   6  14
BRANCH   1  19
ATOM     19  C   UNL     1       2.443   7.108  18.984  0.00  0.00    +0.000 C 
BRANCH  19  20
ATOM     20  C   UNL     1       2.532   8.355  18.124  0.00  0.00    +0.000 C 
BRANCH  20  21
ATOM     21  C   UNL     1       1.228   9.092  17.909  0.00  0.00    +0.000 C 
BRANCH  21  27
ATOM     22  C   UNL     1       0.594  13.059  20.311  0.00  0.00    +0.000 A 
ATOM     23  C   UNL     1       0.014  12.396  21.361  0.00  0.00    +0.000 A 
ATOM     24  C   UNL     1      -0.047  11.037  21.214  0.00  0.00    +0.000 A 
ATOM     25  N   UNL     1       0.446  10.385  20.156  0.00  0.00    +0.000 NA
ATOM     26  C   UNL     1       0.990  11.124  19.190  0.00  0.00    +0.000 A 
ATOM     27  N   UNL     1       1.519  10.499  18.083  0.00  0.00    +0.000 N 
ATOM     28  N   UNL     1       1.061  12.452  19.208  0.00  0.00    +0.000 NA
ATOM     29  H   UNL     1       1.427  11.125  17.293  0.00  0.00    +0.000 HD
BRANCH  22  31
ATOM     30  C   UNL     1       1.963  14.934  20.010  0.00  0.00    +0.000 C 
ATOM     31  O   UNL     1       0.690  14.435  20.416  0.00  0.00    +0.000 OA
ENDBRANCH  22  31
BRANCH  24  32
ATOM     32  O   UNL     1      -0.656  10.307  22.214  0.00  0.00    +0.000 OA
ATOM     33  C   UNL     1      -1.372  11.137  23.131  0.00  0.00    +0.000 C 
ENDBRANCH  24  32
ENDBRANCH  21  27
ENDBRANCH  20  21
ENDBRANCH  19  20
ENDBRANCH   1  19
TORSDOF 7
ENDMDL
MODEL 9
REMARK VINA RESULT:      -8.3      1.423      2.386
REMARK  Name = 
REMARK  11 active torsions:
REMARK  status: ('A' for Active; 'I' for Inactive)
REMARK    1  A    between atoms: C_1  and  O_2
REMARK    2  A    between atoms: O_2  and  C_3
REMARK    3  A    between atoms: C_5  and  O_6
REMARK    4  A    between atoms: O_6  and  C_7
REMARK    5  A    between atoms: N_10  and  C_11
REMARK    6  A    between atoms: C_11  and  C_12
REMARK    7  A    between atoms: C_12  and  C_13
REMARK    8  A    between atoms: C_13  and  N_14
REMARK    9  A    between atoms: C_19  and  C_20
REMARK   10  A    between atoms: N_22  and  C_23
REMARK   11  A    between atoms: N_22  and  C_24
REMARK                            x       y       z     vdW  Elec       q    Type
REMARK                         _______ _______ _______ _____ _____    ______ ____
ROOT
ATOM      1  N   UNL     1       2.695   5.980  18.465  0.00  0.00    +0.000 N 
ATOM      2  C   UNL     1       2.257   4.691  18.703  0.00  0.00    +0.000 A 
ATOM      3  C   UNL     1       3.027   3.831  17.939  0.00  0.00    +0.000 A 
ATOM      4  C   UNL     1       3.945   4.612  17.186  0.00  0.00    +0.000 A 
ATOM      5  C   UNL     1       4.936   4.301  16.233  0.00  0.00    +0.000 A 
ATOM      6  C   UNL     1       5.668   5.315  15.584  0.00  0.00    +0.000 A 
ATOM      7  C   UNL     1       5.382   6.646  15.891  0.00  0.00    +0.000 A 
ATOM      8  C   UNL     1       4.435   6.982  16.877  0.00  0.00    +0.000 A 
ATOM      9  C   UNL     1       3.713   5.948  17.506  0.00  0.00    +0.000 A 
ATOM     10  C   UNL     1       2.826   2.348  17.928  0.00  0.00    +0.000 C 
ATOM     11  C   UNL     1       2.017   1.878  19.148  0.00  0.00    +0.000 C 
ATOM     12  C   UNL     1       0.788   2.761  19.365  0.00  0.00    +0.000 C 
ATOM     13  C   UNL     1       1.181   4.217  19.638  0.00  0.00    +0.000 C 
ENDROOT
BRANCH   6  14
ATOM     14  C   UNL     1       6.600   4.864  14.501  0.00  0.00    +0.000 C 
ATOM     15  O   UNL     1       7.777   5.213  14.642  0.00  0.00    +0.000 OA
ATOM     16  N   UNL     1       6.203   4.127  13.382  0.00  0.00    +0.000 N 
ATOM     17  C   UNL     1       4.868   3.670  13.029  0.00  0.00    +0.000 C 
ATOM     18  C   UNL     1       7.230   3.791  12.400  0.00  0.00    +0.000 C 
ENDBRANCH   6  14
BRANCH   1  19
ATOM     19  C   UNL     1       2.232   7.242  19.050  0.00  0.00    +0.000 C 
BRANCH  19  20
ATOM     20  C   UNL     1       2.043   7.259  20.556  0.00  0.00    +0.000 C 
BRANCH  20  21
ATOM     21  C   UNL     1       0.799   7.967  21.047  0.00  0.00    +0.000 C 
BRANCH  21  27
ATOM     22  C   UNL     1       0.458  12.506  19.952  0.00  0.00    +0.000 A 
ATOM     23  C   UNL     1      -0.643  12.290  19.165  0.00  0.00    +0.000 A 
ATOM     24  C   UNL     1      -1.074  10.991  19.130  0.00  0.00    +0.000 A 
ATOM     25  N   UNL     1      -0.503  10.003  19.827  0.00  0.00    +0.000 NA
ATOM     26  C   UNL     1       0.563  10.319  20.561  0.00  0.00    +0.000 A 
ATOM     27  N   UNL     1       1.183   9.339  21.303  0.00  0.00    +0.000 N 
ATOM     28  N   UNL     1       1.093  11.537  20.632  0.00  0.00    +0.000 NA
ATOM     29  H   UNL     1       2.165   9.573  21.378  0.00  0.00    +0.000 HD
BRANCH  22  31
ATOM     30  C   UNL     1       1.422  14.137  21.325  0.00  0.00    +0.000 C 
ATOM     31  O   UNL     1       0.926  13.804  20.030  0.00  0.00    +0.000 OA
ENDBRANCH  22  31
BRANCH  24  32
ATOM     32  O   UNL     1      -2.154  10.692  18.325  0.00  0.00    +0.000 OA
ATOM     33  C   UNL     1      -1.785   9.893  17.199  0.00  0.00    +0.000 C 
ENDBRANCH  24  32
ENDBRANCH  21  27
ENDBRANCH  20  21
ENDBRANCH  19  20
ENDBRANCH   1  19
TORSDOF 7
ENDMDL
