MODEL 1
REMARK VINA RESULT:      -6.9      0.000      0.000
REMARK  Name = 
REMARK  7 active torsions:
REMARK  status: ('A' for Active; 'I' for Inactive)
REMARK    1  A    between atoms: C_1  and  C_2
REMARK    2  A    between atoms: C_4  and  C_5
REMARK    3  A    between atoms: N_6  and  C_7
REMARK    4  A    between atoms: C_12  and  C_14
REMARK    5  A    between atoms: C_14  and  O_15
REMARK    6  A    between atoms: O_15  and  C_16
REMARK    7  A    between atoms: C_20  and  C_21
REMARK                            x       y       z     vdW  Elec       q    Type
REMARK                         _______ _______ _______ _____ _____    ______ ____
ROOT
ATOM      1  C   UNL     1       4.719   3.239  19.610  0.00  0.00    +0.000 C 
ATOM      2  C   UNL     1       4.254   1.767  19.480  0.00  0.00    +0.000 C 
ATOM      3  C   UNL     1       3.038   1.575  18.555  0.00  0.00    +0.000 C 
ATOM      4  C   UNL     1       1.924   2.598  18.800  0.00  0.00    +0.000 C 
ATOM      5  N   UNL     1       2.442   3.959  18.930  0.00  0.00    +0.000 N 
ATOM      6  C   UNL     1       2.076   4.930  17.995  0.00  0.00    +0.000 C 
ATOM      7  O   UNL     1       1.289   4.686  17.075  0.00  0.00    +0.000 OA
ATOM      8  C   UNL     1       3.488   4.109  19.943  0.00  0.00    +0.000 C 
ENDROOT
BRANCH   1  14
ATOM      9  C   UNL     1       4.642   4.577  15.142  0.00  0.00    +0.000 C 
ATOM     10  C   UNL     1       5.270   4.421  16.467  0.00  0.00    +0.000 A 
ATOM     11  N   UNL     1       5.951   5.418  17.113  0.00  0.00    +0.000 NA
ATOM     12  C   UNL     1       6.122   4.939  18.332  0.00  0.00    +0.000 A 
ATOM     13  C   UNL     1       6.811   5.613  19.456  0.00  0.00    +0.000 C 
ATOM     14  N   UNL     1       5.412   3.762  18.434  0.00  0.00    +0.000 N 
ATOM     15  N   UNL     1       5.054   3.338  17.212  0.00  0.00    +0.000 NA
ENDBRANCH   1  14
BRANCH   6  16
ATOM     16  C   UNL     1       2.665   6.344  18.126  0.00  0.00    +0.000 C 
BRANCH  16  17
ATOM     17  O   UNL     1       2.471   6.860  19.440  0.00  0.00    +0.000 OA
BRANCH  17  18
ATOM     18  C   UNL     1       1.828   8.068  19.535  0.00  0.00    +0.000 A 
ATOM     19  C   UNL     1       1.643   8.976  18.488  0.00  0.00    +0.000 A 
ATOM     20  C   UNL     1       0.990  10.189  18.719  0.00  0.00    +0.000 A 
ATOM     21  C   UNL     1       0.506  10.498  19.985  0.00  0.00    +0.000 A 
ATOM     22  C   UNL     1       0.681   9.594  21.041  0.00  0.00    +0.000 A 
ATOM     23  C   UNL     1       1.348   8.386  20.810  0.00  0.00    +0.000 A 
BRANCH  22  24
ATOM     24  C   UNL     1       0.170   9.898  22.351  0.00  0.00    +0.000 C 
ATOM     25  N   UNL     1      -0.215  10.153  23.415  0.00  0.00    +0.000 NA
ENDBRANCH  22  24
ENDBRANCH  17  18
ENDBRANCH  16  17
ENDBRANCH   6  16
TORSDOF 5
ENDMDL
MODEL 2
REMARK VINA RESULT:      -6.9      2.982      6.840
REMARK  Name = 
REMARK  7 active torsions:
REMARK  status: ('A' for Active; 'I' for Inactive)
REMARK    1  A    between atoms: C_1  and  C_2
REMARK    2  A    between atoms: C_4  and  C_5
REMARK    3  A    between atoms: N_6  and  C_7
REMARK    4  A    between atoms: C_12  and  C_14
REMARK    5  A    between atoms: C_14  and  O_15
REMARK    6  A    between atoms: O_15  and  C_16
REMARK    7  A    between atoms: C_20  and  C_21
REMARK                            x       y       z     vdW  Elec       q    Type
REMARK                         _______ _______ _______ _____ _____    ______ ____
ROOT
ATOM      1  C   UNL     1       1.453   5.038  19.295  0.00  0.00    +0.000 C 
ATOM      2  C   UNL     1       1.100   4.226  20.566  0.00  0.00    +0.000 C 
ATOM      3  C   UNL     1       1.928   2.938  20.735  0.00  0.00    +0.000 C 
ATOM      4  C   UNL     1       2.047   2.121  19.444  0.00  0.00    +0.000 C 
ATOM      5  N   UNL     1       2.363   2.959  18.287  0.00  0.00    +0.000 N 
ATOM      6  C   UNL     1       3.569   2.772  17.608  0.00  0.00    +0.000 C 
ATOM      7  O   UNL     1       4.369   1.889  17.930  0.00  0.00    +0.000 OA
ATOM      8  C   UNL     1       1.440   4.077  18.086  0.00  0.00    +0.000 C 
ENDROOT
BRANCH   1  14
ATOM      9  C   UNL     1       6.118   4.982  19.355  0.00  0.00    +0.000 C 
ATOM     10  C   UNL     1       4.802   5.645  19.297  0.00  0.00    +0.000 A 
ATOM     11  N   UNL     1       4.481   6.633  18.403  0.00  0.00    +0.000 NA
ATOM     12  C   UNL     1       3.172   6.758  18.536  0.00  0.00    +0.000 A 
ATOM     13  C   UNL     1       2.298   7.700  17.799  0.00  0.00    +0.000 C 
ATOM     14  N   UNL     1       2.726   5.754  19.367  0.00  0.00    +0.000 N 
ATOM     15  N   UNL     1       3.767   5.191  20.001  0.00  0.00    +0.000 NA
ENDBRANCH   1  14
BRANCH   6  16
ATOM     16  C   UNL     1       3.900   3.691  16.421  0.00  0.00    +0.000 C 
BRANCH  16  17
ATOM     17  O   UNL     1       5.296   3.963  16.357  0.00  0.00    +0.000 OA
BRANCH  17  18
ATOM     18  C   UNL     1       5.834   4.118  15.105  0.00  0.00    +0.000 A 
ATOM     19  C   UNL     1       7.078   4.687  14.817  0.00  0.00    +0.000 A 
ATOM     20  C   UNL     1       7.504   4.811  13.493  0.00  0.00    +0.000 A 
ATOM     21  C   UNL     1       6.703   4.357  12.451  0.00  0.00    +0.000 A 
ATOM     22  C   UNL     1       5.456   3.781  12.726  0.00  0.00    +0.000 A 
ATOM     23  C   UNL     1       5.026   3.671  14.054  0.00  0.00    +0.000 A 
BRANCH  22  24
ATOM     24  C   UNL     1       4.627   3.294  11.656  0.00  0.00    +0.000 C 
ATOM     25  N   UNL     1       3.970   2.874  10.797  0.00  0.00    +0.000 NA
ENDBRANCH  22  24
ENDBRANCH  17  18
ENDBRANCH  16  17
ENDBRANCH   6  16
TORSDOF 5
ENDMDL
MODEL 3
REMARK VINA RESULT:      -6.7      1.052      1.110
REMARK  Name = 
REMARK  7 active torsions:
REMARK  status: ('A' for Active; 'I' for Inactive)
REMARK    1  A    between atoms: C_1  and  C_2
REMARK    2  A    between atoms: C_4  and  C_5
REMARK    3  A    between atoms: N_6  and  C_7
REMARK    4  A    between atoms: C_12  and  C_14
REMARK    5  A    between atoms: C_14  and  O_15
REMARK    6  A    between atoms: O_15  and  C_16
REMARK    7  A    between atoms: C_20  and  C_21
REMARK                            x       y       z     vdW  Elec       q    Type
REMARK                         _______ _______ _______ _____ _____    ______ ____
ROOT
ATOM      1  C   UNL     1       4.753   3.526  19.120  0.00  0.00    +0.000 C 
ATOM      2  C   UNL     1       4.151   2.251  18.480  0.00  0.00    +0.000 C 
ATOM      3  C   UNL     1       2.917   2.517  17.596  0.00  0.00    +0.000 C 
ATOM      4  C   UNL     1       1.905   3.470  18.241  0.00  0.00    +0.000 C 
ATOM      5  N   UNL     1       2.550   4.639  18.838  0.00  0.00    +0.000 N 
ATOM      6  C   UNL     1       2.272   5.913  18.337  0.00  0.00    +0.000 C 
ATOM      7  O   UNL     1       1.462   6.092  17.422  0.00  0.00    +0.000 OA
ATOM      8  C   UNL     1       3.610   4.316  19.795  0.00  0.00    +0.000 C 
ENDROOT
BRANCH   1  14
ATOM      9  C   UNL     1       4.763   6.545  15.562  0.00  0.00    +0.000 C 
ATOM     10  C   UNL     1       5.395   5.790  16.660  0.00  0.00    +0.000 A 
ATOM     11  N   UNL     1       6.238   6.345  17.586  0.00  0.00    +0.000 NA
ATOM     12  C   UNL     1       6.365   5.399  18.498  0.00  0.00    +0.000 A 
ATOM     13  C   UNL     1       7.179   5.468  19.733  0.00  0.00    +0.000 C 
ATOM     14  N   UNL     1       5.486   4.383  18.189  0.00  0.00    +0.000 N 
ATOM     15  N   UNL     1       5.035   4.537  16.935  0.00  0.00    +0.000 NA
ENDBRANCH   1  14
BRANCH   6  16
ATOM     16  C   UNL     1       2.993   7.124  18.953  0.00  0.00    +0.000 C 
BRANCH  16  17
ATOM     17  O   UNL     1       2.624   8.330  18.290  0.00  0.00    +0.000 OA
BRANCH  17  18
ATOM     18  C   UNL     1       1.556   9.013  18.813  0.00  0.00    +0.000 A 
ATOM     19  C   UNL     1       0.582   9.692  18.074  0.00  0.00    +0.000 A 
ATOM     20  C   UNL     1      -0.447  10.373  18.728  0.00  0.00    +0.000 A 
ATOM     21  C   UNL     1      -0.521  10.371  20.116  0.00  0.00    +0.000 A 
ATOM     22  C   UNL     1       0.446   9.692  20.868  0.00  0.00    +0.000 A 
ATOM     23  C   UNL     1       1.484   9.022  20.210  0.00  0.00    +0.000 A 
BRANCH  22  24
ATOM     24  C   UNL     1       0.370   9.671  22.304  0.00  0.00    +0.000 C 
ATOM     25  N   UNL     1       0.281   9.667  23.461  0.00  0.00    +0.000 NA
ENDBRANCH  22  24
ENDBRANCH  17  18
ENDBRANCH  16  17
ENDBRANCH   6  16
TORSDOF 5
ENDMDL
MODEL 4
REMARK VINA RESULT:      -6.6      1.421      2.084
REMARK  Name = 
REMARK  7 active torsions:
REMARK  status: ('A' for Active; 'I' for Inactive)
REMARK    1  A    between atoms: C_1  and  C_2
REMARK    2  A    between atoms: C_4  and  C_5
REMARK    3  A    between atoms: N_6  and  C_7
REMARK    4  A    between atoms: C_12  and  C_14
REMARK    5  A    between atoms: C_14  and  O_15
REMARK    6  A    between atoms: O_15  and  C_16
REMARK    7  A    between atoms: C_20  and  C_21
REMARK                            x       y       z     vdW  Elec       q    Type
REMARK                         _______ _______ _______ _____ _____    ______ ____
ROOT
ATOM      1  C   UNL     1       5.011   4.045  18.420  0.00  0.00    +0.000 C 
ATOM      2  C   UNL     1       4.472   2.769  17.727  0.00  0.00    +0.000 C 
ATOM      3  C   UNL     1       3.102   2.957  17.050  0.00  0.00    +0.000 C 
ATOM      4  C   UNL     1       2.092   3.707  17.925  0.00  0.00    +0.000 C 
ATOM      5  N   UNL     1       2.679   4.887  18.559  0.00  0.00    +0.000 N 
ATOM      6  C   UNL     1       2.188   6.156  18.245  0.00  0.00    +0.000 C 
ATOM      7  O   UNL     1       1.238   6.315  17.471  0.00  0.00    +0.000 OA
ATOM      8  C   UNL     1       3.896   4.614  19.325  0.00  0.00    +0.000 C 
ENDROOT
BRANCH   1  14
ATOM      9  C   UNL     1       7.638   7.815  17.610  0.00  0.00    +0.000 C 
ATOM     10  C   UNL     1       6.765   6.697  17.206  0.00  0.00    +0.000 A 
ATOM     11  N   UNL     1       7.030   5.860  16.154  0.00  0.00    +0.000 NA
ATOM     12  C   UNL     1       6.150   4.886  16.302  0.00  0.00    +0.000 A 
ATOM     13  C   UNL     1       5.988   3.703  15.426  0.00  0.00    +0.000 C 
ATOM     14  N   UNL     1       5.500   5.073  17.503  0.00  0.00    +0.000 N 
ATOM     15  N   UNL     1       5.739   6.311  17.963  0.00  0.00    +0.000 NA
ENDBRANCH   1  14
BRANCH   6  16
ATOM     16  C   UNL     1       2.846   7.385  18.891  0.00  0.00    +0.000 C 
BRANCH  16  17
ATOM     17  O   UNL     1       2.410   8.588  18.264  0.00  0.00    +0.000 OA
BRANCH  17  18
ATOM     18  C   UNL     1       1.357   9.238  18.855  0.00  0.00    +0.000 A 
ATOM     19  C   UNL     1       0.352   9.941  18.183  0.00  0.00    +0.000 A 
ATOM     20  C   UNL     1      -0.658  10.584  18.903  0.00  0.00    +0.000 A 
ATOM     21  C   UNL     1      -0.683  10.518  20.291  0.00  0.00    +0.000 A 
ATOM     22  C   UNL     1       0.315   9.813  20.977  0.00  0.00    +0.000 A 
ATOM     23  C   UNL     1       1.334   9.183  20.253  0.00  0.00    +0.000 A 
BRANCH  22  24
ATOM     24  C   UNL     1       0.290   9.726  22.412  0.00  0.00    +0.000 C 
ATOM     25  N   UNL     1       0.261   9.685  23.571  0.00  0.00    +0.000 NA
ENDBRANCH  22  24
ENDBRANCH  17  18
ENDBRANCH  16  17
ENDBRANCH   6  16
TORSDOF 5
ENDMDL
MODEL 5
REMARK VINA RESULT:      -6.6      1.436      1.857
REMARK  Name = 
REMARK  7 active torsions:
REMARK  status: ('A' for Active; 'I' for Inactive)
REMARK    1  A    between atoms: C_1  and  C_2
REMARK    2  A    between atoms: C_4  and  C_5
REMARK    3  A    between atoms: N_6  and  C_7
REMARK    4  A    between atoms: C_12  and  C_14
REMARK    5  A    between atoms: C_14  and  O_15
REMARK    6  A    between atoms: O_15  and  C_16
REMARK    7  A    between atoms: C_20  and  C_21
REMARK                            x       y       z     vdW  Elec       q    Type
REMARK                         _______ _______ _______ _____ _____    ______ ____
ROOT
ATOM      1  C   UNL     1       4.689   3.193  19.352  0.00  0.00    +0.000 C 
ATOM      2  C   UNL     1       3.984   1.878  18.938  0.00  0.00    +0.000 C 
ATOM      3  C   UNL     1       2.759   2.086  18.027  0.00  0.00    +0.000 C 
ATOM      4  C   UNL     1       1.831   3.207  18.506  0.00  0.00    +0.000 C 
ATOM      5  N   UNL     1       2.571   4.407  18.897  0.00  0.00    +0.000 N 
ATOM      6  C   UNL     1       2.380   5.597  18.190  0.00  0.00    +0.000 C 
ATOM      7  O   UNL     1       1.570   5.681  17.261  0.00  0.00    +0.000 OA
ATOM      8  C   UNL     1       3.619   4.169  19.890  0.00  0.00    +0.000 C 
ENDROOT
BRANCH   1  14
ATOM      9  C   UNL     1       4.917   5.095  15.098  0.00  0.00    +0.000 C 
ATOM     10  C   UNL     1       5.464   4.737  16.420  0.00  0.00    +0.000 A 
ATOM     11  N   UNL     1       6.157   5.604  17.222  0.00  0.00    +0.000 NA
ATOM     12  C   UNL     1       6.238   4.964  18.375  0.00  0.00    +0.000 A 
ATOM     13  C   UNL     1       6.898   5.450  19.609  0.00  0.00    +0.000 C 
ATOM     14  N   UNL     1       5.469   3.824  18.289  0.00  0.00    +0.000 N 
ATOM     15  N   UNL     1       5.157   3.581  17.006  0.00  0.00    +0.000 NA
ENDBRANCH   1  14
BRANCH   6  16
ATOM     16  C   UNL     1       3.198   6.835  18.590  0.00  0.00    +0.000 C 
BRANCH  16  17
ATOM     17  O   UNL     1       2.586   8.029  18.112  0.00  0.00    +0.000 OA
BRANCH  17  18
ATOM     18  C   UNL     1       1.690   8.637  18.953  0.00  0.00    +0.000 A 
ATOM     19  C   UNL     1       1.520   8.347  20.310  0.00  0.00    +0.000 A 
ATOM     20  C   UNL     1       0.552   9.023  21.057  0.00  0.00    +0.000 A 
ATOM     21  C   UNL     1      -0.240   9.998  20.463  0.00  0.00    +0.000 A 
ATOM     22  C   UNL     1      -0.078  10.301  19.105  0.00  0.00    +0.000 A 
ATOM     23  C   UNL     1       0.883   9.612  18.356  0.00  0.00    +0.000 A 
BRANCH  22  24
ATOM     24  C   UNL     1      -0.883  11.319  18.484  0.00  0.00    +0.000 C 
ATOM     25  N   UNL     1      -1.527  12.157  18.008  0.00  0.00    +0.000 NA
ENDBRANCH  22  24
ENDBRANCH  17  18
ENDBRANCH  16  17
ENDBRANCH   6  16
TORSDOF 5
ENDMDL
MODEL 6
REMARK VINA RESULT:      -6.5      2.846      5.652
REMARK  Name = 
REMARK  7 active torsions:
REMARK  status: ('A' for Active; 'I' for Inactive)
REMARK    1  A    between atoms: C_1  and  C_2
REMARK    2  A    between atoms: C_4  and  C_5
REMARK    3  A    between atoms: N_6  and  C_7
REMARK    4  A    between atoms: C_12  and  C_14
REMARK    5  A    between atoms: C_14  and  O_15
REMARK    6  A    between atoms: O_15  and  C_16
REMARK    7  A    between atoms: C_20  and  C_21
REMARK                            x       y       z     vdW  Elec       q    Type
REMARK                         _______ _______ _______ _____ _____    ______ ____
ROOT
ATOM      1  C   UNL     1       1.351   4.066  19.009  0.00  0.00    +0.000 C 
ATOM      2  C   UNL     1       0.469   3.779  20.249  0.00  0.00    +0.000 C 
ATOM      3  C   UNL     1       1.236   3.159  21.432  0.00  0.00    +0.000 C 
ATOM      4  C   UNL     1       2.175   2.022  21.016  0.00  0.00    +0.000 C 
ATOM      5  N   UNL     1       2.960   2.360  19.829  0.00  0.00    +0.000 N 
ATOM      6  C   UNL     1       4.351   2.444  19.922  0.00  0.00    +0.000 C 
ATOM      7  O   UNL     1       4.951   2.202  20.974  0.00  0.00    +0.000 OA
ATOM      8  C   UNL     1       2.158   2.790  18.682  0.00  0.00    +0.000 C 
ENDROOT
BRANCH   1  14
ATOM      9  C   UNL     1       3.876   7.484  17.085  0.00  0.00    +0.000 C 
ATOM     10  C   UNL     1       3.272   6.762  18.220  0.00  0.00    +0.000 A 
ATOM     11  N   UNL     1       2.586   7.372  19.237  0.00  0.00    +0.000 NA
ATOM     12  C   UNL     1       2.024   6.364  19.880  0.00  0.00    +0.000 A 
ATOM     13  C   UNL     1       1.161   6.456  21.081  0.00  0.00    +0.000 C 
ATOM     14  N   UNL     1       2.245   5.214  19.154  0.00  0.00    +0.000 N 
ATOM     15  N   UNL     1       3.196   5.433  18.232  0.00  0.00    +0.000 NA
ENDBRANCH   1  14
BRANCH   6  16
ATOM     16  C   UNL     1       5.153   2.842  18.672  0.00  0.00    +0.000 C 
BRANCH  16  17
ATOM     17  O   UNL     1       6.101   3.862  18.976  0.00  0.00    +0.000 OA
BRANCH  17  18
ATOM     18  C   UNL     1       6.470   4.682  17.941  0.00  0.00    +0.000 A 
ATOM     19  C   UNL     1       6.383   4.367  16.581  0.00  0.00    +0.000 A 
ATOM     20  C   UNL     1       6.816   5.283  15.619  0.00  0.00    +0.000 A 
ATOM     21  C   UNL     1       7.323   6.519  16.003  0.00  0.00    +0.000 A 
ATOM     22  C   UNL     1       7.411   6.849  17.362  0.00  0.00    +0.000 A 
ATOM     23  C   UNL     1       6.990   5.923  18.323  0.00  0.00    +0.000 A 
BRANCH  22  24
ATOM     24  C   UNL     1       7.920   8.131  17.769  0.00  0.00    +0.000 C 
ATOM     25  N   UNL     1       8.304   9.178  18.089  0.00  0.00    +0.000 NA
ENDBRANCH  22  24
ENDBRANCH  17  18
ENDBRANCH  16  17
ENDBRANCH   6  16
TORSDOF 5
ENDMDL
MODEL 7
REMARK VINA RESULT:      -6.4      2.838      7.268
REMARK  Name = 
REMARK  7 active torsions:
REMARK  status: ('A' for Active; 'I' for Inactive)
REMARK    1  A    between atoms: C_1  and  C_2
REMARK    2  A    between atoms: C_4  and  C_5
REMARK    3  A    between atoms: N_6  and  C_7
REMARK    4  A    between atoms: C_12  and  C_14
REMARK    5  A    between atoms: C_14  and  O_15
REMARK    6  A    between atoms: O_15  and  C_16
REMARK    7  A    between atoms: C_20  and  C_21
REMARK                            x       y       z     vdW  Elec       q    Type
REMARK                         _______ _______ _______ _____ _____    ______ ____
ROOT
ATOM      1  C   UNL     1       2.166   4.466  18.107  0.00  0.00    +0.000 C 
ATOM      2  C   UNL     1       1.902   3.347  19.145  0.00  0.00    +0.000 C 
ATOM      3  C   UNL     1       3.174   2.825  19.838  0.00  0.00    +0.000 C 
ATOM      4  C   UNL     1       4.328   2.560  18.866  0.00  0.00    +0.000 C 
ATOM      5  N   UNL     1       4.503   3.650  17.906  0.00  0.00    +0.000 N 
ATOM      6  C   UNL     1       5.689   4.388  17.908  0.00  0.00    +0.000 C 
ATOM      7  O   UNL     1       6.621   4.123  18.674  0.00  0.00    +0.000 OA
ATOM      8  C   UNL     1       3.292   3.994  17.161  0.00  0.00    +0.000 C 
ENDROOT
BRANCH   1  14
ATOM      9  C   UNL     1       2.197   9.123  17.828  0.00  0.00    +0.000 C 
ATOM     10  C   UNL     1       2.391   7.836  18.522  0.00  0.00    +0.000 A 
ATOM     11  N   UNL     1       1.930   7.570  19.784  0.00  0.00    +0.000 NA
ATOM     12  C   UNL     1       2.100   6.266  19.908  0.00  0.00    +0.000 A 
ATOM     13  C   UNL     1       1.769   5.443  21.094  0.00  0.00    +0.000 C 
ATOM     14  N   UNL     1       2.498   5.766  18.687  0.00  0.00    +0.000 N 
ATOM     15  N   UNL     1       2.876   6.773  17.884  0.00  0.00    +0.000 NA
ENDBRANCH   1  14
BRANCH   6  16
ATOM     16  C   UNL     1       5.836   5.556  16.919  0.00  0.00    +0.000 C 
BRANCH  16  17
ATOM     17  O   UNL     1       5.181   5.269  15.687  0.00  0.00    +0.000 OA
BRANCH  17  18
ATOM     18  C   UNL     1       5.989   4.978  14.618  0.00  0.00    +0.000 A 
ATOM     19  C   UNL     1       7.183   5.631  14.297  0.00  0.00    +0.000 A 
ATOM     20  C   UNL     1       7.906   5.256  13.163  0.00  0.00    +0.000 A 
ATOM     21  C   UNL     1       7.455   4.221  12.352  0.00  0.00    +0.000 A 
ATOM     22  C   UNL     1       6.263   3.555  12.665  0.00  0.00    +0.000 A 
ATOM     23  C   UNL     1       5.533   3.943  13.794  0.00  0.00    +0.000 A 
BRANCH  22  24
ATOM     24  C   UNL     1       5.796   2.472  11.840  0.00  0.00    +0.000 C 
ATOM     25  N   UNL     1       5.391   1.604  11.186  0.00  0.00    +0.000 NA
ENDBRANCH  22  24
ENDBRANCH  17  18
ENDBRANCH  16  17
ENDBRANCH   6  16
TORSDOF 5
ENDMDL
MODEL 8
REMARK VINA RESULT:      -6.4      2.411      6.516
REMARK  Name = 
REMARK  7 active torsions:
REMARK  status: ('A' for Active; 'I' for Inactive)
REMARK    1  A    between atoms: C_1  and  C_2
REMARK    2  A    between atoms: C_4  and  C_5
REMARK    3  A    between atoms: N_6  and  C_7
REMARK    4  A    between atoms: C_12  and  C_14
REMARK    5  A    between atoms: C_14  and  O_15
REMARK    6  A    between atoms: O_15  and  C_16
REMARK    7  A    between atoms: C_20  and  C_21
REMARK                            x       y       z     vdW  Elec       q    Type
REMARK                         _______ _______ _______ _____ _____    ______ ____
ROOT
ATOM      1  C   UNL     1       1.910   4.496  18.085  0.00  0.00    +0.000 C 
ATOM      2  C   UNL     1       0.925   3.314  18.255  0.00  0.00    +0.000 C 
ATOM      3  C   UNL     1       1.490   2.142  19.080  0.00  0.00    +0.000 C 
ATOM      4  C   UNL     1       2.918   1.755  18.682  0.00  0.00    +0.000 C 
ATOM      5  N   UNL     1       3.783   2.924  18.523  0.00  0.00    +0.000 N 
ATOM      6  C   UNL     1       4.883   3.089  19.367  0.00  0.00    +0.000 C 
ATOM      7  O   UNL     1       5.177   2.254  20.227  0.00  0.00    +0.000 OA
ATOM      8  C   UNL     1       3.264   3.933  17.598  0.00  0.00    +0.000 C 
ENDROOT
BRANCH   1  14
ATOM      9  C   UNL     1       1.520   8.587  20.294  0.00  0.00    +0.000 C 
ATOM     10  C   UNL     1       1.805   7.142  20.224  0.00  0.00    +0.000 A 
ATOM     11  N   UNL     1       1.321   6.221  21.115  0.00  0.00    +0.000 NA
ATOM     12  C   UNL     1       1.606   5.062  20.550  0.00  0.00    +0.000 A 
ATOM     13  C   UNL     1       1.305   3.718  21.096  0.00  0.00    +0.000 C 
ATOM     14  N   UNL     1       2.097   5.308  19.286  0.00  0.00    +0.000 N 
ATOM     15  N   UNL     1       2.412   6.607  19.165  0.00  0.00    +0.000 NA
ENDBRANCH   1  14
BRANCH   6  16
ATOM     16  C   UNL     1       5.755   4.346  19.209  0.00  0.00    +0.000 C 
BRANCH  16  17
ATOM     17  O   UNL     1       6.631   4.225  18.092  0.00  0.00    +0.000 OA
BRANCH  17  18
ATOM     18  C   UNL     1       6.234   4.842  16.934  0.00  0.00    +0.000 A 
ATOM     19  C   UNL     1       5.695   6.129  16.840  0.00  0.00    +0.000 A 
ATOM     20  C   UNL     1       5.306   6.638  15.598  0.00  0.00    +0.000 A 
ATOM     21  C   UNL     1       5.465   5.878  14.446  0.00  0.00    +0.000 A 
ATOM     22  C   UNL     1       6.007   4.589  14.526  0.00  0.00    +0.000 A 
ATOM     23  C   UNL     1       6.383   4.076  15.773  0.00  0.00    +0.000 A 
BRANCH  22  24
ATOM     24  C   UNL     1       6.189   3.800  13.336  0.00  0.00    +0.000 C 
ATOM     25  N   UNL     1       6.344   3.141  12.395  0.00  0.00    +0.000 NA
ENDBRANCH  22  24
ENDBRANCH  17  18
ENDBRANCH  16  17
ENDBRANCH   6  16
TORSDOF 5
ENDMDL
MODEL 9
REMARK VINA RESULT:      -6.3      2.854      6.161
REMARK  Name = 
REMARK  7 active torsions:
REMARK  status: ('A' for Active; 'I' for Inactive)
REMARK    1  A    between atoms: C_1  and  C_2
REMARK    2  A    between atoms: C_4  and  C_5
REMARK    3  A    between atoms: N_6  and  C_7
REMARK    4  A    between atoms: C_12  and  C_14
REMARK    5  A    between atoms: C_14  and  O_15
REMARK    6  A    between atoms: O_15  and  C_16
REMARK    7  A    between atoms: C_20  and  C_21
REMARK                            x       y       z     vdW  Elec       q    Type
REMARK                         _______ _______ _______ _____ _____    ______ ____
ROOT
ATOM      1  C   UNL     1       1.401   4.050  18.848  0.00  0.00    +0.000 C 
ATOM      2  C   UNL     1       0.448   3.737  20.028  0.00  0.00    +0.000 C 
ATOM      3  C   UNL     1       1.147   3.104  21.246  0.00  0.00    +0.000 C 
ATOM      4  C   UNL     1       2.119   1.981  20.870  0.00  0.00    +0.000 C 
ATOM      5  N   UNL     1       2.971   2.344  19.738  0.00  0.00    +0.000 N 
ATOM      6  C   UNL     1       4.354   2.437  19.916  0.00  0.00    +0.000 C 
ATOM      7  O   UNL     1       4.891   2.183  20.999  0.00  0.00    +0.000 OA
ATOM      8  C   UNL     1       2.237   2.786  18.551  0.00  0.00    +0.000 C 
ENDROOT
BRANCH   1  14
ATOM      9  C   UNL     1       3.887   7.608  17.138  0.00  0.00    +0.000 C 
ATOM     10  C   UNL     1       3.284   6.816  18.226  0.00  0.00    +0.000 A 
ATOM     11  N   UNL     1       2.579   7.358  19.268  0.00  0.00    +0.000 NA
ATOM     12  C   UNL     1       2.027   6.307  19.849  0.00  0.00    +0.000 A 
ATOM     13  C   UNL     1       1.152   6.320  21.044  0.00  0.00    +0.000 C 
ATOM     14  N   UNL     1       2.274   5.202  19.064  0.00  0.00    +0.000 N 
ATOM     15  N   UNL     1       3.230   5.486  18.165  0.00  0.00    +0.000 NA
ENDBRANCH   1  14
BRANCH   6  16
ATOM     16  C   UNL     1       5.227   2.861  18.724  0.00  0.00    +0.000 C 
BRANCH  16  17
ATOM     17  O   UNL     1       6.081   3.946  19.075  0.00  0.00    +0.000 OA
BRANCH  17  18
ATOM     18  C   UNL     1       6.504   4.749  18.047  0.00  0.00    +0.000 A 
ATOM     19  C   UNL     1       7.075   6.018  18.186  0.00  0.00    +0.000 A 
ATOM     20  C   UNL     1       7.445   6.749  17.055  0.00  0.00    +0.000 A 
ATOM     21  C   UNL     1       7.263   6.218  15.784  0.00  0.00    +0.000 A 
ATOM     22  C   UNL     1       6.696   4.947  15.631  0.00  0.00    +0.000 A 
ATOM     23  C   UNL     1       6.314   4.222  16.765  0.00  0.00    +0.000 A 
BRANCH  22  24
ATOM     24  C   UNL     1       6.517   4.382  14.319  0.00  0.00    +0.000 C 
ATOM     25  N   UNL     1       6.397   3.910  13.267  0.00  0.00    +0.000 NA
ENDBRANCH  22  24
ENDBRANCH  17  18
ENDBRANCH  16  17
ENDBRANCH   6  16
TORSDOF 5
ENDMDL
