MODEL 1
REMARK VINA RESULT:     -10.4      0.000      0.000
REMARK  Name = 
REMARK  6 active torsions:
REMARK  status: ('A' for Active; 'I' for Inactive)
REMARK    1  A    between atoms: C_1  and  O_2
REMARK    2  A    between atoms: O_2  and  C_3
REMARK    3  A    between atoms: C_5  and  C_6
REMARK    4  A    between atoms: N_10  and  C_11
REMARK    5  A    between atoms: C_14  and  N_15
REMARK    6  A    between atoms: C_30  and  O_31
REMARK                            x       y       z     vdW  Elec       q    Type
REMARK                         _______ _______ _______ _____ _____    ______ ____
ROOT
ATOM      1  C   UNL     1       3.893   7.468  17.065  0.00  0.00    +0.000 C 
ATOM      2  C   UNL     1       2.943   7.362  18.006  0.00  0.00    +0.000 C 
ATOM      3  C   UNL     1       2.112   8.552  18.283  0.00  0.00    +0.000 C 
ATOM      4  O   UNL     1       1.997   9.522  17.553  0.00  0.00    +0.000 OA
ATOM      5  N   UNL     1       1.626   8.286  19.566  0.00  0.00    +0.000 N 
ATOM      6  N   UNL     1       1.923   6.996  20.023  0.00  0.00    +0.000 NA
ATOM      7  C   UNL     1       2.651   6.401  19.096  0.00  0.00    +0.000 C 
ATOM      8  N   UNL     1       3.061   5.083  19.149  0.00  0.00    +0.000 N 
ATOM      9  C   UNL     1       2.888   4.178  17.996  0.00  0.00    +0.000 C 
ATOM     10  C   UNL     1       1.696   3.232  18.230  0.00  0.00    +0.000 C 
ATOM     11  O   UNL     1       1.852   2.492  19.451  0.00  0.00    +0.000 OA
ATOM     12  C   UNL     1       1.935   3.388  20.571  0.00  0.00    +0.000 C 
ATOM     13  C   UNL     1       3.117   4.355  20.427  0.00  0.00    +0.000 C 
ENDROOT
BRANCH   1  16
ATOM     14  C   UNL     1       6.263   4.678  16.069  0.00  0.00    +0.000 A 
ATOM     15  C   UNL     1       5.167   5.553  16.021  0.00  0.00    +0.000 A 
ATOM     16  C   UNL     1       5.122   6.697  16.830  0.00  0.00    +0.000 A 
ATOM     17  C   UNL     1       6.214   6.974  17.664  0.00  0.00    +0.000 A 
ATOM     18  C   UNL     1       7.277   6.079  17.765  0.00  0.00    +0.000 A 
ATOM     19  C   UNL     1       7.271   4.912  17.007  0.00  0.00    +0.000 A 
BRANCH  14  21
ATOM     20  C   UNL     1       6.234   3.914  13.841  0.00  0.00    +0.000 C 
ATOM     21  O   UNL     1       6.184   3.596  15.232  0.00  0.00    +0.000 OA
ENDBRANCH  14  21
BRANCH  19  22
ATOM     22  O   UNL     1       8.232   3.976  17.265  0.00  0.00    +0.000 OA
ATOM     23  H   UNL     1       7.802   3.103  17.206  0.00  0.00    +0.000 HD
ENDBRANCH  19  22
ENDBRANCH   1  16
BRANCH   5  24
ATOM     24  C   UNL     1       0.973   9.203  20.432  0.00  0.00    +0.000 A 
ATOM     25  C   UNL     1       0.773   8.914  21.793  0.00  0.00    +0.000 A 
ATOM     26  C   UNL     1       0.085   9.796  22.636  0.00  0.00    +0.000 A 
ATOM     27  C   UNL     1      -0.416  10.992  22.119  0.00  0.00    +0.000 A 
ATOM     28  C   UNL     1      -0.227  11.308  20.769  0.00  0.00    +0.000 A 
ATOM     29  C   UNL     1       0.465  10.415  19.937  0.00  0.00    +0.000 A 
BRANCH  27  30
ATOM     30  N   UNL     1      -1.143  11.914  22.997  0.00  0.00    +0.000 N 
ATOM     31  O   UNL     1      -0.574  12.962  23.338  0.00  0.00    +0.000 OA
ATOM     32  O   UNL     1      -2.285  11.588  23.359  0.00  0.00    +0.000 OA
ENDBRANCH  27  30
ENDBRANCH   5  24
TORSDOF 5
ENDMDL
MODEL 2
REMARK VINA RESULT:     -10.3      0.129      1.034
REMARK  Name = 
REMARK  6 active torsions:
REMARK  status: ('A' for Active; 'I' for Inactive)
REMARK    1  A    between atoms: C_1  and  O_2
REMARK    2  A    between atoms: O_2  and  C_3
REMARK    3  A    between atoms: C_5  and  C_6
REMARK    4  A    between atoms: N_10  and  C_11
REMARK    5  A    between atoms: C_14  and  N_15
REMARK    6  A    between atoms: C_30  and  O_31
REMARK                            x       y       z     vdW  Elec       q    Type
REMARK                         _______ _______ _______ _____ _____    ______ ____
ROOT
ATOM      1  C   UNL     1       3.920   7.419  17.087  0.00  0.00    +0.000 C 
ATOM      2  C   UNL     1       2.948   7.294  18.002  0.00  0.00    +0.000 C 
ATOM      3  C   UNL     1       2.088   8.468  18.256  0.00  0.00    +0.000 C 
ATOM      4  O   UNL     1       1.974   9.436  17.524  0.00  0.00    +0.000 OA
ATOM      5  N   UNL     1       1.572   8.192  19.526  0.00  0.00    +0.000 N 
ATOM      6  N   UNL     1       1.881   6.908  19.991  0.00  0.00    +0.000 NA
ATOM      7  C   UNL     1       2.646   6.328  19.085  0.00  0.00    +0.000 C 
ATOM      8  N   UNL     1       3.078   5.017  19.149  0.00  0.00    +0.000 N 
ATOM      9  C   UNL     1       2.954   4.110  17.991  0.00  0.00    +0.000 C 
ATOM     10  C   UNL     1       1.775   3.141  18.194  0.00  0.00    +0.000 C 
ATOM     11  O   UNL     1       1.912   2.404  19.418  0.00  0.00    +0.000 OA
ATOM     12  C   UNL     1       1.947   3.301  20.540  0.00  0.00    +0.000 C 
ATOM     13  C   UNL     1       3.114   4.290  20.428  0.00  0.00    +0.000 C 
ENDROOT
BRANCH   1  16
ATOM     14  C   UNL     1       6.371   4.687  16.127  0.00  0.00    +0.000 A 
ATOM     15  C   UNL     1       5.265   5.547  16.053  0.00  0.00    +0.000 A 
ATOM     16  C   UNL     1       5.170   6.672  16.885  0.00  0.00    +0.000 A 
ATOM     17  C   UNL     1       6.223   6.946  17.769  0.00  0.00    +0.000 A 
ATOM     18  C   UNL     1       7.295   6.064  17.893  0.00  0.00    +0.000 A 
ATOM     19  C   UNL     1       7.337   4.915  17.110  0.00  0.00    +0.000 A 
BRANCH  14  21
ATOM     20  C   UNL     1       6.312   3.978  13.880  0.00  0.00    +0.000 C 
ATOM     21  O   UNL     1       6.344   3.623  15.263  0.00  0.00    +0.000 OA
ENDBRANCH  14  21
BRANCH  19  22
ATOM     22  O   UNL     1       8.302   3.987  17.385  0.00  0.00    +0.000 OA
ATOM     23  H   UNL     1       8.569   4.121  18.313  0.00  0.00    +0.000 HD
ENDBRANCH  19  22
ENDBRANCH   1  16
BRANCH   5  24
ATOM     24  C   UNL     1       0.879   9.097  20.374  0.00  0.00    +0.000 A 
ATOM     25  C   UNL     1       0.216  10.224  19.860  0.00  0.00    +0.000 A 
ATOM     26  C   UNL     1      -0.426  11.144  20.700  0.00  0.00    +0.000 A 
ATOM     27  C   UNL     1      -0.408  10.942  22.081  0.00  0.00    +0.000 A 
ATOM     28  C   UNL     1       0.241   9.826  22.620  0.00  0.00    +0.000 A 
ATOM     29  C   UNL     1       0.877   8.912  21.766  0.00  0.00    +0.000 A 
BRANCH  27  30
ATOM     30  N   UNL     1      -1.072  11.907  22.964  0.00  0.00    +0.000 N 
ATOM     31  O   UNL     1      -2.218  11.642  23.357  0.00  0.00    +0.000 OA
ATOM     32  O   UNL     1      -0.452  12.941  23.259  0.00  0.00    +0.000 OA
ENDBRANCH  27  30
ENDBRANCH   5  24
TORSDOF 5
ENDMDL
MODEL 3
REMARK VINA RESULT:      -9.1      1.044      1.885
REMARK  Name = 
REMARK  6 active torsions:
REMARK  status: ('A' for Active; 'I' for Inactive)
REMARK    1  A    between atoms: C_1  and  O_2
REMARK    2  A    between atoms: O_2  and  C_3
REMARK    3  A    between atoms: C_5  and  C_6
REMARK    4  A    between atoms: N_10  and  C_11
REMARK    5  A    between atoms: C_14  and  N_15
REMARK    6  A    between atoms: C_30  and  O_31
REMARK                            x       y       z     vdW  Elec       q    Type
REMARK                         _______ _______ _______ _____ _____    ______ ____
ROOT
ATOM      1  C   UNL     1       3.353   7.358  17.527  0.00  0.00    +0.000 C 
ATOM      2  C   UNL     1       2.436   7.338  18.506  0.00  0.00    +0.000 C 
ATOM      3  C   UNL     1       1.634   8.560  18.723  0.00  0.00    +0.000 C 
ATOM      4  O   UNL     1       1.508   9.476  17.929  0.00  0.00    +0.000 OA
ATOM      5  N   UNL     1       1.190   8.396  20.039  0.00  0.00    +0.000 N 
ATOM      6  N   UNL     1       1.483   7.138  20.578  0.00  0.00    +0.000 NA
ATOM      7  C   UNL     1       2.169   6.464  19.673  0.00  0.00    +0.000 C 
ATOM      8  N   UNL     1       2.559   5.146  19.808  0.00  0.00    +0.000 N 
ATOM      9  C   UNL     1       2.331   4.164  18.731  0.00  0.00    +0.000 C 
ATOM     10  C   UNL     1       1.134   3.258  19.075  0.00  0.00    +0.000 C 
ATOM     11  O   UNL     1       1.322   2.606  20.341  0.00  0.00    +0.000 OA
ATOM     12  C   UNL     1       1.459   3.580  21.389  0.00  0.00    +0.000 C 
ATOM     13  C   UNL     1       2.650   4.512  21.133  0.00  0.00    +0.000 C 
ENDROOT
BRANCH   1  16
ATOM     14  C   UNL     1       6.979   6.355  17.044  0.00  0.00    +0.000 A 
ATOM     15  C   UNL     1       5.857   7.026  17.553  0.00  0.00    +0.000 A 
ATOM     16  C   UNL     1       4.561   6.551  17.307  0.00  0.00    +0.000 A 
ATOM     17  C   UNL     1       4.407   5.366  16.573  0.00  0.00    +0.000 A 
ATOM     18  C   UNL     1       5.511   4.729  16.012  0.00  0.00    +0.000 A 
ATOM     19  C   UNL     1       6.785   5.255  16.207  0.00  0.00    +0.000 A 
BRANCH  14  21
ATOM     20  C   UNL     1       8.109   8.247  17.881  0.00  0.00    +0.000 C 
ATOM     21  O   UNL     1       8.189   6.922  17.353  0.00  0.00    +0.000 OA
ENDBRANCH  14  21
BRANCH  19  22
ATOM     22  O   UNL     1       7.818   4.712  15.496  0.00  0.00    +0.000 OA
ATOM     23  H   UNL     1       7.863   5.191  14.649  0.00  0.00    +0.000 HD
ENDBRANCH  19  22
ENDBRANCH   1  16
BRANCH   5  24
ATOM     24  C   UNL     1       0.583   9.386  20.857  0.00  0.00    +0.000 A 
ATOM     25  C   UNL     1      -0.049   9.052  22.067  0.00  0.00    +0.000 A 
ATOM     26  C   UNL     1      -0.692  10.020  22.851  0.00  0.00    +0.000 A 
ATOM     27  C   UNL     1      -0.709  11.349  22.424  0.00  0.00    +0.000 A 
ATOM     28  C   UNL     1      -0.084  11.710  21.226  0.00  0.00    +0.000 A 
ATOM     29  C   UNL     1       0.558  10.730  20.453  0.00  0.00    +0.000 A 
BRANCH  27  30
ATOM     30  N   UNL     1      -1.387  12.363  23.237  0.00  0.00    +0.000 N 
ATOM     31  O   UNL     1      -2.566  12.156  23.560  0.00  0.00    +0.000 OA
ATOM     32  O   UNL     1      -0.744  13.379  23.548  0.00  0.00    +0.000 OA
ENDBRANCH  27  30
ENDBRANCH   5  24
TORSDOF 5
ENDMDL
MODEL 4
REMARK VINA RESULT:      -8.6      0.939      2.007
REMARK  Name = 
REMARK  6 active torsions:
REMARK  status: ('A' for Active; 'I' for Inactive)
REMARK    1  A    between atoms: C_1  and  O_2
REMARK    2  A    between atoms: O_2  and  C_3
REMARK    3  A    between atoms: C_5  and  C_6
REMARK    4  A    between atoms: N_10  and  C_11
REMARK    5  A    between atoms: C_14  and  N_15
REMARK    6  A    between atoms: C_30  and  O_31
REMARK                            x       y       z     vdW  Elec       q    Type
REMARK                         _______ _______ _______ _____ _____    ______ ____
ROOT
ATOM      1  C   UNL     1       3.413   7.020  17.559  0.00  0.00    +0.000 C 
ATOM      2  C   UNL     1       2.455   7.025  18.497  0.00  0.00    +0.000 C 
ATOM      3  C   UNL     1       1.664   8.261  18.666  0.00  0.00    +0.000 C 
ATOM      4  O   UNL     1       1.586   9.169  17.857  0.00  0.00    +0.000 OA
ATOM      5  N   UNL     1       1.161   8.120  19.963  0.00  0.00    +0.000 N 
ATOM      6  N   UNL     1       1.411   6.864  20.529  0.00  0.00    +0.000 NA
ATOM      7  C   UNL     1       2.125   6.169  19.662  0.00  0.00    +0.000 C 
ATOM      8  N   UNL     1       2.488   4.847  19.829  0.00  0.00    +0.000 N 
ATOM      9  C   UNL     1       2.291   3.855  18.755  0.00  0.00    +0.000 C 
ATOM     10  C   UNL     1       1.067   2.972  19.057  0.00  0.00    +0.000 C 
ATOM     11  O   UNL     1       1.190   2.333  20.337  0.00  0.00    +0.000 OA
ATOM     12  C   UNL     1       1.298   3.317  21.379  0.00  0.00    +0.000 C 
ATOM     13  C   UNL     1       2.513   4.228  21.164  0.00  0.00    +0.000 C 
ENDROOT
BRANCH   1  16
ATOM     14  C   UNL     1       7.015   5.834  17.682  0.00  0.00    +0.000 A 
ATOM     15  C   UNL     1       5.815   6.440  18.084  0.00  0.00    +0.000 A 
ATOM     16  C   UNL     1       4.617   6.191  17.400  0.00  0.00    +0.000 A 
ATOM     17  C   UNL     1       4.631   5.291  16.325  0.00  0.00    +0.000 A 
ATOM     18  C   UNL     1       5.828   4.735  15.879  0.00  0.00    +0.000 A 
ATOM     19  C   UNL     1       7.019   5.049  16.527  0.00  0.00    +0.000 A 
BRANCH  14  21
ATOM     20  C   UNL     1       8.080   5.689  19.779  0.00  0.00    +0.000 C 
ATOM     21  O   UNL     1       8.115   6.160  18.432  0.00  0.00    +0.000 OA
ENDBRANCH  14  21
BRANCH  19  22
ATOM     22  O   UNL     1       8.188   4.632  15.955  0.00  0.00    +0.000 OA
ATOM     23  H   UNL     1       7.949   4.077  15.191  0.00  0.00    +0.000 HD
ENDBRANCH  19  22
ENDBRANCH   1  16
BRANCH   5  24
ATOM     24  C   UNL     1       0.535   9.128  20.743  0.00  0.00    +0.000 A 
ATOM     25  C   UNL     1      -0.068  10.250  20.148  0.00  0.00    +0.000 A 
ATOM     26  C   UNL     1      -0.642  11.270  20.918  0.00  0.00    +0.000 A 
ATOM     27  C   UNL     1      -0.616  11.176  22.311  0.00  0.00    +0.000 A 
ATOM     28  C   UNL     1      -0.027  10.070  22.930  0.00  0.00    +0.000 A 
ATOM     29  C   UNL     1       0.542   9.055  22.145  0.00  0.00    +0.000 A 
BRANCH  27  30
ATOM     30  N   UNL     1      -1.209  12.246  23.120  0.00  0.00    +0.000 N 
ATOM     31  O   UNL     1      -0.493  13.214  23.418  0.00  0.00    +0.000 OA
ATOM     32  O   UNL     1      -2.392  12.116  23.472  0.00  0.00    +0.000 OA
ENDBRANCH  27  30
ENDBRANCH   5  24
TORSDOF 5
ENDMDL
MODEL 5
REMARK VINA RESULT:      -7.4      3.806     10.971
REMARK  Name = 
REMARK  6 active torsions:
REMARK  status: ('A' for Active; 'I' for Inactive)
REMARK    1  A    between atoms: C_1  and  O_2
REMARK    2  A    between atoms: O_2  and  C_3
REMARK    3  A    between atoms: C_5  and  C_6
REMARK    4  A    between atoms: N_10  and  C_11
REMARK    5  A    between atoms: C_14  and  N_15
REMARK    6  A    between atoms: C_30  and  O_31
REMARK                            x       y       z     vdW  Elec       q    Type
REMARK                         _______ _______ _______ _____ _____    ______ ____
ROOT
ATOM      1  C   UNL     1      -3.401  12.207  19.480  0.00  0.00    +0.000 C 
ATOM      2  C   UNL     1      -2.065  12.095  19.504  0.00  0.00    +0.000 C 
ATOM      3  C   UNL     1      -1.453  10.988  18.740  0.00  0.00    +0.000 C 
ATOM      4  O   UNL     1      -2.000  10.347  17.859  0.00  0.00    +0.000 OA
ATOM      5  N   UNL     1      -0.204  10.854  19.355  0.00  0.00    +0.000 N 
ATOM      6  N   UNL     1       0.077  11.866  20.281  0.00  0.00    +0.000 NA
ATOM      7  C   UNL     1      -0.981  12.652  20.349  0.00  0.00    +0.000 C 
ATOM      8  N   UNL     1      -1.046  13.815  21.092  0.00  0.00    +0.000 N 
ATOM      9  C   UNL     1      -1.548  15.073  20.506  0.00  0.00    +0.000 C 
ATOM     10  C   UNL     1      -0.376  16.015  20.173  0.00  0.00    +0.000 C 
ATOM     11  O   UNL     1       0.432  16.268  21.333  0.00  0.00    +0.000 OA
ATOM     12  C   UNL     1       0.979  15.040  21.839  0.00  0.00    +0.000 C 
ATOM     13  C   UNL     1      -0.129  14.049  22.219  0.00  0.00    +0.000 C 
ENDROOT
BRANCH   1  16
ATOM     14  C   UNL     1      -5.524  12.954  22.534  0.00  0.00    +0.000 A 
ATOM     15  C   UNL     1      -4.425  12.544  21.765  0.00  0.00    +0.000 A 
ATOM     16  C   UNL     1      -4.340  12.862  20.402  0.00  0.00    +0.000 A 
ATOM     17  C   UNL     1      -5.360  13.633  19.826  0.00  0.00    +0.000 A 
ATOM     18  C   UNL     1      -6.485  13.990  20.567  0.00  0.00    +0.000 A 
ATOM     19  C   UNL     1      -6.585  13.605  21.900  0.00  0.00    +0.000 A 
BRANCH  14  21
ATOM     20  C   UNL     1      -4.219  12.744  24.485  0.00  0.00    +0.000 C 
ATOM     21  O   UNL     1      -5.489  12.578  23.852  0.00  0.00    +0.000 OA
ENDBRANCH  14  21
BRANCH  19  22
ATOM     22  O   UNL     1      -7.774  13.813  22.540  0.00  0.00    +0.000 OA
ATOM     23  H   UNL     1      -7.957  14.769  22.495  0.00  0.00    +0.000 HD
ENDBRANCH  19  22
ENDBRANCH   1  16
BRANCH   5  24
ATOM     24  C   UNL     1       0.709   9.779  19.192  0.00  0.00    +0.000 A 
ATOM     25  C   UNL     1       1.339   9.530  17.960  0.00  0.00    +0.000 A 
ATOM     26  C   UNL     1       2.201   8.440  17.784  0.00  0.00    +0.000 A 
ATOM     27  C   UNL     1       2.446   7.577  18.854  0.00  0.00    +0.000 A 
ATOM     28  C   UNL     1       1.836   7.803  20.092  0.00  0.00    +0.000 A 
ATOM     29  C   UNL     1       0.976   8.901  20.254  0.00  0.00    +0.000 A 
BRANCH  27  30
ATOM     30  N   UNL     1       3.342   6.431  18.671  0.00  0.00    +0.000 N 
ATOM     31  O   UNL     1       3.648   5.767  19.673  0.00  0.00    +0.000 OA
ATOM     32  O   UNL     1       3.753   6.197  17.523  0.00  0.00    +0.000 OA
ENDBRANCH  27  30
ENDBRANCH   5  24
TORSDOF 5
ENDMDL
