MODEL 1
REMARK VINA RESULT:      -8.8      0.000      0.000
REMARK  Name = 
REMARK  11 active torsions:
REMARK  status: ('A' for Active; 'I' for Inactive)
REMARK    1  A    between atoms: C_1  and  O_2
REMARK    2  A    between atoms: O_2  and  C_3
REMARK    3  A    between atoms: C_6  and  O_7
REMARK    4  A    between atoms: O_7  and  C_8
REMARK    5  A    between atoms: C_9  and  C_10
REMARK    6  A    between atoms: C_10  and  N_11
REMARK    7  A    between atoms: C_12  and  C_14
REMARK    8  A    between atoms: C_16  and  C_17
REMARK    9  A    between atoms: C_17  and  N_18
REMARK   10  A    between atoms: C_20  and  C_21
REMARK   11  A    between atoms: C_24  and  C_25
REMARK                            x       y       z     vdW  Elec       q    Type
REMARK                         _______ _______ _______ _____ _____    ______ ____
ROOT
ATOM      1  C   UNL     1       8.123   8.531  18.094  0.00  0.00    +0.000 A 
ATOM      2  N   UNL     1       7.290   8.228  17.117  0.00  0.00    +0.000 NA
ATOM      3  C   UNL     1       7.179   6.860  17.255  0.00  0.00    +0.000 A 
ATOM      4  N   UNL     1       7.808   6.354  18.329  0.00  0.00    +0.000 NA
ATOM      5  O   UNL     1       8.467   7.461  18.866  0.00  0.00    +0.000 OA
ENDROOT
BRANCH   1   7
ATOM      6  N   UNL     1       9.373   9.888  19.599  0.00  0.00    +0.000 N 
ATOM      7  C   UNL     1       8.676   9.831  18.408  0.00  0.00    +0.000 C 
ATOM      8  O   UNL     1       8.562  10.820  17.684  0.00  0.00    +0.000 OA
ATOM      9  H   UNL     1       9.442   9.054  20.177  0.00  0.00    +0.000 HD
BRANCH   6  10
ATOM     10  C   UNL     1      10.006  11.100  20.040  0.00  0.00    +0.000 C 
BRANCH  10  15
ATOM     11  C   UNL     1       7.983  12.288  23.016  0.00  0.00    +0.000 A 
ATOM     12  C   UNL     1       7.621  13.577  22.652  0.00  0.00    +0.000 A 
ATOM     13  C   UNL     1       8.020  14.106  21.426  0.00  0.00    +0.000 A 
ATOM     14  C   UNL     1       8.775  13.345  20.525  0.00  0.00    +0.000 A 
ATOM     15  C   UNL     1       9.182  12.047  20.887  0.00  0.00    +0.000 A 
ATOM     16  C   UNL     1       8.769  11.537  22.147  0.00  0.00    +0.000 A 
BRANCH  11  18
ATOM     17  C   UNL     1       6.114  11.587  24.312  0.00  0.00    +0.000 C 
ATOM     18  O   UNL     1       7.500  11.884  24.230  0.00  0.00    +0.000 OA
ENDBRANCH  11  18
BRANCH  14  19
ATOM     19  O   UNL     1       9.170  13.826  19.302  0.00  0.00    +0.000 OA
ATOM     20  C   UNL     1       8.125  14.296  18.451  0.00  0.00    +0.000 C 
ENDBRANCH  14  19
ENDBRANCH  10  15
ENDBRANCH   6  10
ENDBRANCH   1   7
BRANCH   3  21
ATOM     21  C   UNL     1       6.477   5.996  16.261  0.00  0.00    +0.000 C 
BRANCH  21  22
ATOM     22  N   UNL     1       5.152   5.652  16.775  0.00  0.00    +0.000 N 
ATOM     23  N   UNL     1       4.421   6.674  17.353  0.00  0.00    +0.000 NA
ATOM     24  C   UNL     1       3.300   6.373  17.936  0.00  0.00    +0.000 A 
ATOM     25  C   UNL     1       2.793   4.989  18.062  0.00  0.00    +0.000 A 
ATOM     26  C   UNL     1       3.482   4.027  17.446  0.00  0.00    +0.000 A 
ATOM     27  C   UNL     1       4.734   4.332  16.727  0.00  0.00    +0.000 A 
ATOM     28  O   UNL     1       5.331   3.418  16.166  0.00  0.00    +0.000 OA
BRANCH  24  29
ATOM     29  C   UNL     1       2.467   7.461  18.534  0.00  0.00    +0.000 A 
ATOM     30  C   UNL     1       2.068   8.580  17.790  0.00  0.00    +0.000 A 
ATOM     31  C   UNL     1       1.309   9.591  18.383  0.00  0.00    +0.000 A 
ATOM     32  C   UNL     1       0.950   9.511  19.732  0.00  0.00    +0.000 A 
ATOM     33  C   UNL     1       0.148  10.602  20.377  0.00  0.00    +0.000 C 
ATOM     34  C   UNL     1       1.358   8.401  20.480  0.00  0.00    +0.000 A 
ATOM     35  C   UNL     1       2.112   7.383  19.888  0.00  0.00    +0.000 A 
ENDBRANCH  24  29
ENDBRANCH  21  22
ENDBRANCH   3  21
TORSDOF 8
ENDMDL
MODEL 2
REMARK VINA RESULT:      -8.8      0.687      1.075
REMARK  Name = 
REMARK  11 active torsions:
REMARK  status: ('A' for Active; 'I' for Inactive)
REMARK    1  A    between atoms: C_1  and  O_2
REMARK    2  A    between atoms: O_2  and  C_3
REMARK    3  A    between atoms: C_6  and  O_7
REMARK    4  A    between atoms: O_7  and  C_8
REMARK    5  A    between atoms: C_9  and  C_10
REMARK    6  A    between atoms: C_10  and  N_11
REMARK    7  A    between atoms: C_12  and  C_14
REMARK    8  A    between atoms: C_16  and  C_17
REMARK    9  A    between atoms: C_17  and  N_18
REMARK   10  A    between atoms: C_20  and  C_21
REMARK   11  A    between atoms: C_24  and  C_25
REMARK                            x       y       z     vdW  Elec       q    Type
REMARK                         _______ _______ _______ _____ _____    ______ ____
ROOT
ATOM      1  C   UNL     1       8.119   8.594  18.108  0.00  0.00    +0.000 A 
ATOM      2  N   UNL     1       7.299   8.269  17.128  0.00  0.00    +0.000 NA
ATOM      3  C   UNL     1       7.154   6.911  17.319  0.00  0.00    +0.000 A 
ATOM      4  N   UNL     1       7.749   6.436  18.426  0.00  0.00    +0.000 NA
ATOM      5  O   UNL     1       8.423   7.549  18.932  0.00  0.00    +0.000 OA
ENDROOT
BRANCH   1   7
ATOM      6  N   UNL     1       9.461   9.955  19.530  0.00  0.00    +0.000 N 
ATOM      7  C   UNL     1       8.696   9.893  18.380  0.00  0.00    +0.000 C 
ATOM      8  O   UNL     1       8.546  10.877  17.656  0.00  0.00    +0.000 OA
ATOM      9  H   UNL     1       9.559   9.125  20.109  0.00  0.00    +0.000 HD
BRANCH   6  10
ATOM     10  C   UNL     1      10.124  11.166  19.925  0.00  0.00    +0.000 C 
BRANCH  10  15
ATOM     11  C   UNL     1       8.058  11.768  23.044  0.00  0.00    +0.000 A 
ATOM     12  C   UNL     1       8.288  13.109  23.316  0.00  0.00    +0.000 A 
ATOM     13  C   UNL     1       9.120  13.867  22.494  0.00  0.00    +0.000 A 
ATOM     14  C   UNL     1       9.727  13.301  21.366  0.00  0.00    +0.000 A 
ATOM     15  C   UNL     1       9.536  11.934  21.090  0.00  0.00    +0.000 A 
ATOM     16  C   UNL     1       8.690  11.183  21.950  0.00  0.00    +0.000 A 
BRANCH  11  18
ATOM     17  C   UNL     1       6.826  11.872  25.077  0.00  0.00    +0.000 C 
ATOM     18  O   UNL     1       7.199  11.152  23.911  0.00  0.00    +0.000 OA
ENDBRANCH  11  18
BRANCH  14  19
ATOM     19  O   UNL     1      10.538  14.020  20.525  0.00  0.00    +0.000 OA
ATOM     20  C   UNL     1       9.870  14.839  19.566  0.00  0.00    +0.000 C 
ENDBRANCH  14  19
ENDBRANCH  10  15
ENDBRANCH   6  10
ENDBRANCH   1   7
BRANCH   3  21
ATOM     21  C   UNL     1       6.452   6.023  16.347  0.00  0.00    +0.000 C 
BRANCH  21  22
ATOM     22  N   UNL     1       5.124   5.697  16.866  0.00  0.00    +0.000 N 
ATOM     23  N   UNL     1       4.407   6.732  17.439  0.00  0.00    +0.000 NA
ATOM     24  C   UNL     1       3.284   6.447  18.027  0.00  0.00    +0.000 A 
ATOM     25  C   UNL     1       2.760   5.070  18.162  0.00  0.00    +0.000 A 
ATOM     26  C   UNL     1       3.437   4.096  17.550  0.00  0.00    +0.000 A 
ATOM     27  C   UNL     1       4.691   4.382  16.827  0.00  0.00    +0.000 A 
ATOM     28  O   UNL     1       5.276   3.458  16.270  0.00  0.00    +0.000 OA
BRANCH  24  29
ATOM     29  C   UNL     1       2.465   7.549  18.620  0.00  0.00    +0.000 A 
ATOM     30  C   UNL     1       2.048   7.522  19.958  0.00  0.00    +0.000 A 
ATOM     31  C   UNL     1       1.266   8.556  20.477  0.00  0.00    +0.000 A 
ATOM     32  C   UNL     1       0.871   9.623  19.665  0.00  0.00    +0.000 A 
ATOM     33  C   UNL     1       0.017  10.728  20.214  0.00  0.00    +0.000 C 
ATOM     34  C   UNL     1       1.276   9.645  18.326  0.00  0.00    +0.000 A 
ATOM     35  C   UNL     1       2.066   8.616  17.804  0.00  0.00    +0.000 A 
ENDBRANCH  24  29
ENDBRANCH  21  22
ENDBRANCH   3  21
TORSDOF 8
ENDMDL
MODEL 3
REMARK VINA RESULT:      -8.5      2.361      2.897
REMARK  Name = 
REMARK  11 active torsions:
REMARK  status: ('A' for Active; 'I' for Inactive)
REMARK    1  A    between atoms: C_1  and  O_2
REMARK    2  A    between atoms: O_2  and  C_3
REMARK    3  A    between atoms: C_6  and  O_7
REMARK    4  A    between atoms: O_7  and  C_8
REMARK    5  A    between atoms: C_9  and  C_10
REMARK    6  A    between atoms: C_10  and  N_11
REMARK    7  A    between atoms: C_12  and  C_14
REMARK    8  A    between atoms: C_16  and  C_17
REMARK    9  A    between atoms: C_17  and  N_18
REMARK   10  A    between atoms: C_20  and  C_21
REMARK   11  A    between atoms: C_24  and  C_25
REMARK                            x       y       z     vdW  Elec       q    Type
REMARK                         _______ _______ _______ _____ _____    ______ ____
ROOT
ATOM      1  C   UNL     1       8.310   8.704  18.266  0.00  0.00    +0.000 A 
ATOM      2  N   UNL     1       7.442   8.592  17.280  0.00  0.00    +0.000 NA
ATOM      3  C   UNL     1       7.144   7.246  17.318  0.00  0.00    +0.000 A 
ATOM      4  N   UNL     1       7.699   6.580  18.344  0.00  0.00    +0.000 NA
ATOM      5  O   UNL     1       8.505   7.542  18.954  0.00  0.00    +0.000 OA
ENDROOT
BRANCH   1   7
ATOM      6  N   UNL     1       9.402  10.723  17.629  0.00  0.00    +0.000 N 
ATOM      7  C   UNL     1       9.038   9.889  18.669  0.00  0.00    +0.000 C 
ATOM      8  O   UNL     1       9.311  10.165  19.837  0.00  0.00    +0.000 OA
ATOM      9  H   UNL     1       9.167  10.462  16.675  0.00  0.00    +0.000 HD
BRANCH   6  10
ATOM     10  C   UNL     1      10.106  11.953  17.865  0.00  0.00    +0.000 C 
BRANCH  10  15
ATOM     11  C   UNL     1       7.010  14.137  17.778  0.00  0.00    +0.000 A 
ATOM     12  C   UNL     1       7.521  15.410  17.989  0.00  0.00    +0.000 A 
ATOM     13  C   UNL     1       8.890  15.605  18.166  0.00  0.00    +0.000 A 
ATOM     14  C   UNL     1       9.782  14.527  18.114  0.00  0.00    +0.000 A 
ATOM     15  C   UNL     1       9.284  13.223  17.934  0.00  0.00    +0.000 A 
ATOM     16  C   UNL     1       7.883  13.053  17.766  0.00  0.00    +0.000 A 
BRANCH  11  18
ATOM     17  C   UNL     1       4.928  15.289  17.825  0.00  0.00    +0.000 C 
ATOM     18  O   UNL     1       5.657  14.093  17.590  0.00  0.00    +0.000 OA
ENDBRANCH  11  18
BRANCH  14  19
ATOM     19  O   UNL     1      11.137  14.682  18.265  0.00  0.00    +0.000 OA
ATOM     20  C   UNL     1      11.840  15.166  17.121  0.00  0.00    +0.000 C 
ENDBRANCH  14  19
ENDBRANCH  10  15
ENDBRANCH   6  10
ENDBRANCH   1   7
BRANCH   3  21
ATOM     21  C   UNL     1       6.328   6.563  16.271  0.00  0.00    +0.000 C 
BRANCH  21  22
ATOM     22  N   UNL     1       5.060   6.131  16.857  0.00  0.00    +0.000 N 
ATOM     23  N   UNL     1       4.274   7.110  17.437  0.00  0.00    +0.000 NA
ATOM     24  C   UNL     1       3.209   6.739  18.081  0.00  0.00    +0.000 A 
ATOM     25  C   UNL     1       2.823   5.324  18.272  0.00  0.00    +0.000 A 
ATOM     26  C   UNL     1       3.561   4.401  17.654  0.00  0.00    +0.000 A 
ATOM     27  C   UNL     1       4.750   4.781  16.869  0.00  0.00    +0.000 A 
ATOM     28  O   UNL     1       5.395   3.900  16.308  0.00  0.00    +0.000 OA
BRANCH  24  29
ATOM     29  C   UNL     1       2.316   7.777  18.685  0.00  0.00    +0.000 A 
ATOM     30  C   UNL     1       1.958   7.746  20.039  0.00  0.00    +0.000 A 
ATOM     31  C   UNL     1       1.105   8.717  20.568  0.00  0.00    +0.000 A 
ATOM     32  C   UNL     1       0.582   9.724  19.751  0.00  0.00    +0.000 A 
ATOM     33  C   UNL     1      -0.347  10.760  20.312  0.00  0.00    +0.000 C 
ATOM     34  C   UNL     1       0.929   9.749  18.396  0.00  0.00    +0.000 A 
ATOM     35  C   UNL     1       1.789   8.782  17.864  0.00  0.00    +0.000 A 
ENDBRANCH  24  29
ENDBRANCH  21  22
ENDBRANCH   3  21
TORSDOF 8
ENDMDL
MODEL 4
REMARK VINA RESULT:      -8.4      0.823      2.541
REMARK  Name = 
REMARK  11 active torsions:
REMARK  status: ('A' for Active; 'I' for Inactive)
REMARK    1  A    between atoms: C_1  and  O_2
REMARK    2  A    between atoms: O_2  and  C_3
REMARK    3  A    between atoms: C_6  and  O_7
REMARK    4  A    between atoms: O_7  and  C_8
REMARK    5  A    between atoms: C_9  and  C_10
REMARK    6  A    between atoms: C_10  and  N_11
REMARK    7  A    between atoms: C_12  and  C_14
REMARK    8  A    between atoms: C_16  and  C_17
REMARK    9  A    between atoms: C_17  and  N_18
REMARK   10  A    between atoms: C_20  and  C_21
REMARK   11  A    between atoms: C_24  and  C_25
REMARK                            x       y       z     vdW  Elec       q    Type
REMARK                         _______ _______ _______ _____ _____    ______ ____
ROOT
ATOM      1  C   UNL     1       8.304   8.661  18.232  0.00  0.00    +0.000 A 
ATOM      2  N   UNL     1       7.446   8.485  17.247  0.00  0.00    +0.000 NA
ATOM      3  C   UNL     1       7.192   7.132  17.331  0.00  0.00    +0.000 A 
ATOM      4  N   UNL     1       7.761   6.522  18.384  0.00  0.00    +0.000 NA
ATOM      5  O   UNL     1       8.532   7.531  18.962  0.00  0.00    +0.000 OA
ENDROOT
BRANCH   1   7
ATOM      6  N   UNL     1       9.142  10.076  19.956  0.00  0.00    +0.000 N 
ATOM      7  C   UNL     1       8.991   9.882  18.595  0.00  0.00    +0.000 C 
ATOM      8  O   UNL     1       9.428  10.694  17.780  0.00  0.00    +0.000 OA
ATOM      9  H   UNL     1       8.763   9.389  20.602  0.00  0.00    +0.000 HD
BRANCH   6  10
ATOM     10  C   UNL     1       9.826  11.226  20.477  0.00  0.00    +0.000 C 
BRANCH  10  15
ATOM     11  C   UNL     1       8.479  14.750  20.117  0.00  0.00    +0.000 A 
ATOM     12  C   UNL     1       7.585  14.851  21.173  0.00  0.00    +0.000 A 
ATOM     13  C   UNL     1       7.389  13.779  22.042  0.00  0.00    +0.000 A 
ATOM     14  C   UNL     1       8.102  12.584  21.883  0.00  0.00    +0.000 A 
ATOM     15  C   UNL     1       8.989  12.447  20.799  0.00  0.00    +0.000 A 
ATOM     16  C   UNL     1       9.162  13.553  19.924  0.00  0.00    +0.000 A 
BRANCH  11  18
ATOM     17  C   UNL     1       8.467  15.744  17.955  0.00  0.00    +0.000 C 
ATOM     18  O   UNL     1       8.597  15.884  19.362  0.00  0.00    +0.000 OA
ENDBRANCH  11  18
BRANCH  14  19
ATOM     19  O   UNL     1       7.948  11.515  22.728  0.00  0.00    +0.000 OA
ATOM     20  C   UNL     1       8.299  11.745  24.093  0.00  0.00    +0.000 C 
ENDBRANCH  14  19
ENDBRANCH  10  15
ENDBRANCH   6  10
ENDBRANCH   1   7
BRANCH   3  21
ATOM     21  C   UNL     1       6.404   6.386  16.306  0.00  0.00    +0.000 C 
BRANCH  21  22
ATOM     22  N   UNL     1       5.124   5.980  16.885  0.00  0.00    +0.000 N 
ATOM     23  N   UNL     1       4.342   6.981  17.435  0.00  0.00    +0.000 NA
ATOM     24  C   UNL     1       3.265   6.635  18.073  0.00  0.00    +0.000 A 
ATOM     25  C   UNL     1       2.861   5.228  18.290  0.00  0.00    +0.000 A 
ATOM     26  C   UNL     1       3.596   4.284  17.700  0.00  0.00    +0.000 A 
ATOM     27  C   UNL     1       4.799   4.635  16.922  0.00  0.00    +0.000 A 
ATOM     28  O   UNL     1       5.441   3.735  16.388  0.00  0.00    +0.000 OA
BRANCH  24  29
ATOM     29  C   UNL     1       2.377   7.695  18.643  0.00  0.00    +0.000 A 
ATOM     30  C   UNL     1       1.974   7.679  19.985  0.00  0.00    +0.000 A 
ATOM     31  C   UNL     1       1.126   8.671  20.482  0.00  0.00    +0.000 A 
ATOM     32  C   UNL     1       0.653   9.685  19.644  0.00  0.00    +0.000 A 
ATOM     33  C   UNL     1      -0.271  10.744  20.170  0.00  0.00    +0.000 C 
ATOM     34  C   UNL     1       1.043   9.696  18.301  0.00  0.00    +0.000 A 
ATOM     35  C   UNL     1       1.898   8.708  17.801  0.00  0.00    +0.000 A 
ENDBRANCH  24  29
ENDBRANCH  21  22
ENDBRANCH   3  21
TORSDOF 8
ENDMDL
MODEL 5
REMARK VINA RESULT:      -8.2      5.555      9.474
REMARK  Name = 
REMARK  11 active torsions:
REMARK  status: ('A' for Active; 'I' for Inactive)
REMARK    1  A    between atoms: C_1  and  O_2
REMARK    2  A    between atoms: O_2  and  C_3
REMARK    3  A    between atoms: C_6  and  O_7
REMARK    4  A    between atoms: O_7  and  C_8
REMARK    5  A    between atoms: C_9  and  C_10
REMARK    6  A    between atoms: C_10  and  N_11
REMARK    7  A    between atoms: C_12  and  C_14
REMARK    8  A    between atoms: C_16  and  C_17
REMARK    9  A    between atoms: C_17  and  N_18
REMARK   10  A    between atoms: C_20  and  C_21
REMARK   11  A    between atoms: C_24  and  C_25
REMARK                            x       y       z     vdW  Elec       q    Type
REMARK                         _______ _______ _______ _____ _____    ______ ____
ROOT
ATOM      1  C   UNL     1       1.247   9.176  19.888  0.00  0.00    +0.000 A 
ATOM      2  N   UNL     1       1.099  10.458  20.162  0.00  0.00    +0.000 NA
ATOM      3  C   UNL     1       0.362  10.414  21.327  0.00  0.00    +0.000 A 
ATOM      4  N   UNL     1       0.166   9.179  21.818  0.00  0.00    +0.000 NA
ATOM      5  O   UNL     1       0.723   8.353  20.841  0.00  0.00    +0.000 OA
ENDROOT
BRANCH   1   7
ATOM      6  N   UNL     1       2.542   7.399  18.971  0.00  0.00    +0.000 N 
ATOM      7  C   UNL     1       1.886   8.592  18.728  0.00  0.00    +0.000 C 
ATOM      8  O   UNL     1       1.852   9.087  17.602  0.00  0.00    +0.000 OA
ATOM      9  H   UNL     1       2.556   7.022  19.915  0.00  0.00    +0.000 HD
BRANCH   6  10
ATOM     10  C   UNL     1       3.203   6.679  17.919  0.00  0.00    +0.000 C 
BRANCH  10  15
ATOM     11  C   UNL     1       2.030   3.252  19.029  0.00  0.00    +0.000 A 
ATOM     12  C   UNL     1       2.796   2.394  18.253  0.00  0.00    +0.000 A 
ATOM     13  C   UNL     1       3.722   2.898  17.342  0.00  0.00    +0.000 A 
ATOM     14  C   UNL     1       3.917   4.278  17.203  0.00  0.00    +0.000 A 
ATOM     15  C   UNL     1       3.128   5.168  17.956  0.00  0.00    +0.000 A 
ATOM     16  C   UNL     1       2.185   4.625  18.870  0.00  0.00    +0.000 A 
BRANCH  11  18
ATOM     17  C   UNL     1       1.334   2.925  21.282  0.00  0.00    +0.000 C 
ATOM     18  O   UNL     1       1.184   2.625  19.901  0.00  0.00    +0.000 OA
ENDBRANCH  11  18
BRANCH  14  19
ATOM     19  O   UNL     1       4.832   4.810  16.330  0.00  0.00    +0.000 OA
ATOM     20  C   UNL     1       5.770   3.889  15.774  0.00  0.00    +0.000 C 
ENDBRANCH  14  19
ENDBRANCH  10  15
ENDBRANCH   6  10
ENDBRANCH   1   7
BRANCH   3  21
ATOM     21  C   UNL     1      -0.230  11.628  21.961  0.00  0.00    +0.000 C 
BRANCH  21  22
ATOM     22  N   UNL     1      -1.535  11.898  21.358  0.00  0.00    +0.000 N 
ATOM     23  N   UNL     1      -1.712  11.494  20.047  0.00  0.00    +0.000 NA
ATOM     24  C   UNL     1      -2.809  11.838  19.443  0.00  0.00    +0.000 A 
ATOM     25  C   UNL     1      -3.852  12.684  20.064  0.00  0.00    +0.000 A 
ATOM     26  C   UNL     1      -3.688  13.012  21.346  0.00  0.00    +0.000 A 
ATOM     27  C   UNL     1      -2.481  12.598  22.087  0.00  0.00    +0.000 A 
ATOM     28  O   UNL     1      -2.376  12.913  23.269  0.00  0.00    +0.000 OA
BRANCH  24  29
ATOM     29  C   UNL     1      -3.049  11.380  18.039  0.00  0.00    +0.000 A 
ATOM     30  C   UNL     1      -4.223  11.705  17.346  0.00  0.00    +0.000 A 
ATOM     31  C   UNL     1      -4.427  11.245  16.043  0.00  0.00    +0.000 A 
ATOM     32  C   UNL     1      -3.472  10.439  15.418  0.00  0.00    +0.000 A 
ATOM     33  C   UNL     1      -3.695   9.929  14.024  0.00  0.00    +0.000 C 
ATOM     34  C   UNL     1      -2.305  10.103  16.112  0.00  0.00    +0.000 A 
ATOM     35  C   UNL     1      -2.093  10.568  17.414  0.00  0.00    +0.000 A 
ENDBRANCH  24  29
ENDBRANCH  21  22
ENDBRANCH   3  21
TORSDOF 8
ENDMDL
MODEL 6
REMARK VINA RESULT:      -8.2      2.732      3.455
REMARK  Name = 
REMARK  11 active torsions:
REMARK  status: ('A' for Active; 'I' for Inactive)
REMARK    1  A    between atoms: C_1  and  O_2
REMARK    2  A    between atoms: O_2  and  C_3
REMARK    3  A    between atoms: C_6  and  O_7
REMARK    4  A    between atoms: O_7  and  C_8
REMARK    5  A    between atoms: C_9  and  C_10
REMARK    6  A    between atoms: C_10  and  N_11
REMARK    7  A    between atoms: C_12  and  C_14
REMARK    8  A    between atoms: C_16  and  C_17
REMARK    9  A    between atoms: C_17  and  N_18
REMARK   10  A    between atoms: C_20  and  C_21
REMARK   11  A    between atoms: C_24  and  C_25
REMARK                            x       y       z     vdW  Elec       q    Type
REMARK                         _______ _______ _______ _____ _____    ______ ____
ROOT
ATOM      1  C   UNL     1       6.977   6.961  17.617  0.00  0.00    +0.000 A 
ATOM      2  N   UNL     1       6.339   5.851  17.934  0.00  0.00    +0.000 NA
ATOM      3  C   UNL     1       5.403   5.766  16.925  0.00  0.00    +0.000 A 
ATOM      4  N   UNL     1       5.528   6.698  15.966  0.00  0.00    +0.000 NA
ATOM      5  O   UNL     1       6.552   7.517  16.446  0.00  0.00    +0.000 OA
ENDROOT
BRANCH   1   7
ATOM      6  N   UNL     1       8.223   8.945  18.050  0.00  0.00    +0.000 N 
ATOM      7  C   UNL     1       8.037   7.611  18.359  0.00  0.00    +0.000 C 
ATOM      8  O   UNL     1       8.724   7.048  19.212  0.00  0.00    +0.000 OA
ATOM      9  H   UNL     1       7.643   9.376  17.335  0.00  0.00    +0.000 HD
BRANCH   6  10
ATOM     10  C   UNL     1       9.217   9.737  18.718  0.00  0.00    +0.000 C 
BRANCH  10  15
ATOM     11  C   UNL     1       8.026  13.167  17.632  0.00  0.00    +0.000 A 
ATOM     12  C   UNL     1       9.203  13.899  17.566  0.00  0.00    +0.000 A 
ATOM     13  C   UNL     1      10.426  13.304  17.870  0.00  0.00    +0.000 A 
ATOM     14  C   UNL     1      10.499  11.952  18.228  0.00  0.00    +0.000 A 
ATOM     15  C   UNL     1       9.316  11.199  18.334  0.00  0.00    +0.000 A 
ATOM     16  C   UNL     1       8.082  11.834  18.028  0.00  0.00    +0.000 A 
BRANCH  11  18
ATOM     17  C   UNL     1       6.627  15.057  17.999  0.00  0.00    +0.000 C 
ATOM     18  O   UNL     1       6.904  13.863  17.279  0.00  0.00    +0.000 OA
ENDBRANCH  11  18
BRANCH  14  19
ATOM     19  O   UNL     1      11.687  11.329  18.517  0.00  0.00    +0.000 OA
ATOM     20  C   UNL     1      12.323  11.733  19.729  0.00  0.00    +0.000 C 
ENDBRANCH  14  19
ENDBRANCH  10  15
ENDBRANCH   6  10
ENDBRANCH   1   7
BRANCH   3  21
ATOM     21  C   UNL     1       4.297   4.764  16.923  0.00  0.00    +0.000 C 
BRANCH  21  22
ATOM     22  N   UNL     1       3.456   4.974  18.101  0.00  0.00    +0.000 N 
ATOM     23  N   UNL     1       2.998   6.261  18.319  0.00  0.00    +0.000 NA
ATOM     24  C   UNL     1       2.362   6.505  19.425  0.00  0.00    +0.000 A 
ATOM     25  C   UNL     1       2.150   5.495  20.485  0.00  0.00    +0.000 A 
ATOM     26  C   UNL     1       2.548   4.248  20.228  0.00  0.00    +0.000 A 
ATOM     27  C   UNL     1       3.228   3.914  18.962  0.00  0.00    +0.000 A 
ATOM     28  O   UNL     1       3.567   2.751  18.763  0.00  0.00    +0.000 OA
BRANCH  24  29
ATOM     29  C   UNL     1       1.817   7.877  19.671  0.00  0.00    +0.000 A 
ATOM     30  C   UNL     1       1.323   8.261  20.925  0.00  0.00    +0.000 A 
ATOM     31  C   UNL     1       0.801   9.542  21.118  0.00  0.00    +0.000 A 
ATOM     32  C   UNL     1       0.748  10.453  20.060  0.00  0.00    +0.000 A 
ATOM     33  C   UNL     1       0.173  11.825  20.259  0.00  0.00    +0.000 C 
ATOM     34  C   UNL     1       1.229  10.067  18.804  0.00  0.00    +0.000 A 
ATOM     35  C   UNL     1       1.759   8.788  18.608  0.00  0.00    +0.000 A 
ENDBRANCH  24  29
ENDBRANCH  21  22
ENDBRANCH   3  21
TORSDOF 8
ENDMDL
MODEL 7
REMARK VINA RESULT:      -8.1      5.516      9.555
REMARK  Name = 
REMARK  11 active torsions:
REMARK  status: ('A' for Active; 'I' for Inactive)
REMARK    1  A    between atoms: C_1  and  O_2
REMARK    2  A    between atoms: O_2  and  C_3
REMARK    3  A    between atoms: C_6  and  O_7
REMARK    4  A    between atoms: O_7  and  C_8
REMARK    5  A    between atoms: C_9  and  C_10
REMARK    6  A    between atoms: C_10  and  N_11
REMARK    7  A    between atoms: C_12  and  C_14
REMARK    8  A    between atoms: C_16  and  C_17
REMARK    9  A    between atoms: C_17  and  N_18
REMARK   10  A    between atoms: C_20  and  C_21
REMARK   11  A    between atoms: C_24  and  C_25
REMARK                            x       y       z     vdW  Elec       q    Type
REMARK                         _______ _______ _______ _____ _____    ______ ____
ROOT
ATOM      1  C   UNL     1       0.767   9.515  20.611  0.00  0.00    +0.000 A 
ATOM      2  N   UNL     1       0.565  10.768  20.967  0.00  0.00    +0.000 NA
ATOM      3  C   UNL     1      -0.243  10.620  22.075  0.00  0.00    +0.000 A 
ATOM      4  N   UNL     1      -0.433   9.348  22.462  0.00  0.00    +0.000 NA
ATOM      5  O   UNL     1       0.209   8.610  21.465  0.00  0.00    +0.000 OA
ENDROOT
BRANCH   1   7
ATOM      6  N   UNL     1       1.980   7.745  19.575  0.00  0.00    +0.000 N 
ATOM      7  C   UNL     1       1.494   9.034  19.455  0.00  0.00    +0.000 C 
ATOM      8  O   UNL     1       1.669   9.692  18.430  0.00  0.00    +0.000 OA
ATOM      9  H   UNL     1       1.824   7.232  20.439  0.00  0.00    +0.000 HD
BRANCH   6  10
ATOM     10  C   UNL     1       2.700   7.113  18.506  0.00  0.00    +0.000 C 
BRANCH  10  15
ATOM     11  C   UNL     1       5.577   4.663  18.789  0.00  0.00    +0.000 A 
ATOM     12  C   UNL     1       4.963   3.517  19.277  0.00  0.00    +0.000 A 
ATOM     13  C   UNL     1       3.593   3.499  19.530  0.00  0.00    +0.000 A 
ATOM     14  C   UNL     1       2.800   4.627  19.278  0.00  0.00    +0.000 A 
ATOM     15  C   UNL     1       3.406   5.810  18.816  0.00  0.00    +0.000 A 
ATOM     16  C   UNL     1       4.806   5.802  18.576  0.00  0.00    +0.000 A 
BRANCH  11  18
ATOM     17  C   UNL     1       7.346   4.527  17.203  0.00  0.00    +0.000 C 
ATOM     18  O   UNL     1       6.918   4.533  18.558  0.00  0.00    +0.000 OA
ENDBRANCH  11  18
BRANCH  14  19
ATOM     19  O   UNL     1       1.446   4.640  19.498  0.00  0.00    +0.000 OA
ATOM     20  C   UNL     1       0.901   3.465  20.098  0.00  0.00    +0.000 C 
ENDBRANCH  14  19
ENDBRANCH  10  15
ENDBRANCH   6  10
ENDBRANCH   1   7
BRANCH   3  21
ATOM     21  C   UNL     1      -0.909  11.768  22.756  0.00  0.00    +0.000 C 
BRANCH  21  22
ATOM     22  N   UNL     1      -2.086  12.168  21.984  0.00  0.00    +0.000 N 
ATOM     23  N   UNL     1      -2.154  11.725  20.676  0.00  0.00    +0.000 NA
ATOM     24  C   UNL     1      -3.117  12.172  19.927  0.00  0.00    +0.000 A 
ATOM     25  C   UNL     1      -4.109  13.170  20.383  0.00  0.00    +0.000 A 
ATOM     26  C   UNL     1      -4.060  13.538  21.665  0.00  0.00    +0.000 A 
ATOM     27  C   UNL     1      -3.015  13.015  22.565  0.00  0.00    +0.000 A 
ATOM     28  O   UNL     1      -3.014  13.372  23.739  0.00  0.00    +0.000 OA
BRANCH  24  29
ATOM     29  C   UNL     1      -3.242  11.680  18.520  0.00  0.00    +0.000 A 
ATOM     30  C   UNL     1      -4.450  11.760  17.814  0.00  0.00    +0.000 A 
ATOM     31  C   UNL     1      -4.541  11.272  16.509  0.00  0.00    +0.000 A 
ATOM     32  C   UNL     1      -3.434  10.680  15.893  0.00  0.00    +0.000 A 
ATOM     33  C   UNL     1      -3.532  10.140  14.497  0.00  0.00    +0.000 C 
ATOM     34  C   UNL     1      -2.231  10.588  16.601  0.00  0.00    +0.000 A 
ATOM     35  C   UNL     1      -2.133  11.083  17.906  0.00  0.00    +0.000 A 
ENDBRANCH  24  29
ENDBRANCH  21  22
ENDBRANCH   3  21
TORSDOF 8
ENDMDL
MODEL 8
REMARK VINA RESULT:      -8.1      1.411      1.522
REMARK  Name = 
REMARK  11 active torsions:
REMARK  status: ('A' for Active; 'I' for Inactive)
REMARK    1  A    between atoms: C_1  and  O_2
REMARK    2  A    between atoms: O_2  and  C_3
REMARK    3  A    between atoms: C_6  and  O_7
REMARK    4  A    between atoms: O_7  and  C_8
REMARK    5  A    between atoms: C_9  and  C_10
REMARK    6  A    between atoms: C_10  and  N_11
REMARK    7  A    between atoms: C_12  and  C_14
REMARK    8  A    between atoms: C_16  and  C_17
REMARK    9  A    between atoms: C_17  and  N_18
REMARK   10  A    between atoms: C_20  and  C_21
REMARK   11  A    between atoms: C_24  and  C_25
REMARK                            x       y       z     vdW  Elec       q    Type
REMARK                         _______ _______ _______ _____ _____    ______ ____
ROOT
ATOM      1  C   UNL     1       7.754   8.100  17.905  0.00  0.00    +0.000 A 
ATOM      2  N   UNL     1       7.873   6.999  18.621  0.00  0.00    +0.000 NA
ATOM      3  C   UNL     1       7.001   6.147  17.977  0.00  0.00    +0.000 A 
ATOM      4  N   UNL     1       6.460   6.646  16.853  0.00  0.00    +0.000 NA
ATOM      5  O   UNL     1       6.933   7.959  16.824  0.00  0.00    +0.000 OA
ENDROOT
BRANCH   1   7
ATOM      6  N   UNL     1       9.197   9.422  19.263  0.00  0.00    +0.000 N 
ATOM      7  C   UNL     1       8.386   9.380  18.145  0.00  0.00    +0.000 C 
ATOM      8  O   UNL     1       8.241  10.364  17.420  0.00  0.00    +0.000 OA
ATOM      9  H   UNL     1       9.289   8.592  19.843  0.00  0.00    +0.000 HD
BRANCH   6  10
ATOM     10  C   UNL     1       9.916  10.611  19.623  0.00  0.00    +0.000 C 
BRANCH  10  15
ATOM     11  C   UNL     1       8.160  11.721  22.792  0.00  0.00    +0.000 A 
ATOM     12  C   UNL     1       7.958  13.077  22.578  0.00  0.00    +0.000 A 
ATOM     13  C   UNL     1       8.384  13.680  21.396  0.00  0.00    +0.000 A 
ATOM     14  C   UNL     1       9.005  12.929  20.389  0.00  0.00    +0.000 A 
ATOM     15  C   UNL     1       9.250  11.560  20.598  0.00  0.00    +0.000 A 
ATOM     16  C   UNL     1       8.813  10.974  21.817  0.00  0.00    +0.000 A 
BRANCH  11  18
ATOM     17  C   UNL     1       6.627  12.005  24.591  0.00  0.00    +0.000 C 
ATOM     18  O   UNL     1       7.667  11.255  23.978  0.00  0.00    +0.000 OA
ENDBRANCH  11  18
BRANCH  14  19
ATOM     19  O   UNL     1       9.422  13.485  19.205  0.00  0.00    +0.000 OA
ATOM     20  C   UNL     1      10.742  14.028  19.203  0.00  0.00    +0.000 C 
ENDBRANCH  14  19
ENDBRANCH  10  15
ENDBRANCH   6  10
ENDBRANCH   1   7
BRANCH   3  21
ATOM     21  C   UNL     1       6.628   4.805  18.514  0.00  0.00    +0.000 C 
BRANCH  21  22
ATOM     22  N   UNL     1       5.211   4.807  18.874  0.00  0.00    +0.000 N 
ATOM     23  N   UNL     1       4.541   6.013  18.768  0.00  0.00    +0.000 NA
ATOM     24  C   UNL     1       3.320   6.077  19.206  0.00  0.00    +0.000 A 
ATOM     25  C   UNL     1       2.629   4.945  19.861  0.00  0.00    +0.000 A 
ATOM     26  C   UNL     1       3.271   3.776  19.898  0.00  0.00    +0.000 A 
ATOM     27  C   UNL     1       4.640   3.645  19.365  0.00  0.00    +0.000 A 
ATOM     28  O   UNL     1       5.190   2.549  19.411  0.00  0.00    +0.000 OA
BRANCH  24  29
ATOM     29  C   UNL     1       2.556   7.355  19.068  0.00  0.00    +0.000 A 
ATOM     30  C   UNL     1       2.630   8.139  17.908  0.00  0.00    +0.000 A 
ATOM     31  C   UNL     1       1.921   9.338  17.818  0.00  0.00    +0.000 A 
ATOM     32  C   UNL     1       1.142   9.785  18.889  0.00  0.00    +0.000 A 
ATOM     33  C   UNL     1       0.391  11.081  18.802  0.00  0.00    +0.000 C 
ATOM     34  C   UNL     1       1.077   9.010  20.052  0.00  0.00    +0.000 A 
ATOM     35  C   UNL     1       1.779   7.804  20.144  0.00  0.00    +0.000 A 
ENDBRANCH  24  29
ENDBRANCH  21  22
ENDBRANCH   3  21
TORSDOF 8
ENDMDL
MODEL 9
REMARK VINA RESULT:      -7.9      5.257      9.484
REMARK  Name = 
REMARK  11 active torsions:
REMARK  status: ('A' for Active; 'I' for Inactive)
REMARK    1  A    between atoms: C_1  and  O_2
REMARK    2  A    between atoms: O_2  and  C_3
REMARK    3  A    between atoms: C_6  and  O_7
REMARK    4  A    between atoms: O_7  and  C_8
REMARK    5  A    between atoms: C_9  and  C_10
REMARK    6  A    between atoms: C_10  and  N_11
REMARK    7  A    between atoms: C_12  and  C_14
REMARK    8  A    between atoms: C_16  and  C_17
REMARK    9  A    between atoms: C_17  and  N_18
REMARK   10  A    between atoms: C_20  and  C_21
REMARK   11  A    between atoms: C_24  and  C_25
REMARK                            x       y       z     vdW  Elec       q    Type
REMARK                         _______ _______ _______ _____ _____    ______ ____
ROOT
ATOM      1  C   UNL     1       0.996   9.352  20.175  0.00  0.00    +0.000 A 
ATOM      2  N   UNL     1       0.737  10.565  20.625  0.00  0.00    +0.000 NA
ATOM      3  C   UNL     1       0.022  10.294  21.772  0.00  0.00    +0.000 A 
ATOM      4  N   UNL     1      -0.056   8.990  22.087  0.00  0.00    +0.000 NA
ATOM      5  O   UNL     1       0.561   8.360  21.004  0.00  0.00    +0.000 OA
ENDROOT
BRANCH   1   7
ATOM      6  N   UNL     1       2.469   7.870  19.032  0.00  0.00    +0.000 N 
ATOM      7  C   UNL     1       1.670   8.994  18.945  0.00  0.00    +0.000 C 
ATOM      8  O   UNL     1       1.548   9.614  17.889  0.00  0.00    +0.000 OA
ATOM      9  H   UNL     1       2.553   7.386  19.922  0.00  0.00    +0.000 HD
BRANCH   6  10
ATOM     10  C   UNL     1       3.184   7.368  17.891  0.00  0.00    +0.000 C 
BRANCH  10  15
ATOM     11  C   UNL     1       1.971   3.779  17.873  0.00  0.00    +0.000 A 
ATOM     12  C   UNL     1       3.104   3.069  17.503  0.00  0.00    +0.000 A 
ATOM     13  C   UNL     1       4.304   3.730  17.248  0.00  0.00    +0.000 A 
ATOM     14  C   UNL     1       4.400   5.122  17.379  0.00  0.00    +0.000 A 
ATOM     15  C   UNL     1       3.255   5.866  17.720  0.00  0.00    +0.000 A 
ATOM     16  C   UNL     1       2.043   5.165  17.965  0.00  0.00    +0.000 A 
BRANCH  11  18
ATOM     17  C   UNL     1       0.902   2.188  19.284  0.00  0.00    +0.000 C 
ATOM     18  O   UNL     1       0.872   3.004  18.122  0.00  0.00    +0.000 OA
ENDBRANCH  11  18
BRANCH  14  19
ATOM     19  O   UNL     1       5.568   5.805  17.154  0.00  0.00    +0.000 OA
ATOM     20  C   UNL     1       6.591   5.629  18.134  0.00  0.00    +0.000 C 
ENDBRANCH  14  19
ENDBRANCH  10  15
ENDBRANCH   6  10
ENDBRANCH   1   7
BRANCH   3  21
ATOM     21  C   UNL     1      -0.669  11.349  22.570  0.00  0.00    +0.000 C 
BRANCH  21  22
ATOM     22  N   UNL     1      -1.826  11.837  21.821  0.00  0.00    +0.000 N 
ATOM     23  N   UNL     1      -1.953  11.402  20.514  0.00  0.00    +0.000 NA
ATOM     24  C   UNL     1      -2.893  11.921  19.784  0.00  0.00    +0.000 A 
ATOM     25  C   UNL     1      -3.798  12.990  20.259  0.00  0.00    +0.000 A 
ATOM     26  C   UNL     1      -3.698  13.352  21.539  0.00  0.00    +0.000 A 
ATOM     27  C   UNL     1      -2.678  12.751  22.419  0.00  0.00    +0.000 A 
ATOM     28  O   UNL     1      -2.627  13.106  23.593  0.00  0.00    +0.000 OA
BRANCH  24  29
ATOM     29  C   UNL     1      -3.083  11.441  18.379  0.00  0.00    +0.000 A 
ATOM     30  C   UNL     1      -2.097  10.701  17.712  0.00  0.00    +0.000 A 
ATOM     31  C   UNL     1      -2.295  10.286  16.394  0.00  0.00    +0.000 A 
ATOM     32  C   UNL     1      -3.470  10.618  15.714  0.00  0.00    +0.000 A 
ATOM     33  C   UNL     1      -3.679  10.188  14.291  0.00  0.00    +0.000 C 
ATOM     34  C   UNL     1      -4.450  11.368  16.374  0.00  0.00    +0.000 A 
ATOM     35  C   UNL     1      -4.259  11.779  17.697  0.00  0.00    +0.000 A 
ENDBRANCH  24  29
ENDBRANCH  21  22
ENDBRANCH   3  21
TORSDOF 8
ENDMDL
