MODEL 1
REMARK VINA RESULT:      -7.3      0.000      0.000
REMARK  Name = 
REMARK  10 active torsions:
REMARK  status: ('A' for Active; 'I' for Inactive)
REMARK    1  A    between atoms: C_1  and  C_2
REMARK    2  A    between atoms: C_2  and  N_3
REMARK    3  A    between atoms: C_4  and  C_6
REMARK    4  A    between atoms: C_9  and  C_10
REMARK    5  A    between atoms: C_14  and  O_15
REMARK    6  A    between atoms: C_17  and  O_18
REMARK    7  A    between atoms: C_19  and  N_20
REMARK    8  A    between atoms: C_21  and  C_23
REMARK    9  A    between atoms: C_23  and  C_24
REMARK   10  A    between atoms: C_24  and  N_25
REMARK                            x       y       z     vdW  Elec       q    Type
REMARK                         _______ _______ _______ _____ _____    ______ ____
ROOT
ATOM      1  C   UNL     1       5.670   5.241  16.199  0.00  0.00    +0.000 A 
ATOM      2  N   UNL     1       4.708   4.332  16.412  0.00  0.00    +0.000 NA
ATOM      3  O   UNL     1       3.834   4.908  17.309  0.00  0.00    +0.000 OA
ATOM      4  C   UNL     1       4.235   6.180  17.611  0.00  0.00    +0.000 A 
ATOM      5  C   UNL     1       5.404   6.439  16.930  0.00  0.00    +0.000 A 
ENDROOT
BRANCH   4   6
ATOM      6  C   UNL     1       3.308   6.932  18.455  0.00  0.00    +0.000 A 
ATOM      7  C   UNL     1       2.795   8.154  17.974  0.00  0.00    +0.000 A 
ATOM      8  C   UNL     1       1.874   8.886  18.717  0.00  0.00    +0.000 A 
ATOM      9 CL   UNL     1       1.254  10.366  18.088  0.00  0.00    +0.000 Cl
ATOM     10  C   UNL     1       1.453   8.415  19.956  0.00  0.00    +0.000 A 
ATOM     11  C   UNL     1       1.970   7.235  20.478  0.00  0.00    +0.000 A 
ATOM     12  C   UNL     1       2.900   6.500  19.729  0.00  0.00    +0.000 A 
BRANCH  10  13
ATOM     13  O   UNL     1       0.524   9.079  20.712  0.00  0.00    +0.000 OA
ATOM     14  H   UNL     1       1.007   9.523  21.436  0.00  0.00    +0.000 HD
ENDBRANCH  10  13
BRANCH  12  15
ATOM     15  O   UNL     1       3.410   5.349  20.267  0.00  0.00    +0.000 OA
ATOM     16  H   UNL     1       2.706   4.908  20.781  0.00  0.00    +0.000 HD
ENDBRANCH  12  15
ENDBRANCH   4   6
BRANCH   1  18
ATOM     17  N   UNL     1       6.685   5.258  14.037  0.00  0.00    +0.000 N 
ATOM     18  C   UNL     1       6.833   4.920  15.369  0.00  0.00    +0.000 C 
ATOM     19  O   UNL     1       7.843   4.384  15.813  0.00  0.00    +0.000 OA
ATOM     20  H   UNL     1       5.869   5.804  13.788  0.00  0.00    +0.000 HD
BRANCH  17  22
ATOM     21  C   UNL     1       7.381   4.111  11.983  0.00  0.00    +0.000 C 
ATOM     22  C   UNL     1       7.763   5.062  13.101  0.00  0.00    +0.000 C 
ENDBRANCH  17  22
ENDBRANCH   1  18
BRANCH   5  23
ATOM     23  N   UNL     1       6.085   7.649  16.939  0.00  0.00    +0.000 N 
ATOM     24  C   UNL     1       7.274   7.766  17.638  0.00  0.00    +0.000 C 
ATOM     25  O   UNL     1       7.782   6.862  18.300  0.00  0.00    +0.000 OA
ATOM     26  H   UNL     1       5.976   8.214  16.100  0.00  0.00    +0.000 HD
BRANCH  24  27
ATOM     27  C   UNL     1       7.917   9.131  17.499  0.00  0.00    +0.000 C 
BRANCH  27  28
ATOM     28  C   UNL     1       8.777   9.443  18.729  0.00  0.00    +0.000 C 
BRANCH  28  29
ATOM     29  N   UNL     1       8.674  10.838  19.205  0.00  0.00    +0.000 NA
ATOM     30  C   UNL     1       8.937  11.788  18.091  0.00  0.00    +0.000 C 
ATOM     31  C   UNL     1      10.418  11.874  17.666  0.00  0.00    +0.000 C 
ATOM     32  O   UNL     1      11.280  12.151  18.776  0.00  0.00    +0.000 OA
ATOM     33  C   UNL     1      11.095  11.189  19.823  0.00  0.00    +0.000 C 
ATOM     34  C   UNL     1       9.631  11.166  20.286  0.00  0.00    +0.000 C 
ENDBRANCH  28  29
ENDBRANCH  27  28
ENDBRANCH  24  27
ENDBRANCH   5  23
TORSDOF 9
ENDMDL
MODEL 2
REMARK VINA RESULT:      -7.3      3.990      6.127
REMARK  Name = 
REMARK  10 active torsions:
REMARK  status: ('A' for Active; 'I' for Inactive)
REMARK    1  A    between atoms: C_1  and  C_2
REMARK    2  A    between atoms: C_2  and  N_3
REMARK    3  A    between atoms: C_4  and  C_6
REMARK    4  A    between atoms: C_9  and  C_10
REMARK    5  A    between atoms: C_14  and  O_15
REMARK    6  A    between atoms: C_17  and  O_18
REMARK    7  A    between atoms: C_19  and  N_20
REMARK    8  A    between atoms: C_21  and  C_23
REMARK    9  A    between atoms: C_23  and  C_24
REMARK   10  A    between atoms: C_24  and  N_25
REMARK                            x       y       z     vdW  Elec       q    Type
REMARK                         _______ _______ _______ _____ _____    ______ ____
ROOT
ATOM      1  C   UNL     1       5.271   5.667  16.057  0.00  0.00    +0.000 A 
ATOM      2  N   UNL     1       5.365   6.958  15.704  0.00  0.00    +0.000 NA
ATOM      3  O   UNL     1       4.447   7.630  16.481  0.00  0.00    +0.000 OA
ATOM      4  C   UNL     1       3.826   6.765  17.337  0.00  0.00    +0.000 A 
ATOM      5  C   UNL     1       4.315   5.498  17.105  0.00  0.00    +0.000 A 
ENDROOT
BRANCH   4   6
ATOM      6  C   UNL     1       2.924   7.394  18.301  0.00  0.00    +0.000 A 
ATOM      7  C   UNL     1       2.122   8.471  17.874  0.00  0.00    +0.000 A 
ATOM      8  C   UNL     1       1.214   9.074  18.739  0.00  0.00    +0.000 A 
ATOM      9 CL   UNL     1       0.237  10.378  18.175  0.00  0.00    +0.000 Cl
ATOM     10  C   UNL     1       1.094   8.618  20.047  0.00  0.00    +0.000 A 
ATOM     11  C   UNL     1       1.899   7.584  20.512  0.00  0.00    +0.000 A 
ATOM     12  C   UNL     1       2.815   6.979  19.640  0.00  0.00    +0.000 A 
BRANCH  10  13
ATOM     13  O   UNL     1       0.193   9.154  20.928  0.00  0.00    +0.000 OA
ATOM     14  H   UNL     1      -0.488   9.613  20.400  0.00  0.00    +0.000 HD
ENDBRANCH  10  13
BRANCH  12  15
ATOM     15  O   UNL     1       3.611   5.974  20.122  0.00  0.00    +0.000 OA
ATOM     16  H   UNL     1       4.545   6.233  20.001  0.00  0.00    +0.000 HD
ENDBRANCH  12  15
ENDBRANCH   4   6
BRANCH   1  18
ATOM     17  N   UNL     1       5.549   4.336  14.095  0.00  0.00    +0.000 N 
ATOM     18  C   UNL     1       6.039   4.640  15.350  0.00  0.00    +0.000 C 
ATOM     19  O   UNL     1       7.021   4.087  15.836  0.00  0.00    +0.000 OA
ATOM     20  H   UNL     1       4.810   4.927  13.731  0.00  0.00    +0.000 HD
BRANCH  17  22
ATOM     21  C   UNL     1       5.477   3.142  11.953  0.00  0.00    +0.000 C 
ATOM     22  C   UNL     1       6.228   3.388  13.246  0.00  0.00    +0.000 C 
ENDBRANCH  17  22
ENDBRANCH   1  18
BRANCH   5  23
ATOM     23  N   UNL     1       3.965   4.360  17.819  0.00  0.00    +0.000 N 
ATOM     24  C   UNL     1       4.846   3.831  18.746  0.00  0.00    +0.000 C 
ATOM     25  O   UNL     1       5.967   4.283  18.977  0.00  0.00    +0.000 OA
ATOM     26  H   UNL     1       2.970   4.252  18.002  0.00  0.00    +0.000 HD
BRANCH  24  27
ATOM     27  C   UNL     1       4.289   2.626  19.478  0.00  0.00    +0.000 C 
BRANCH  27  28
ATOM     28  C   UNL     1       3.121   2.018  18.694  0.00  0.00    +0.000 C 
BRANCH  28  29
ATOM     29  N   UNL     1       1.933   1.708  19.516  0.00  0.00    +0.000 NA
ATOM     30  C   UNL     1       0.752   2.471  19.030  0.00  0.00    +0.000 C 
ATOM     31  C   UNL     1       0.788   3.977  19.363  0.00  0.00    +0.000 C 
ATOM     32  O   UNL     1       0.997   4.213  20.761  0.00  0.00    +0.000 OA
ATOM     33  C   UNL     1       2.182   3.551  21.222  0.00  0.00    +0.000 C 
ATOM     34  C   UNL     1       2.101   2.042  20.948  0.00  0.00    +0.000 C 
ENDBRANCH  28  29
ENDBRANCH  27  28
ENDBRANCH  24  27
ENDBRANCH   5  23
TORSDOF 9
ENDMDL
MODEL 3
REMARK VINA RESULT:      -7.1      6.704      9.329
REMARK  Name = 
REMARK  10 active torsions:
REMARK  status: ('A' for Active; 'I' for Inactive)
REMARK    1  A    between atoms: C_1  and  C_2
REMARK    2  A    between atoms: C_2  and  N_3
REMARK    3  A    between atoms: C_4  and  C_6
REMARK    4  A    between atoms: C_9  and  C_10
REMARK    5  A    between atoms: C_14  and  O_15
REMARK    6  A    between atoms: C_17  and  O_18
REMARK    7  A    between atoms: C_19  and  N_20
REMARK    8  A    between atoms: C_21  and  C_23
REMARK    9  A    between atoms: C_23  and  C_24
REMARK   10  A    between atoms: C_24  and  N_25
REMARK                            x       y       z     vdW  Elec       q    Type
REMARK                         _______ _______ _______ _____ _____    ______ ____
ROOT
ATOM      1  C   UNL     1       0.268   9.571  21.349  0.00  0.00    +0.000 A 
ATOM      2  N   UNL     1      -0.176   8.987  22.472  0.00  0.00    +0.000 NA
ATOM      3  O   UNL     1      -0.835   9.971  23.176  0.00  0.00    +0.000 OA
ATOM      4  C   UNL     1      -0.835  11.140  22.468  0.00  0.00    +0.000 A 
ATOM      5  C   UNL     1      -0.141  10.938  21.296  0.00  0.00    +0.000 A 
ENDROOT
BRANCH   4   6
ATOM      6  C   UNL     1      -1.622  12.219  23.064  0.00  0.00    +0.000 A 
ATOM      7  C   UNL     1      -2.930  11.937  23.508  0.00  0.00    +0.000 A 
ATOM      8  C   UNL     1      -3.704  12.916  24.124  0.00  0.00    +0.000 A 
ATOM      9 CL   UNL     1      -5.292  12.528  24.671  0.00  0.00    +0.000 Cl
ATOM     10  C   UNL     1      -3.189  14.196  24.302  0.00  0.00    +0.000 A 
ATOM     11  C   UNL     1      -1.919  14.519  23.839  0.00  0.00    +0.000 A 
ATOM     12  C   UNL     1      -1.141  13.532  23.216  0.00  0.00    +0.000 A 
BRANCH  10  13
ATOM     13  O   UNL     1      -3.895  15.186  24.931  0.00  0.00    +0.000 OA
ATOM     14  H   UNL     1      -4.841  15.022  24.754  0.00  0.00    +0.000 HD
ENDBRANCH  10  13
BRANCH  12  15
ATOM     15  O   UNL     1       0.101  13.874  22.751  0.00  0.00    +0.000 OA
ATOM     16  H   UNL     1       0.042  14.017  21.787  0.00  0.00    +0.000 HD
ENDBRANCH  12  15
ENDBRANCH   4   6
BRANCH   1  18
ATOM     17  N   UNL     1       1.557   7.616  20.881  0.00  0.00    +0.000 N 
ATOM     18  C   UNL     1       1.112   8.834  20.405  0.00  0.00    +0.000 C 
ATOM     19  O   UNL     1       1.410   9.269  19.298  0.00  0.00    +0.000 OA
ATOM     20  H   UNL     1       1.162   7.289  21.755  0.00  0.00    +0.000 HD
BRANCH  17  22
ATOM     21  C   UNL     1       2.013   5.282  20.278  0.00  0.00    +0.000 C 
ATOM     22  C   UNL     1       2.348   6.743  20.049  0.00  0.00    +0.000 C 
ENDBRANCH  17  22
ENDBRANCH   1  18
BRANCH   5  23
ATOM     23  N   UNL     1       0.025  11.881  20.291  0.00  0.00    +0.000 N 
ATOM     24  C   UNL     1      -0.898  11.961  19.262  0.00  0.00    +0.000 C 
ATOM     25  O   UNL     1      -1.873  11.220  19.144  0.00  0.00    +0.000 OA
ATOM     26  H   UNL     1       0.487  12.742  20.576  0.00  0.00    +0.000 HD
BRANCH  24  27
ATOM     27  C   UNL     1      -0.603  13.078  18.281  0.00  0.00    +0.000 C 
BRANCH  27  28
ATOM     28  C   UNL     1       0.674  13.823  18.689  0.00  0.00    +0.000 C 
BRANCH  28  29
ATOM     29  N   UNL     1       0.489  14.784  19.796  0.00  0.00    +0.000 NA
ATOM     30  C   UNL     1      -0.639  15.708  19.499  0.00  0.00    +0.000 C 
ATOM     31  C   UNL     1      -0.326  16.765  18.420  0.00  0.00    +0.000 C 
ATOM     32  O   UNL     1       0.863  17.506  18.723  0.00  0.00    +0.000 OA
ATOM     33  C   UNL     1       1.977  16.627  18.926  0.00  0.00    +0.000 C 
ATOM     34  C   UNL     1       1.679  15.626  20.053  0.00  0.00    +0.000 C 
ENDBRANCH  28  29
ENDBRANCH  27  28
ENDBRANCH  24  27
ENDBRANCH   5  23
TORSDOF 9
ENDMDL
MODEL 4
REMARK VINA RESULT:      -7.1      0.731      1.223
REMARK  Name = 
REMARK  10 active torsions:
REMARK  status: ('A' for Active; 'I' for Inactive)
REMARK    1  A    between atoms: C_1  and  C_2
REMARK    2  A    between atoms: C_2  and  N_3
REMARK    3  A    between atoms: C_4  and  C_6
REMARK    4  A    between atoms: C_9  and  C_10
REMARK    5  A    between atoms: C_14  and  O_15
REMARK    6  A    between atoms: C_17  and  O_18
REMARK    7  A    between atoms: C_19  and  N_20
REMARK    8  A    between atoms: C_21  and  C_23
REMARK    9  A    between atoms: C_23  and  C_24
REMARK   10  A    between atoms: C_24  and  N_25
REMARK                            x       y       z     vdW  Elec       q    Type
REMARK                         _______ _______ _______ _____ _____    ______ ____
ROOT
ATOM      1  C   UNL     1       5.507   5.048  16.000  0.00  0.00    +0.000 A 
ATOM      2  N   UNL     1       4.496   4.192  16.212  0.00  0.00    +0.000 NA
ATOM      3  O   UNL     1       3.682   4.791  17.148  0.00  0.00    +0.000 OA
ATOM      4  C   UNL     1       4.166   6.026  17.476  0.00  0.00    +0.000 A 
ATOM      5  C   UNL     1       5.332   6.237  16.772  0.00  0.00    +0.000 A 
ENDROOT
BRANCH   4   6
ATOM      6  C   UNL     1       3.308   6.807  18.365  0.00  0.00    +0.000 A 
ATOM      7  C   UNL     1       2.828   8.055  17.919  0.00  0.00    +0.000 A 
ATOM      8  C   UNL     1       1.970   8.816  18.708  0.00  0.00    +0.000 A 
ATOM      9 CL   UNL     1       1.388  10.328  18.120  0.00  0.00    +0.000 Cl
ATOM     10  C   UNL     1       1.581   8.348  19.958  0.00  0.00    +0.000 A 
ATOM     11  C   UNL     1       2.068   7.141  20.446  0.00  0.00    +0.000 A 
ATOM     12  C   UNL     1       2.935   6.377  19.651  0.00  0.00    +0.000 A 
BRANCH  10  13
ATOM     13  O   UNL     1       0.713   9.041  20.760  0.00  0.00    +0.000 OA
ATOM     14  H   UNL     1       1.171   9.856  21.043  0.00  0.00    +0.000 HD
ENDBRANCH  10  13
BRANCH  12  15
ATOM     15  O   UNL     1       3.417   5.199  20.156  0.00  0.00    +0.000 OA
ATOM     16  H   UNL     1       3.148   4.473  19.560  0.00  0.00    +0.000 HD
ENDBRANCH  12  15
ENDBRANCH   4   6
BRANCH   1  18
ATOM     17  N   UNL     1       6.251   4.305  13.856  0.00  0.00    +0.000 N 
ATOM     18  C   UNL     1       6.627   4.683  15.130  0.00  0.00    +0.000 C 
ATOM     19  O   UNL     1       7.795   4.696  15.505  0.00  0.00    +0.000 OA
ATOM     20  H   UNL     1       5.279   4.440  13.602  0.00  0.00    +0.000 HD
BRANCH  17  22
ATOM     21  C   UNL     1       6.696   3.025  11.811  0.00  0.00    +0.000 C 
ATOM     22  C   UNL     1       7.240   3.975  12.861  0.00  0.00    +0.000 C 
ENDBRANCH  17  22
ENDBRANCH   1  18
BRANCH   5  23
ATOM     23  N   UNL     1       6.084   7.403  16.798  0.00  0.00    +0.000 N 
ATOM     24  C   UNL     1       7.223   7.471  17.582  0.00  0.00    +0.000 C 
ATOM     25  O   UNL     1       7.623   6.561  18.307  0.00  0.00    +0.000 OA
ATOM     26  H   UNL     1       6.074   7.945  15.937  0.00  0.00    +0.000 HD
BRANCH  24  27
ATOM     27  C   UNL     1       7.959   8.790  17.453  0.00  0.00    +0.000 C 
BRANCH  27  28
ATOM     28  C   UNL     1       8.346   9.322  18.838  0.00  0.00    +0.000 C 
BRANCH  28  29
ATOM     29  N   UNL     1       9.639  10.037  18.874  0.00  0.00    +0.000 NA
ATOM     30  C   UNL     1       9.841  10.676  20.203  0.00  0.00    +0.000 C 
ATOM     31  C   UNL     1       8.964  11.920  20.449  0.00  0.00    +0.000 C 
ATOM     32  O   UNL     1       9.098  12.888  19.400  0.00  0.00    +0.000 OA
ATOM     33  C   UNL     1       8.820  12.302  18.122  0.00  0.00    +0.000 C 
ATOM     34  C   UNL     1       9.751  11.108  17.859  0.00  0.00    +0.000 C 
ENDBRANCH  28  29
ENDBRANCH  27  28
ENDBRANCH  24  27
ENDBRANCH   5  23
TORSDOF 9
ENDMDL
MODEL 5
REMARK VINA RESULT:      -7.0      6.072      8.549
REMARK  Name = 
REMARK  10 active torsions:
REMARK  status: ('A' for Active; 'I' for Inactive)
REMARK    1  A    between atoms: C_1  and  C_2
REMARK    2  A    between atoms: C_2  and  N_3
REMARK    3  A    between atoms: C_4  and  C_6
REMARK    4  A    between atoms: C_9  and  C_10
REMARK    5  A    between atoms: C_14  and  O_15
REMARK    6  A    between atoms: C_17  and  O_18
REMARK    7  A    between atoms: C_19  and  N_20
REMARK    8  A    between atoms: C_21  and  C_23
REMARK    9  A    between atoms: C_23  and  C_24
REMARK   10  A    between atoms: C_24  and  N_25
REMARK                            x       y       z     vdW  Elec       q    Type
REMARK                         _______ _______ _______ _____ _____    ______ ____
ROOT
ATOM      1  C   UNL     1       0.184   9.649  21.449  0.00  0.00    +0.000 A 
ATOM      2  N   UNL     1      -0.190   9.097  22.613  0.00  0.00    +0.000 NA
ATOM      3  O   UNL     1      -0.859  10.085  23.303  0.00  0.00    +0.000 OA
ATOM      4  C   UNL     1      -0.932  11.223  22.549  0.00  0.00    +0.000 A 
ATOM      5  C   UNL     1      -0.279  10.997  21.358  0.00  0.00    +0.000 A 
ENDROOT
BRANCH   4   6
ATOM      6  C   UNL     1      -1.736  12.296  23.133  0.00  0.00    +0.000 A 
ATOM      7  C   UNL     1      -3.067  12.018  23.507  0.00  0.00    +0.000 A 
ATOM      8  C   UNL     1      -3.859  12.990  24.109  0.00  0.00    +0.000 A 
ATOM      9 CL   UNL     1      -5.476  12.608  24.569  0.00  0.00    +0.000 Cl
ATOM     10  C   UNL     1      -3.341  14.259  24.343  0.00  0.00    +0.000 A 
ATOM     11  C   UNL     1      -2.046  14.579  23.950  0.00  0.00    +0.000 A 
ATOM     12  C   UNL     1      -1.250  13.598  23.341  0.00  0.00    +0.000 A 
BRANCH  10  13
ATOM     13  O   UNL     1      -4.066  15.242  24.962  0.00  0.00    +0.000 OA
ATOM     14  H   UNL     1      -4.090  15.026  25.914  0.00  0.00    +0.000 HD
ENDBRANCH  10  13
BRANCH  12  15
ATOM     15  O   UNL     1       0.017  13.937  22.945  0.00  0.00    +0.000 OA
ATOM     16  H   UNL     1      -0.041  14.414  22.094  0.00  0.00    +0.000 HD
ENDBRANCH  12  15
ENDBRANCH   4   6
BRANCH   1  18
ATOM     17  N   UNL     1       1.492   7.704  20.991  0.00  0.00    +0.000 N 
ATOM     18  C   UNL     1       1.018   8.906  20.502  0.00  0.00    +0.000 C 
ATOM     19  O   UNL     1       1.285   9.321  19.379  0.00  0.00    +0.000 OA
ATOM     20  H   UNL     1       1.122   7.390  21.881  0.00  0.00    +0.000 HD
BRANCH  17  22
ATOM     21  C   UNL     1       1.902   5.370  20.357  0.00  0.00    +0.000 C 
ATOM     22  C   UNL     1       2.276   6.826  20.160  0.00  0.00    +0.000 C 
ENDBRANCH  17  22
ENDBRANCH   1  18
BRANCH   5  23
ATOM     23  N   UNL     1      -0.190  11.902  20.309  0.00  0.00    +0.000 N 
ATOM     24  C   UNL     1       0.936  12.697  20.178  0.00  0.00    +0.000 C 
ATOM     25  O   UNL     1       1.887  12.689  20.959  0.00  0.00    +0.000 OA
ATOM     26  H   UNL     1      -0.672  11.627  19.456  0.00  0.00    +0.000 HD
BRANCH  24  27
ATOM     27  C   UNL     1       0.899  13.587  18.951  0.00  0.00    +0.000 C 
BRANCH  27  28
ATOM     28  C   UNL     1       2.318  13.814  18.416  0.00  0.00    +0.000 C 
BRANCH  28  29
ATOM     29  N   UNL     1       2.758  15.225  18.442  0.00  0.00    +0.000 NA
ATOM     30  C   UNL     1       3.866  15.441  17.473  0.00  0.00    +0.000 C 
ATOM     31  C   UNL     1       5.219  14.843  17.912  0.00  0.00    +0.000 C 
ATOM     32  O   UNL     1       5.603  15.285  19.220  0.00  0.00    +0.000 OA
ATOM     33  C   UNL     1       4.575  15.003  20.179  0.00  0.00    +0.000 C 
ATOM     34  C   UNL     1       3.252  15.665  19.767  0.00  0.00    +0.000 C 
ENDBRANCH  28  29
ENDBRANCH  27  28
ENDBRANCH  24  27
ENDBRANCH   5  23
TORSDOF 9
ENDMDL
MODEL 6
REMARK VINA RESULT:      -6.9      6.328     10.072
REMARK  Name = 
REMARK  10 active torsions:
REMARK  status: ('A' for Active; 'I' for Inactive)
REMARK    1  A    between atoms: C_1  and  C_2
REMARK    2  A    between atoms: C_2  and  N_3
REMARK    3  A    between atoms: C_4  and  C_6
REMARK    4  A    between atoms: C_9  and  C_10
REMARK    5  A    between atoms: C_14  and  O_15
REMARK    6  A    between atoms: C_17  and  O_18
REMARK    7  A    between atoms: C_19  and  N_20
REMARK    8  A    between atoms: C_21  and  C_23
REMARK    9  A    between atoms: C_23  and  C_24
REMARK   10  A    between atoms: C_24  and  N_25
REMARK                            x       y       z     vdW  Elec       q    Type
REMARK                         _______ _______ _______ _____ _____    ______ ____
ROOT
ATOM      1  C   UNL     1       0.394   9.287  21.844  0.00  0.00    +0.000 A 
ATOM      2  N   UNL     1       0.488   9.209  23.179  0.00  0.00    +0.000 NA
ATOM      3  O   UNL     1      -0.154  10.325  23.670  0.00  0.00    +0.000 OA
ATOM      4  C   UNL     1      -0.678  11.060  22.643  0.00  0.00    +0.000 A 
ATOM      5  C   UNL     1      -0.353  10.441  21.456  0.00  0.00    +0.000 A 
ENDROOT
BRANCH   4   6
ATOM      6  C   UNL     1      -1.496  12.199  23.058  0.00  0.00    +0.000 A 
ATOM      7  C   UNL     1      -2.823  11.965  23.472  0.00  0.00    +0.000 A 
ATOM      8  C   UNL     1      -3.628  13.008  23.920  0.00  0.00    +0.000 A 
ATOM      9 CL   UNL     1      -5.239  12.680  24.435  0.00  0.00    +0.000 Cl
ATOM     10  C   UNL     1      -3.125  14.304  23.957  0.00  0.00    +0.000 A 
ATOM     11  C   UNL     1      -1.834  14.576  23.518  0.00  0.00    +0.000 A 
ATOM     12  C   UNL     1      -1.026  13.524  23.064  0.00  0.00    +0.000 A 
BRANCH  10  13
ATOM     13  O   UNL     1      -3.863  15.360  24.420  0.00  0.00    +0.000 OA
ATOM     14  H   UNL     1      -4.489  15.007  25.080  0.00  0.00    +0.000 HD
ENDBRANCH  10  13
BRANCH  12  15
ATOM     15  O   UNL     1       0.237  13.814  22.619  0.00  0.00    +0.000 OA
ATOM     16  H   UNL     1       0.403  14.767  22.759  0.00  0.00    +0.000 HD
ENDBRANCH  12  15
ENDBRANCH   4   6
BRANCH   1  18
ATOM     17  N   UNL     1       1.631   8.848  19.849  0.00  0.00    +0.000 N 
ATOM     18  C   UNL     1       1.067   8.307  20.987  0.00  0.00    +0.000 C 
ATOM     19  O   UNL     1       1.110   7.109  21.250  0.00  0.00    +0.000 OA
ATOM     20  H   UNL     1       1.650   9.859  19.778  0.00  0.00    +0.000 HD
BRANCH  17  22
ATOM     21  C   UNL     1       2.047   8.331  17.487  0.00  0.00    +0.000 C 
ATOM     22  C   UNL     1       2.382   8.025  18.934  0.00  0.00    +0.000 C 
ENDBRANCH  17  22
ENDBRANCH   1  18
BRANCH   5  23
ATOM     23  N   UNL     1      -0.758  10.861  20.197  0.00  0.00    +0.000 N 
ATOM     24  C   UNL     1      -0.060  11.865  19.548  0.00  0.00    +0.000 C 
ATOM     25  O   UNL     1       0.907  12.458  20.024  0.00  0.00    +0.000 OA
ATOM     26  H   UNL     1      -1.195  10.145  19.621  0.00  0.00    +0.000 HD
BRANCH  24  27
ATOM     27  C   UNL     1      -0.595  12.164  18.162  0.00  0.00    +0.000 C 
BRANCH  27  28
ATOM     28  C   UNL     1      -2.127  12.108  18.158  0.00  0.00    +0.000 C 
BRANCH  28  29
ATOM     29  N   UNL     1      -2.686  10.747  18.028  0.00  0.00    +0.000 NA
ATOM     30  C   UNL     1      -2.153  10.081  16.808  0.00  0.00    +0.000 C 
ATOM     31  C   UNL     1      -2.736  10.620  15.485  0.00  0.00    +0.000 C 
ATOM     32  O   UNL     1      -4.169  10.601  15.482  0.00  0.00    +0.000 OA
ATOM     33  C   UNL     1      -4.694  11.315  16.609  0.00  0.00    +0.000 C 
ATOM     34  C   UNL     1      -4.162  10.721  17.922  0.00  0.00    +0.000 C 
ENDBRANCH  28  29
ENDBRANCH  27  28
ENDBRANCH  24  27
ENDBRANCH   5  23
TORSDOF 9
ENDMDL
MODEL 7
REMARK VINA RESULT:      -6.9      3.473      6.174
REMARK  Name = 
REMARK  10 active torsions:
REMARK  status: ('A' for Active; 'I' for Inactive)
REMARK    1  A    between atoms: C_1  and  C_2
REMARK    2  A    between atoms: C_2  and  N_3
REMARK    3  A    between atoms: C_4  and  C_6
REMARK    4  A    between atoms: C_9  and  C_10
REMARK    5  A    between atoms: C_14  and  O_15
REMARK    6  A    between atoms: C_17  and  O_18
REMARK    7  A    between atoms: C_19  and  N_20
REMARK    8  A    between atoms: C_21  and  C_23
REMARK    9  A    between atoms: C_23  and  C_24
REMARK   10  A    between atoms: C_24  and  N_25
REMARK                            x       y       z     vdW  Elec       q    Type
REMARK                         _______ _______ _______ _____ _____    ______ ____
ROOT
ATOM      1  C   UNL     1       6.090   5.988  16.243  0.00  0.00    +0.000 A 
ATOM      2  N   UNL     1       6.526   7.219  16.551  0.00  0.00    +0.000 NA
ATOM      3  O   UNL     1       5.512   7.809  17.274  0.00  0.00    +0.000 OA
ATOM      4  C   UNL     1       4.479   6.931  17.446  0.00  0.00    +0.000 A 
ATOM      5  C   UNL     1       4.798   5.754  16.805  0.00  0.00    +0.000 A 
ENDROOT
BRANCH   4   6
ATOM      6  C   UNL     1       3.403   7.409  18.313  0.00  0.00    +0.000 A 
ATOM      7  C   UNL     1       2.662   8.539  17.910  0.00  0.00    +0.000 A 
ATOM      8  C   UNL     1       1.597   9.006  18.675  0.00  0.00    +0.000 A 
ATOM      9 CL   UNL     1       0.703  10.379  18.142  0.00  0.00    +0.000 Cl
ATOM     10  C   UNL     1       1.258   8.360  19.859  0.00  0.00    +0.000 A 
ATOM     11  C   UNL     1       1.993   7.268  20.305  0.00  0.00    +0.000 A 
ATOM     12  C   UNL     1       3.067   6.800  19.535  0.00  0.00    +0.000 A 
BRANCH  10  13
ATOM     13  O   UNL     1       0.200   8.758  20.631  0.00  0.00    +0.000 OA
ATOM     14  H   UNL     1       0.416   9.644  20.980  0.00  0.00    +0.000 HD
ENDBRANCH  10  13
BRANCH  12  15
ATOM     15  O   UNL     1       3.791   5.733  20.000  0.00  0.00    +0.000 OA
ATOM     16  H   UNL     1       3.465   4.923  19.562  0.00  0.00    +0.000 HD
ENDBRANCH  12  15
ENDBRANCH   4   6
BRANCH   1  18
ATOM     17  N   UNL     1       6.543   5.180  14.042  0.00  0.00    +0.000 N 
ATOM     18  C   UNL     1       6.881   5.109  15.379  0.00  0.00    +0.000 C 
ATOM     19  O   UNL     1       7.756   4.362  15.807  0.00  0.00    +0.000 OA
ATOM     20  H   UNL     1       5.895   5.910  13.768  0.00  0.00    +0.000 HD
BRANCH  17  22
ATOM     21  C   UNL     1       6.375   3.444  12.317  0.00  0.00    +0.000 C 
ATOM     22  C   UNL     1       7.269   4.422  13.054  0.00  0.00    +0.000 C 
ENDBRANCH  17  22
ENDBRANCH   1  18
BRANCH   5  23
ATOM     23  N   UNL     1       4.020   4.605  16.805  0.00  0.00    +0.000 N 
ATOM     24  C   UNL     1       4.329   3.564  17.664  0.00  0.00    +0.000 C 
ATOM     25  O   UNL     1       5.288   3.560  18.434  0.00  0.00    +0.000 OA
ATOM     26  H   UNL     1       3.039   4.745  16.571  0.00  0.00    +0.000 HD
BRANCH  24  27
ATOM     27  C   UNL     1       3.349   2.411  17.580  0.00  0.00    +0.000 C 
BRANCH  27  28
ATOM     28  C   UNL     1       1.934   2.886  17.931  0.00  0.00    +0.000 C 
BRANCH  28  29
ATOM     29  N   UNL     1       1.293   2.131  19.027  0.00  0.00    +0.000 NA
ATOM     30  C   UNL     1       0.288   2.979  19.724  0.00  0.00    +0.000 C 
ATOM     31  C   UNL     1       0.897   4.076  20.621  0.00  0.00    +0.000 C 
ATOM     32  O   UNL     1       1.840   3.541  21.559  0.00  0.00    +0.000 OA
ATOM     33  C   UNL     1       2.862   2.792  20.889  0.00  0.00    +0.000 C 
ATOM     34  C   UNL     1       2.246   1.658  20.056  0.00  0.00    +0.000 C 
ENDBRANCH  28  29
ENDBRANCH  27  28
ENDBRANCH  24  27
ENDBRANCH   5  23
TORSDOF 9
ENDMDL
MODEL 8
REMARK VINA RESULT:      -6.9      6.765     11.109
REMARK  Name = 
REMARK  10 active torsions:
REMARK  status: ('A' for Active; 'I' for Inactive)
REMARK    1  A    between atoms: C_1  and  C_2
REMARK    2  A    between atoms: C_2  and  N_3
REMARK    3  A    between atoms: C_4  and  C_6
REMARK    4  A    between atoms: C_9  and  C_10
REMARK    5  A    between atoms: C_14  and  O_15
REMARK    6  A    between atoms: C_17  and  O_18
REMARK    7  A    between atoms: C_19  and  N_20
REMARK    8  A    between atoms: C_21  and  C_23
REMARK    9  A    between atoms: C_23  and  C_24
REMARK   10  A    between atoms: C_24  and  N_25
REMARK                            x       y       z     vdW  Elec       q    Type
REMARK                         _______ _______ _______ _____ _____    ______ ____
ROOT
ATOM      1  C   UNL     1       0.423  10.405  20.255  0.00  0.00    +0.000 A 
ATOM      2  N   UNL     1       1.012  10.833  21.381  0.00  0.00    +0.000 NA
ATOM      3  O   UNL     1       0.135  11.731  21.949  0.00  0.00    +0.000 OA
ATOM      4  C   UNL     1      -1.005  11.819  21.200  0.00  0.00    +0.000 A 
ATOM      5  C   UNL     1      -0.869  10.994  20.105  0.00  0.00    +0.000 A 
ENDROOT
BRANCH   4   6
ATOM      6  C   UNL     1      -2.061  12.646  21.782  0.00  0.00    +0.000 A 
ATOM      7  C   UNL     1      -2.739  12.173  22.923  0.00  0.00    +0.000 A 
ATOM      8  C   UNL     1      -3.720  12.942  23.543  0.00  0.00    +0.000 A 
ATOM      9 CL   UNL     1      -4.515  12.338  24.947  0.00  0.00    +0.000 Cl
ATOM     10  C   UNL     1      -4.045  14.194  23.031  0.00  0.00    +0.000 A 
ATOM     11  C   UNL     1      -3.423  14.673  21.884  0.00  0.00    +0.000 A 
ATOM     12  C   UNL     1      -2.438  13.896  21.259  0.00  0.00    +0.000 A 
BRANCH  10  13
ATOM     13  O   UNL     1      -4.978  15.004  23.622  0.00  0.00    +0.000 OA
ATOM     14  H   UNL     1      -4.878  15.892  23.229  0.00  0.00    +0.000 HD
ENDBRANCH  10  13
BRANCH  12  15
ATOM     15  O   UNL     1      -1.849  14.378  20.120  0.00  0.00    +0.000 OA
ATOM     16  H   UNL     1      -1.902  15.354  20.132  0.00  0.00    +0.000 HD
ENDBRANCH  12  15
ENDBRANCH   4   6
BRANCH   1  18
ATOM     17  N   UNL     1       1.688   8.403  19.944  0.00  0.00    +0.000 N 
ATOM     18  C   UNL     1       1.129   9.509  19.335  0.00  0.00    +0.000 C 
ATOM     19  O   UNL     1       1.227   9.731  18.132  0.00  0.00    +0.000 OA
ATOM     20  H   UNL     1       1.453   8.243  20.917  0.00  0.00    +0.000 HD
BRANCH  17  22
ATOM     21  C   UNL     1       2.353   6.043  19.855  0.00  0.00    +0.000 C 
ATOM     22  C   UNL     1       2.364   7.395  19.167  0.00  0.00    +0.000 C 
ENDBRANCH  17  22
ENDBRANCH   1  18
BRANCH   5  23
ATOM     23  N   UNL     1      -1.845  10.774  19.142  0.00  0.00    +0.000 N 
ATOM     24  C   UNL     1      -1.918  11.600  18.034  0.00  0.00    +0.000 C 
ATOM     25  O   UNL     1      -1.183  12.568  17.839  0.00  0.00    +0.000 OA
ATOM     26  H   UNL     1      -2.125   9.803  19.023  0.00  0.00    +0.000 HD
BRANCH  24  27
ATOM     27  C   UNL     1      -2.999  11.190  17.054  0.00  0.00    +0.000 C 
BRANCH  27  28
ATOM     28  C   UNL     1      -4.347  11.057  17.772  0.00  0.00    +0.000 C 
BRANCH  28  29
ATOM     29  N   UNL     1      -4.779  12.276  18.485  0.00  0.00    +0.000 NA
ATOM     30  C   UNL     1      -5.233  11.940  19.862  0.00  0.00    +0.000 C 
ATOM     31  C   UNL     1      -6.599  11.226  19.924  0.00  0.00    +0.000 C 
ATOM     32  O   UNL     1      -7.617  11.953  19.224  0.00  0.00    +0.000 OA
ATOM     33  C   UNL     1      -7.226  12.208  17.868  0.00  0.00    +0.000 C 
ATOM     34  C   UNL     1      -5.900  12.983  17.823  0.00  0.00    +0.000 C 
ENDBRANCH  28  29
ENDBRANCH  27  28
ENDBRANCH  24  27
ENDBRANCH   5  23
TORSDOF 9
ENDMDL
MODEL 9
REMARK VINA RESULT:      -6.8      6.720      9.476
REMARK  Name = 
REMARK  10 active torsions:
REMARK  status: ('A' for Active; 'I' for Inactive)
REMARK    1  A    between atoms: C_1  and  C_2
REMARK    2  A    between atoms: C_2  and  N_3
REMARK    3  A    between atoms: C_4  and  C_6
REMARK    4  A    between atoms: C_9  and  C_10
REMARK    5  A    between atoms: C_14  and  O_15
REMARK    6  A    between atoms: C_17  and  O_18
REMARK    7  A    between atoms: C_19  and  N_20
REMARK    8  A    between atoms: C_21  and  C_23
REMARK    9  A    between atoms: C_23  and  C_24
REMARK   10  A    between atoms: C_24  and  N_25
REMARK                            x       y       z     vdW  Elec       q    Type
REMARK                         _______ _______ _______ _____ _____    ______ ____
ROOT
ATOM      1  C   UNL     1       0.270   9.599  21.462  0.00  0.00    +0.000 A 
ATOM      2  N   UNL     1      -0.079   9.071  22.645  0.00  0.00    +0.000 NA
ATOM      3  O   UNL     1      -0.746  10.068  23.323  0.00  0.00    +0.000 OA
ATOM      4  C   UNL     1      -0.845  11.187  22.544  0.00  0.00    +0.000 A 
ATOM      5  C   UNL     1      -0.209  10.940  21.347  0.00  0.00    +0.000 A 
ENDROOT
BRANCH   4   6
ATOM      6  C   UNL     1      -1.650  12.265  23.115  0.00  0.00    +0.000 A 
ATOM      7  C   UNL     1      -2.973  11.984  23.514  0.00  0.00    +0.000 A 
ATOM      8  C   UNL     1      -3.765  12.962  24.107  0.00  0.00    +0.000 A 
ATOM      9 CL   UNL     1      -5.372  12.575  24.597  0.00  0.00    +0.000 Cl
ATOM     10  C   UNL     1      -3.255  14.240  24.307  0.00  0.00    +0.000 A 
ATOM     11  C   UNL     1      -1.969  14.562  23.889  0.00  0.00    +0.000 A 
ATOM     12  C   UNL     1      -1.172  13.576  23.289  0.00  0.00    +0.000 A 
BRANCH  10  13
ATOM     13  O   UNL     1      -3.981  15.229  24.914  0.00  0.00    +0.000 OA
ATOM     14  H   UNL     1      -3.413  16.023  24.949  0.00  0.00    +0.000 HD
ENDBRANCH  10  13
BRANCH  12  15
ATOM     15  O   UNL     1       0.086  13.917  22.869  0.00  0.00    +0.000 OA
ATOM     16  H   UNL     1       0.714  13.743  23.597  0.00  0.00    +0.000 HD
ENDBRANCH  12  15
ENDBRANCH   4   6
BRANCH   1  18
ATOM     17  N   UNL     1       1.527   7.622  21.001  0.00  0.00    +0.000 N 
ATOM     18  C   UNL     1       1.095   8.842  20.518  0.00  0.00    +0.000 C 
ATOM     19  O   UNL     1       1.391   9.262  19.404  0.00  0.00    +0.000 OA
ATOM     20  H   UNL     1       1.134   7.308  21.881  0.00  0.00    +0.000 HD
BRANCH  17  22
ATOM     21  C   UNL     1       1.939   5.276  20.412  0.00  0.00    +0.000 C 
ATOM     22  C   UNL     1       2.297   6.730  20.171  0.00  0.00    +0.000 C 
ENDBRANCH  17  22
ENDBRANCH   1  18
BRANCH   5  23
ATOM     23  N   UNL     1      -0.148  11.821  20.276  0.00  0.00    +0.000 N 
ATOM     24  C   UNL     1       0.958  12.639  20.119  0.00  0.00    +0.000 C 
ATOM     25  O   UNL     1       1.912  12.673  20.894  0.00  0.00    +0.000 OA
ATOM     26  H   UNL     1      -0.627  11.512  19.432  0.00  0.00    +0.000 HD
BRANCH  24  27
ATOM     27  C   UNL     1       0.893  13.497  18.871  0.00  0.00    +0.000 C 
BRANCH  27  28
ATOM     28  C   UNL     1       1.234  14.953  19.207  0.00  0.00    +0.000 C 
BRANCH  28  29
ATOM     29  N   UNL     1       0.380  15.552  20.253  0.00  0.00    +0.000 NA
ATOM     30  C   UNL     1      -0.930  15.963  19.681  0.00  0.00    +0.000 C 
ATOM     31  C   UNL     1      -0.867  17.220  18.788  0.00  0.00    +0.000 C 
ATOM     32  O   UNL     1      -0.242  18.323  19.457  0.00  0.00    +0.000 OA
ATOM     33  C   UNL     1       1.059  17.962  19.938  0.00  0.00    +0.000 C 
ATOM     34  C   UNL     1       0.972  16.754  20.883  0.00  0.00    +0.000 C 
ENDBRANCH  28  29
ENDBRANCH  27  28
ENDBRANCH  24  27
ENDBRANCH   5  23
TORSDOF 9
ENDMDL
