MODEL 1
REMARK VINA RESULT:      -8.1      0.000      0.000
REMARK  Name = 
REMARK  13 active torsions:
REMARK  status: ('A' for Active; 'I' for Inactive)
REMARK    1  A    between atoms: C_1  and  C_2
REMARK    2  A    between atoms: C_2  and  C_3
REMARK    3  A    between atoms: C_3  and  C_4
REMARK    4  A    between atoms: C_4  and  C_5
REMARK    5  A    between atoms: C_5  and  C_6
REMARK    6  A    between atoms: C_6  and  O_7
REMARK    7  A    between atoms: C_6  and  C_8
REMARK    8  A    between atoms: C_12  and  O_13
REMARK    9  A    between atoms: O_13  and  C_14
REMARK   10  A    between atoms: C_14  and  C_15
REMARK   11  A    between atoms: C_19  and  C_20
REMARK   12  A    between atoms: C_20  and  O_22
REMARK   13  A    between atoms: O_22  and  C_23
REMARK                            x       y       z     vdW  Elec       q    Type
REMARK                         _______ _______ _______ _____ _____    ______ ____
ROOT
ATOM      1  C   UNL     1       6.650   4.922  15.957  0.00  0.00    +0.000 A 
ATOM      2  C   UNL     1       7.446   4.693  17.092  0.00  0.00    +0.000 A 
ATOM      3  C   UNL     1       7.018   5.090  18.356  0.00  0.00    +0.000 A 
ATOM      4  C   UNL     1       5.799   5.743  18.504  0.00  0.00    +0.000 A 
ATOM      5  C   UNL     1       5.014   6.028  17.385  0.00  0.00    +0.000 A 
ATOM      6  C   UNL     1       5.423   5.588  16.123  0.00  0.00    +0.000 A 
ENDROOT
BRANCH   1   7
ATOM      7  C   UNL     1       7.106   4.495  14.577  0.00  0.00    +0.000 C 
BRANCH   7   8
ATOM      8  O   UNL     1       7.701   5.599  13.900  0.00  0.00    +0.000 OA
ATOM      9  H   UNL     1       8.315   5.247  13.237  0.00  0.00    +0.000 HD
ENDBRANCH   7   8
BRANCH   7  10
ATOM     10  C   UNL     1       5.941   3.940  13.744  0.00  0.00    +0.000 C 
BRANCH  10  11
ATOM     11  C   UNL     1       6.394   3.449  12.367  0.00  0.00    +0.000 C 
BRANCH  11  12
ATOM     12  C   UNL     1       5.252   2.735  11.644  0.00  0.00    +0.000 C 
BRANCH  12  14
ATOM     13  C   UNL     1       3.118   3.028  10.345  0.00  0.00    +0.000 C 
ATOM     14  C   UNL     1       4.228   3.733  11.106  0.00  0.00    +0.000 C 
ENDBRANCH  12  14
ENDBRANCH  11  12
ENDBRANCH  10  11
ENDBRANCH   7  10
ENDBRANCH   1   7
BRANCH   5  15
ATOM     15  O   UNL     1       3.840   6.731  17.423  0.00  0.00    +0.000 OA
BRANCH  15  16
ATOM     16  C   UNL     1       3.183   6.729  18.695  0.00  0.00    +0.000 C 
BRANCH  16  17
ATOM     17  C   UNL     1       2.482   5.411  18.898  0.00  0.00    +0.000 A 
ATOM     18  C   UNL     1       1.759   4.812  17.859  0.00  0.00    +0.000 A 
ATOM     19  C   UNL     1       1.152   3.571  18.045  0.00  0.00    +0.000 A 
ATOM     20  C   UNL     1       1.267   2.914  19.272  0.00  0.00    +0.000 A 
ATOM     21  C   UNL     1       1.993   3.493  20.320  0.00  0.00    +0.000 A 
ATOM     22  C   UNL     1       2.604   4.738  20.124  0.00  0.00    +0.000 A 
BRANCH  21  23
ATOM     23  C   UNL     1       2.088   2.760  21.609  0.00  0.00    +0.000 C 
ATOM     24  O   UNL     1       1.132   2.546  22.338  0.00  0.00    +0.000 OA
BRANCH  23  25
ATOM     25  O   UNL     1       3.367   2.376  21.847  0.00  0.00    +0.000 OA
ATOM     26  C   UNL     1       4.087   1.983  20.676  0.00  0.00    +0.000 C 
ENDBRANCH  23  25
ENDBRANCH  21  23
ENDBRANCH  16  17
ENDBRANCH  15  16
ENDBRANCH   5  15
TORSDOF 11
ENDMDL
MODEL 2
REMARK VINA RESULT:      -7.5      3.720      6.749
REMARK  Name = 
REMARK  13 active torsions:
REMARK  status: ('A' for Active; 'I' for Inactive)
REMARK    1  A    between atoms: C_1  and  C_2
REMARK    2  A    between atoms: C_2  and  C_3
REMARK    3  A    between atoms: C_3  and  C_4
REMARK    4  A    between atoms: C_4  and  C_5
REMARK    5  A    between atoms: C_5  and  C_6
REMARK    6  A    between atoms: C_6  and  O_7
REMARK    7  A    between atoms: C_6  and  C_8
REMARK    8  A    between atoms: C_12  and  O_13
REMARK    9  A    between atoms: O_13  and  C_14
REMARK   10  A    between atoms: C_14  and  C_15
REMARK   11  A    between atoms: C_19  and  C_20
REMARK   12  A    between atoms: C_20  and  O_22
REMARK   13  A    between atoms: O_22  and  C_23
REMARK                            x       y       z     vdW  Elec       q    Type
REMARK                         _______ _______ _______ _____ _____    ______ ____
ROOT
ATOM      1  C   UNL     1       4.379   4.475  17.963  0.00  0.00    +0.000 A 
ATOM      2  C   UNL     1       5.083   4.300  16.761  0.00  0.00    +0.000 A 
ATOM      3  C   UNL     1       5.349   5.382  15.925  0.00  0.00    +0.000 A 
ATOM      4  C   UNL     1       4.896   6.652  16.266  0.00  0.00    +0.000 A 
ATOM      5  C   UNL     1       4.150   6.842  17.431  0.00  0.00    +0.000 A 
ATOM      6  C   UNL     1       3.923   5.764  18.291  0.00  0.00    +0.000 A 
ENDROOT
BRANCH   1   7
ATOM      7  C   UNL     1       4.083   3.305  18.880  0.00  0.00    +0.000 C 
BRANCH   7   8
ATOM      8  O   UNL     1       5.303   2.700  19.301  0.00  0.00    +0.000 OA
ATOM      9  H   UNL     1       5.995   3.381  19.285  0.00  0.00    +0.000 HD
ENDBRANCH   7   8
BRANCH   7  10
ATOM     10  C   UNL     1       3.194   2.259  18.192  0.00  0.00    +0.000 C 
BRANCH  10  11
ATOM     11  C   UNL     1       1.954   1.917  19.020  0.00  0.00    +0.000 C 
BRANCH  11  12
ATOM     12  C   UNL     1       0.952   3.072  18.999  0.00  0.00    +0.000 C 
BRANCH  12  14
ATOM     13  C   UNL     1       1.393   2.919  21.470  0.00  0.00    +0.000 C 
ATOM     14  C   UNL     1       0.941   3.818  20.331  0.00  0.00    +0.000 C 
ENDBRANCH  12  14
ENDBRANCH  11  12
ENDBRANCH  10  11
ENDBRANCH   7  10
ENDBRANCH   1   7
BRANCH   5  15
ATOM     15  O   UNL     1       3.598   8.036  17.809  0.00  0.00    +0.000 OA
BRANCH  15  16
ATOM     16  C   UNL     1       2.172   8.099  17.693  0.00  0.00    +0.000 C 
BRANCH  16  17
ATOM     17  C   UNL     1       1.581   8.583  18.992  0.00  0.00    +0.000 A 
ATOM     18  C   UNL     1       1.757   7.859  20.178  0.00  0.00    +0.000 A 
ATOM     19  C   UNL     1       1.244   8.339  21.381  0.00  0.00    +0.000 A 
ATOM     20  C   UNL     1       0.554   9.553  21.411  0.00  0.00    +0.000 A 
ATOM     21  C   UNL     1       0.376  10.296  20.237  0.00  0.00    +0.000 A 
ATOM     22  C   UNL     1       0.898   9.809  19.033  0.00  0.00    +0.000 A 
BRANCH  21  23
ATOM     23  C   UNL     1      -0.367  11.581  20.315  0.00  0.00    +0.000 C 
ATOM     24  O   UNL     1      -1.499  11.736  19.887  0.00  0.00    +0.000 OA
BRANCH  23  25
ATOM     25  O   UNL     1       0.389  12.532  20.919  0.00  0.00    +0.000 OA
ATOM     26  C   UNL     1      -0.266  13.202  21.999  0.00  0.00    +0.000 C 
ENDBRANCH  23  25
ENDBRANCH  21  23
ENDBRANCH  16  17
ENDBRANCH  15  16
ENDBRANCH   5  15
TORSDOF 11
ENDMDL
MODEL 3
REMARK VINA RESULT:      -7.5      3.640      6.488
REMARK  Name = 
REMARK  13 active torsions:
REMARK  status: ('A' for Active; 'I' for Inactive)
REMARK    1  A    between atoms: C_1  and  C_2
REMARK    2  A    between atoms: C_2  and  C_3
REMARK    3  A    between atoms: C_3  and  C_4
REMARK    4  A    between atoms: C_4  and  C_5
REMARK    5  A    between atoms: C_5  and  C_6
REMARK    6  A    between atoms: C_6  and  O_7
REMARK    7  A    between atoms: C_6  and  C_8
REMARK    8  A    between atoms: C_12  and  O_13
REMARK    9  A    between atoms: O_13  and  C_14
REMARK   10  A    between atoms: C_14  and  C_15
REMARK   11  A    between atoms: C_19  and  C_20
REMARK   12  A    between atoms: C_20  and  O_22
REMARK   13  A    between atoms: O_22  and  C_23
REMARK                            x       y       z     vdW  Elec       q    Type
REMARK                         _______ _______ _______ _____ _____    ______ ____
ROOT
ATOM      1  C   UNL     1       4.724   4.339  18.606  0.00  0.00    +0.000 A 
ATOM      2  C   UNL     1       6.041   4.401  18.122  0.00  0.00    +0.000 A 
ATOM      3  C   UNL     1       6.519   5.552  17.500  0.00  0.00    +0.000 A 
ATOM      4  C   UNL     1       5.682   6.650  17.331  0.00  0.00    +0.000 A 
ATOM      5  C   UNL     1       4.354   6.593  17.757  0.00  0.00    +0.000 A 
ATOM      6  C   UNL     1       3.889   5.456  18.422  0.00  0.00    +0.000 A 
ENDROOT
BRANCH   1   7
ATOM      7  C   UNL     1       4.192   3.093  19.284  0.00  0.00    +0.000 C 
BRANCH   7   8
ATOM      8  O   UNL     1       5.278   2.268  19.701  0.00  0.00    +0.000 OA
ATOM      9  H   UNL     1       5.863   2.804  20.259  0.00  0.00    +0.000 HD
ENDBRANCH   7   8
BRANCH   7  10
ATOM     10  C   UNL     1       3.261   2.298  18.357  0.00  0.00    +0.000 C 
BRANCH  10  11
ATOM     11  C   UNL     1       1.934   1.944  19.032  0.00  0.00    +0.000 C 
BRANCH  11  12
ATOM     12  C   UNL     1       1.008   3.160  19.078  0.00  0.00    +0.000 C 
BRANCH  12  14
ATOM     13  C   UNL     1       1.324   2.780  21.544  0.00  0.00    +0.000 C 
ATOM     14  C   UNL     1       1.006   3.801  20.464  0.00  0.00    +0.000 C 
ENDBRANCH  12  14
ENDBRANCH  11  12
ENDBRANCH  10  11
ENDBRANCH   7  10
ENDBRANCH   1   7
BRANCH   5  15
ATOM     15  O   UNL     1       3.437   7.591  17.565  0.00  0.00    +0.000 OA
BRANCH  15  16
ATOM     16  C   UNL     1       2.201   7.409  18.265  0.00  0.00    +0.000 C 
BRANCH  16  17
ATOM     17  C   UNL     1       1.764   8.720  18.865  0.00  0.00    +0.000 A 
ATOM     18  C   UNL     1       1.780   9.899  18.109  0.00  0.00    +0.000 A 
ATOM     19  C   UNL     1       1.331  11.098  18.661  0.00  0.00    +0.000 A 
ATOM     20  C   UNL     1       0.855  11.127  19.973  0.00  0.00    +0.000 A 
ATOM     21  C   UNL     1       0.822   9.957  20.742  0.00  0.00    +0.000 A 
ATOM     22  C   UNL     1       1.271   8.756  20.179  0.00  0.00    +0.000 A 
BRANCH  21  23
ATOM     23  C   UNL     1       0.309  10.035  22.135  0.00  0.00    +0.000 C 
ATOM     24  O   UNL     1       0.975   9.753  23.118  0.00  0.00    +0.000 OA
BRANCH  23  25
ATOM     25  O   UNL     1      -0.981  10.454  22.145  0.00  0.00    +0.000 OA
ATOM     26  C   UNL     1      -1.225  11.574  23.000  0.00  0.00    +0.000 C 
ENDBRANCH  23  25
ENDBRANCH  21  23
ENDBRANCH  16  17
ENDBRANCH  15  16
ENDBRANCH   5  15
TORSDOF 11
ENDMDL
MODEL 4
REMARK VINA RESULT:      -7.5      3.747      6.782
REMARK  Name = 
REMARK  13 active torsions:
REMARK  status: ('A' for Active; 'I' for Inactive)
REMARK    1  A    between atoms: C_1  and  C_2
REMARK    2  A    between atoms: C_2  and  C_3
REMARK    3  A    between atoms: C_3  and  C_4
REMARK    4  A    between atoms: C_4  and  C_5
REMARK    5  A    between atoms: C_5  and  C_6
REMARK    6  A    between atoms: C_6  and  O_7
REMARK    7  A    between atoms: C_6  and  C_8
REMARK    8  A    between atoms: C_12  and  O_13
REMARK    9  A    between atoms: O_13  and  C_14
REMARK   10  A    between atoms: C_14  and  C_15
REMARK   11  A    between atoms: C_19  and  C_20
REMARK   12  A    between atoms: C_20  and  O_22
REMARK   13  A    between atoms: O_22  and  C_23
REMARK                            x       y       z     vdW  Elec       q    Type
REMARK                         _______ _______ _______ _____ _____    ______ ____
ROOT
ATOM      1  C   UNL     1       4.350   4.539  17.785  0.00  0.00    +0.000 A 
ATOM      2  C   UNL     1       5.033   4.411  16.565  0.00  0.00    +0.000 A 
ATOM      3  C   UNL     1       5.299   5.526  15.775  0.00  0.00    +0.000 A 
ATOM      4  C   UNL     1       4.865   6.784  16.179  0.00  0.00    +0.000 A 
ATOM      5  C   UNL     1       4.139   6.930  17.362  0.00  0.00    +0.000 A 
ATOM      6  C   UNL     1       3.913   5.818  18.177  0.00  0.00    +0.000 A 
ENDROOT
BRANCH   1   7
ATOM      7  C   UNL     1       4.055   3.333  18.654  0.00  0.00    +0.000 C 
BRANCH   7   8
ATOM      8  O   UNL     1       5.272   2.799  19.169  0.00  0.00    +0.000 OA
ATOM      9  H   UNL     1       5.777   3.530  19.558  0.00  0.00    +0.000 HD
ENDBRANCH   7   8
BRANCH   7  10
ATOM     10  C   UNL     1       3.299   2.247  17.874  0.00  0.00    +0.000 C 
BRANCH  10  11
ATOM     11  C   UNL     1       2.107   1.694  18.658  0.00  0.00    +0.000 C 
BRANCH  11  12
ATOM     12  C   UNL     1       1.030   2.765  18.835  0.00  0.00    +0.000 C 
BRANCH  12  14
ATOM     13  C   UNL     1       1.278   4.544  20.594  0.00  0.00    +0.000 C 
ATOM     14  C   UNL     1       0.838   3.118  20.308  0.00  0.00    +0.000 C 
ENDBRANCH  12  14
ENDBRANCH  11  12
ENDBRANCH  10  11
ENDBRANCH   7  10
ENDBRANCH   1   7
BRANCH   5  15
ATOM     15  O   UNL     1       3.607   8.112  17.802  0.00  0.00    +0.000 OA
BRANCH  15  16
ATOM     16  C   UNL     1       2.184   8.209  17.678  0.00  0.00    +0.000 C 
BRANCH  16  17
ATOM     17  C   UNL     1       1.601   8.747  18.959  0.00  0.00    +0.000 A 
ATOM     18  C   UNL     1       1.734   8.043  20.162  0.00  0.00    +0.000 A 
ATOM     19  C   UNL     1       1.230   8.572  21.349  0.00  0.00    +0.000 A 
ATOM     20  C   UNL     1       0.593   9.814  21.345  0.00  0.00    +0.000 A 
ATOM     21  C   UNL     1       0.458  10.537  20.153  0.00  0.00    +0.000 A 
ATOM     22  C   UNL     1       0.971  10.002  18.966  0.00  0.00    +0.000 A 
BRANCH  21  23
ATOM     23  C   UNL     1      -0.229  11.855  20.195  0.00  0.00    +0.000 C 
ATOM     24  O   UNL     1      -0.327  12.535  21.203  0.00  0.00    +0.000 OA
BRANCH  23  25
ATOM     25  O   UNL     1      -0.720  12.175  18.972  0.00  0.00    +0.000 OA
ATOM     26  C   UNL     1      -0.316  13.462  18.498  0.00  0.00    +0.000 C 
ENDBRANCH  23  25
ENDBRANCH  21  23
ENDBRANCH  16  17
ENDBRANCH  15  16
ENDBRANCH   5  15
TORSDOF 11
ENDMDL
MODEL 5
REMARK VINA RESULT:      -7.4      1.900      3.085
REMARK  Name = 
REMARK  13 active torsions:
REMARK  status: ('A' for Active; 'I' for Inactive)
REMARK    1  A    between atoms: C_1  and  C_2
REMARK    2  A    between atoms: C_2  and  C_3
REMARK    3  A    between atoms: C_3  and  C_4
REMARK    4  A    between atoms: C_4  and  C_5
REMARK    5  A    between atoms: C_5  and  C_6
REMARK    6  A    between atoms: C_6  and  O_7
REMARK    7  A    between atoms: C_6  and  C_8
REMARK    8  A    between atoms: C_12  and  O_13
REMARK    9  A    between atoms: O_13  and  C_14
REMARK   10  A    between atoms: C_14  and  C_15
REMARK   11  A    between atoms: C_19  and  C_20
REMARK   12  A    between atoms: C_20  and  O_22
REMARK   13  A    between atoms: O_22  and  C_23
REMARK                            x       y       z     vdW  Elec       q    Type
REMARK                         _______ _______ _______ _____ _____    ______ ____
ROOT
ATOM      1  C   UNL     1       7.097   5.093  16.400  0.00  0.00    +0.000 A 
ATOM      2  C   UNL     1       7.592   6.356  16.765  0.00  0.00    +0.000 A 
ATOM      3  C   UNL     1       7.538   6.790  18.087  0.00  0.00    +0.000 A 
ATOM      4  C   UNL     1       6.967   5.979  19.062  0.00  0.00    +0.000 A 
ATOM      5  C   UNL     1       6.421   4.742  18.715  0.00  0.00    +0.000 A 
ATOM      6  C   UNL     1       6.518   4.288  17.397  0.00  0.00    +0.000 A 
ENDROOT
BRANCH   1   7
ATOM      7  C   UNL     1       7.151   4.611  14.965  0.00  0.00    +0.000 C 
BRANCH   7   8
ATOM      8  O   UNL     1       7.789   5.590  14.149  0.00  0.00    +0.000 OA
ATOM      9  H   UNL     1       8.531   5.161  13.694  0.00  0.00    +0.000 HD
ENDBRANCH   7   8
BRANCH   7  10
ATOM     10  C   UNL     1       5.748   4.311  14.417  0.00  0.00    +0.000 C 
BRANCH  10  11
ATOM     11  C   UNL     1       5.728   4.225  12.889  0.00  0.00    +0.000 C 
BRANCH  11  12
ATOM     12  C   UNL     1       6.118   2.824  12.420  0.00  0.00    +0.000 C 
BRANCH  12  14
ATOM     13  C   UNL     1       3.972   3.211  11.168  0.00  0.00    +0.000 C 
ATOM     14  C   UNL     1       5.223   2.355  11.275  0.00  0.00    +0.000 C 
ENDBRANCH  12  14
ENDBRANCH  11  12
ENDBRANCH  10  11
ENDBRANCH   7  10
ENDBRANCH   1   7
BRANCH   5  15
ATOM     15  O   UNL     1       5.772   3.910  19.588  0.00  0.00    +0.000 OA
BRANCH  15  16
ATOM     16  C   UNL     1       4.663   3.201  19.025  0.00  0.00    +0.000 C 
BRANCH  16  17
ATOM     17  C   UNL     1       3.375   3.781  19.548  0.00  0.00    +0.000 A 
ATOM     18  C   UNL     1       2.367   2.952  20.058  0.00  0.00    +0.000 A 
ATOM     19  C   UNL     1       1.198   3.503  20.581  0.00  0.00    +0.000 A 
ATOM     20  C   UNL     1       1.028   4.888  20.604  0.00  0.00    +0.000 A 
ATOM     21  C   UNL     1       2.029   5.733  20.108  0.00  0.00    +0.000 A 
ATOM     22  C   UNL     1       3.202   5.174  19.588  0.00  0.00    +0.000 A 
BRANCH  21  23
ATOM     23  C   UNL     1       1.804   7.202  20.151  0.00  0.00    +0.000 C 
ATOM     24  O   UNL     1       2.277   7.983  19.341  0.00  0.00    +0.000 OA
BRANCH  23  25
ATOM     25  O   UNL     1       1.015   7.533  21.203  0.00  0.00    +0.000 OA
ATOM     26  C   UNL     1       1.297   8.818  21.764  0.00  0.00    +0.000 C 
ENDBRANCH  23  25
ENDBRANCH  21  23
ENDBRANCH  16  17
ENDBRANCH  15  16
ENDBRANCH   5  15
TORSDOF 11
ENDMDL
MODEL 6
REMARK VINA RESULT:      -7.4      3.773      6.991
REMARK  Name = 
REMARK  13 active torsions:
REMARK  status: ('A' for Active; 'I' for Inactive)
REMARK    1  A    between atoms: C_1  and  C_2
REMARK    2  A    between atoms: C_2  and  C_3
REMARK    3  A    between atoms: C_3  and  C_4
REMARK    4  A    between atoms: C_4  and  C_5
REMARK    5  A    between atoms: C_5  and  C_6
REMARK    6  A    between atoms: C_6  and  O_7
REMARK    7  A    between atoms: C_6  and  C_8
REMARK    8  A    between atoms: C_12  and  O_13
REMARK    9  A    between atoms: O_13  and  C_14
REMARK   10  A    between atoms: C_14  and  C_15
REMARK   11  A    between atoms: C_19  and  C_20
REMARK   12  A    between atoms: C_20  and  O_22
REMARK   13  A    between atoms: O_22  and  C_23
REMARK                            x       y       z     vdW  Elec       q    Type
REMARK                         _______ _______ _______ _____ _____    ______ ____
ROOT
ATOM      1  C   UNL     1       3.794   4.333  17.552  0.00  0.00    +0.000 A 
ATOM      2  C   UNL     1       4.741   4.203  16.523  0.00  0.00    +0.000 A 
ATOM      3  C   UNL     1       5.344   5.325  15.962  0.00  0.00    +0.000 A 
ATOM      4  C   UNL     1       4.994   6.597  16.404  0.00  0.00    +0.000 A 
ATOM      5  C   UNL     1       4.018   6.754  17.389  0.00  0.00    +0.000 A 
ATOM      6  C   UNL     1       3.447   5.625  17.983  0.00  0.00    +0.000 A 
ENDROOT
BRANCH   1   7
ATOM      7  C   UNL     1       3.131   3.118  18.170  0.00  0.00    +0.000 C 
BRANCH   7   8
ATOM      8  O   UNL     1       3.587   1.934  17.520  0.00  0.00    +0.000 OA
ATOM      9  H   UNL     1       3.327   1.987  16.587  0.00  0.00    +0.000 HD
ENDBRANCH   7   8
BRANCH   7  10
ATOM     10  C   UNL     1       1.600   3.204  18.081  0.00  0.00    +0.000 C 
BRANCH  10  11
ATOM     11  C   UNL     1       0.923   2.890  19.417  0.00  0.00    +0.000 C 
BRANCH  11  12
ATOM     12  C   UNL     1       0.894   4.128  20.314  0.00  0.00    +0.000 C 
BRANCH  12  14
ATOM     13  C   UNL     1       2.385   2.692  21.742  0.00  0.00    +0.000 C 
ATOM     14  C   UNL     1       2.046   4.111  21.317  0.00  0.00    +0.000 C 
ENDBRANCH  12  14
ENDBRANCH  11  12
ENDBRANCH  10  11
ENDBRANCH   7  10
ENDBRANCH   1   7
BRANCH   5  15
ATOM     15  O   UNL     1       3.553   7.963  17.832  0.00  0.00    +0.000 OA
BRANCH  15  16
ATOM     16  C   UNL     1       2.133   8.125  17.747  0.00  0.00    +0.000 C 
BRANCH  16  17
ATOM     17  C   UNL     1       1.603   8.633  19.063  0.00  0.00    +0.000 A 
ATOM     18  C   UNL     1       1.682   7.850  20.221  0.00  0.00    +0.000 A 
ATOM     19  C   UNL     1       1.229   8.348  21.442  0.00  0.00    +0.000 A 
ATOM     20  C   UNL     1       0.699   9.638  21.516  0.00  0.00    +0.000 A 
ATOM     21  C   UNL     1       0.620  10.439  20.370  0.00  0.00    +0.000 A 
ATOM     22  C   UNL     1       1.081   9.933  19.149  0.00  0.00    +0.000 A 
BRANCH  21  23
ATOM     23  C   UNL     1       0.047  11.805  20.495  0.00  0.00    +0.000 C 
ATOM     24  O   UNL     1       0.686  12.827  20.309  0.00  0.00    +0.000 OA
BRANCH  23  25
ATOM     25  O   UNL     1      -1.263  11.741  20.841  0.00  0.00    +0.000 OA
ATOM     26  C   UNL     1      -1.627  12.609  21.918  0.00  0.00    +0.000 C 
ENDBRANCH  23  25
ENDBRANCH  21  23
ENDBRANCH  16  17
ENDBRANCH  15  16
ENDBRANCH   5  15
TORSDOF 11
ENDMDL
MODEL 7
REMARK VINA RESULT:      -7.3      3.600      4.893
REMARK  Name = 
REMARK  13 active torsions:
REMARK  status: ('A' for Active; 'I' for Inactive)
REMARK    1  A    between atoms: C_1  and  C_2
REMARK    2  A    between atoms: C_2  and  C_3
REMARK    3  A    between atoms: C_3  and  C_4
REMARK    4  A    between atoms: C_4  and  C_5
REMARK    5  A    between atoms: C_5  and  C_6
REMARK    6  A    between atoms: C_6  and  O_7
REMARK    7  A    between atoms: C_6  and  C_8
REMARK    8  A    between atoms: C_12  and  O_13
REMARK    9  A    between atoms: O_13  and  C_14
REMARK   10  A    between atoms: C_14  and  C_15
REMARK   11  A    between atoms: C_19  and  C_20
REMARK   12  A    between atoms: C_20  and  O_22
REMARK   13  A    between atoms: O_22  and  C_23
REMARK                            x       y       z     vdW  Elec       q    Type
REMARK                         _______ _______ _______ _____ _____    ______ ____
ROOT
ATOM      1  C   UNL     1       5.014   4.906  16.820  0.00  0.00    +0.000 A 
ATOM      2  C   UNL     1       4.485   3.610  16.712  0.00  0.00    +0.000 A 
ATOM      3  C   UNL     1       3.578   3.129  17.652  0.00  0.00    +0.000 A 
ATOM      4  C   UNL     1       3.202   3.927  18.728  0.00  0.00    +0.000 A 
ATOM      5  C   UNL     1       3.754   5.200  18.884  0.00  0.00    +0.000 A 
ATOM      6  C   UNL     1       4.629   5.699  17.916  0.00  0.00    +0.000 A 
ENDROOT
BRANCH   1   7
ATOM      7  C   UNL     1       6.002   5.440  15.802  0.00  0.00    +0.000 C 
BRANCH   7   8
ATOM      8  O   UNL     1       5.394   6.475  15.033  0.00  0.00    +0.000 OA
ATOM      9  H   UNL     1       5.970   7.254  15.073  0.00  0.00    +0.000 HD
ENDBRANCH   7   8
BRANCH   7  10
ATOM     10  C   UNL     1       6.510   4.329  14.871  0.00  0.00    +0.000 C 
BRANCH  10  11
ATOM     11  C   UNL     1       5.563   4.078  13.696  0.00  0.00    +0.000 C 
BRANCH  11  12
ATOM     12  C   UNL     1       6.331   3.550  12.484  0.00  0.00    +0.000 C 
BRANCH  12  14
ATOM     13  C   UNL     1       4.154   3.224  11.267  0.00  0.00    +0.000 C 
ATOM     14  C   UNL     1       5.475   2.586  11.665  0.00  0.00    +0.000 C 
ENDBRANCH  12  14
ENDBRANCH  11  12
ENDBRANCH  10  11
ENDBRANCH   7  10
ENDBRANCH   1   7
BRANCH   5  15
ATOM     15  O   UNL     1       3.505   6.026  19.947  0.00  0.00    +0.000 OA
BRANCH  15  16
ATOM     16  C   UNL     1       2.122   6.149  20.296  0.00  0.00    +0.000 C 
BRANCH  16  17
ATOM     17  C   UNL     1       1.696   7.590  20.172  0.00  0.00    +0.000 A 
ATOM     18  C   UNL     1       1.864   8.289  18.970  0.00  0.00    +0.000 A 
ATOM     19  C   UNL     1       1.426   9.607  18.854  0.00  0.00    +0.000 A 
ATOM     20  C   UNL     1       0.811  10.237  19.937  0.00  0.00    +0.000 A 
ATOM     21  C   UNL     1       0.627   9.551  21.144  0.00  0.00    +0.000 A 
ATOM     22  C   UNL     1       1.065   8.226  21.253  0.00  0.00    +0.000 A 
BRANCH  21  23
ATOM     23  C   UNL     1      -0.031  10.262  22.272  0.00  0.00    +0.000 C 
ATOM     24  O   UNL     1      -0.592   9.693  23.195  0.00  0.00    +0.000 OA
BRANCH  23  25
ATOM     25  O   UNL     1       0.084  11.605  22.122  0.00  0.00    +0.000 OA
ATOM     26  C   UNL     1      -1.087  12.337  22.493  0.00  0.00    +0.000 C 
ENDBRANCH  23  25
ENDBRANCH  21  23
ENDBRANCH  16  17
ENDBRANCH  15  16
ENDBRANCH   5  15
TORSDOF 11
ENDMDL
MODEL 8
REMARK VINA RESULT:      -7.3      3.989      6.326
REMARK  Name = 
REMARK  13 active torsions:
REMARK  status: ('A' for Active; 'I' for Inactive)
REMARK    1  A    between atoms: C_1  and  C_2
REMARK    2  A    between atoms: C_2  and  C_3
REMARK    3  A    between atoms: C_3  and  C_4
REMARK    4  A    between atoms: C_4  and  C_5
REMARK    5  A    between atoms: C_5  and  C_6
REMARK    6  A    between atoms: C_6  and  O_7
REMARK    7  A    between atoms: C_6  and  C_8
REMARK    8  A    between atoms: C_12  and  O_13
REMARK    9  A    between atoms: O_13  and  C_14
REMARK   10  A    between atoms: C_14  and  C_15
REMARK   11  A    between atoms: C_19  and  C_20
REMARK   12  A    between atoms: C_20  and  O_22
REMARK   13  A    between atoms: O_22  and  C_23
REMARK                            x       y       z     vdW  Elec       q    Type
REMARK                         _______ _______ _______ _____ _____    ______ ____
ROOT
ATOM      1  C   UNL     1       5.520   4.972  18.195  0.00  0.00    +0.000 A 
ATOM      2  C   UNL     1       5.234   3.919  19.079  0.00  0.00    +0.000 A 
ATOM      3  C   UNL     1       3.935   3.696  19.526  0.00  0.00    +0.000 A 
ATOM      4  C   UNL     1       2.904   4.534  19.115  0.00  0.00    +0.000 A 
ATOM      5  C   UNL     1       3.172   5.618  18.277  0.00  0.00    +0.000 A 
ATOM      6  C   UNL     1       4.468   5.814  17.793  0.00  0.00    +0.000 A 
ENDROOT
BRANCH   1   7
ATOM      7  C   UNL     1       6.931   5.225  17.702  0.00  0.00    +0.000 C 
BRANCH   7   8
ATOM      8  O   UNL     1       7.687   4.017  17.757  0.00  0.00    +0.000 OA
ATOM      9  H   UNL     1       7.103   3.288  17.495  0.00  0.00    +0.000 HD
ENDBRANCH   7   8
BRANCH   7  10
ATOM     10  C   UNL     1       7.630   6.315  18.526  0.00  0.00    +0.000 C 
BRANCH  10  11
ATOM     11  C   UNL     1       7.807   7.615  17.738  0.00  0.00    +0.000 C 
BRANCH  11  12
ATOM     12  C   UNL     1       8.624   8.628  18.540  0.00  0.00    +0.000 C 
BRANCH  12  14
ATOM     13  C   UNL     1       9.442  11.005  18.608  0.00  0.00    +0.000 C 
ATOM     14  C   UNL     1       8.436  10.044  17.999  0.00  0.00    +0.000 C 
ENDBRANCH  12  14
ENDBRANCH  11  12
ENDBRANCH  10  11
ENDBRANCH   7  10
ENDBRANCH   1   7
BRANCH   5  15
ATOM     15  O   UNL     1       2.240   6.540  17.883  0.00  0.00    +0.000 OA
BRANCH  15  16
ATOM     16  C   UNL     1       2.700   7.896  17.891  0.00  0.00    +0.000 C 
BRANCH  16  17
ATOM     17  C   UNL     1       1.698   8.765  18.606  0.00  0.00    +0.000 A 
ATOM     18  C   UNL     1       0.793   9.558  17.890  0.00  0.00    +0.000 A 
ATOM     19  C   UNL     1      -0.159  10.324  18.561  0.00  0.00    +0.000 A 
ATOM     20  C   UNL     1      -0.219  10.298  19.956  0.00  0.00    +0.000 A 
ATOM     21  C   UNL     1       0.671   9.503  20.689  0.00  0.00    +0.000 A 
ATOM     22  C   UNL     1       1.622   8.734  20.008  0.00  0.00    +0.000 A 
BRANCH  21  23
ATOM     23  C   UNL     1       0.573   9.507  22.172  0.00  0.00    +0.000 C 
ATOM     24  O   UNL     1       1.541   9.508  22.915  0.00  0.00    +0.000 OA
BRANCH  23  25
ATOM     25  O   UNL     1      -0.726   9.508  22.564  0.00  0.00    +0.000 OA
ATOM     26  C   UNL     1      -1.159  10.738  23.150  0.00  0.00    +0.000 C 
ENDBRANCH  23  25
ENDBRANCH  21  23
ENDBRANCH  16  17
ENDBRANCH  15  16
ENDBRANCH   5  15
TORSDOF 11
ENDMDL
MODEL 9
REMARK VINA RESULT:      -7.3      4.416      7.065
REMARK  Name = 
REMARK  13 active torsions:
REMARK  status: ('A' for Active; 'I' for Inactive)
REMARK    1  A    between atoms: C_1  and  C_2
REMARK    2  A    between atoms: C_2  and  C_3
REMARK    3  A    between atoms: C_3  and  C_4
REMARK    4  A    between atoms: C_4  and  C_5
REMARK    5  A    between atoms: C_5  and  C_6
REMARK    6  A    between atoms: C_6  and  O_7
REMARK    7  A    between atoms: C_6  and  C_8
REMARK    8  A    between atoms: C_12  and  O_13
REMARK    9  A    between atoms: O_13  and  C_14
REMARK   10  A    between atoms: C_14  and  C_15
REMARK   11  A    between atoms: C_19  and  C_20
REMARK   12  A    between atoms: C_20  and  O_22
REMARK   13  A    between atoms: O_22  and  C_23
REMARK                            x       y       z     vdW  Elec       q    Type
REMARK                         _______ _______ _______ _____ _____    ______ ____
ROOT
ATOM      1  C   UNL     1       3.800   4.694  17.770  0.00  0.00    +0.000 A 
ATOM      2  C   UNL     1       4.768   5.179  16.875  0.00  0.00    +0.000 A 
ATOM      3  C   UNL     1       4.876   6.542  16.611  0.00  0.00    +0.000 A 
ATOM      4  C   UNL     1       4.004   7.439  17.218  0.00  0.00    +0.000 A 
ATOM      5  C   UNL     1       3.000   6.976  18.071  0.00  0.00    +0.000 A 
ATOM      6  C   UNL     1       2.922   5.613  18.371  0.00  0.00    +0.000 A 
ENDROOT
BRANCH   1   7
ATOM      7  C   UNL     1       3.673   3.213  18.065  0.00  0.00    +0.000 C 
BRANCH   7   8
ATOM      8  O   UNL     1       4.619   2.481  17.287  0.00  0.00    +0.000 OA
ATOM      9  H   UNL     1       5.200   3.121  16.846  0.00  0.00    +0.000 HD
ENDBRANCH   7   8
BRANCH   7  10
ATOM     10  C   UNL     1       2.255   2.699  17.778  0.00  0.00    +0.000 C 
BRANCH  10  11
ATOM     11  C   UNL     1       1.662   1.938  18.965  0.00  0.00    +0.000 C 
BRANCH  11  12
ATOM     12  C   UNL     1       0.781   2.857  19.812  0.00  0.00    +0.000 C 
BRANCH  12  14
ATOM     13  C   UNL     1       2.311   3.895  21.517  0.00  0.00    +0.000 C 
ATOM     14  C   UNL     1       1.227   2.858  21.273  0.00  0.00    +0.000 C 
ENDBRANCH  12  14
ENDBRANCH  11  12
ENDBRANCH  10  11
ENDBRANCH   7  10
ENDBRANCH   1   7
BRANCH   5  15
ATOM     15  O   UNL     1       2.050   7.772  18.652  0.00  0.00    +0.000 OA
BRANCH  15  16
ATOM     16  C   UNL     1       2.011   9.114  18.156  0.00  0.00    +0.000 C 
BRANCH  16  17
ATOM     17  C   UNL     1       0.778   9.808  18.674  0.00  0.00    +0.000 A 
ATOM     18  C   UNL     1      -0.316  10.053  17.834  0.00  0.00    +0.000 A 
ATOM     19  C   UNL     1      -1.469  10.656  18.336  0.00  0.00    +0.000 A 
ATOM     20  C   UNL     1      -1.540  11.014  19.683  0.00  0.00    +0.000 A 
ATOM     21  C   UNL     1      -0.460  10.768  20.540  0.00  0.00    +0.000 A 
ATOM     22  C   UNL     1       0.693  10.159  20.030  0.00  0.00    +0.000 A 
BRANCH  21  23
ATOM     23  C   UNL     1      -0.579  11.167  21.967  0.00  0.00    +0.000 C 
ATOM     24  O   UNL     1       0.100  10.691  22.862  0.00  0.00    +0.000 OA
BRANCH  23  25
ATOM     25  O   UNL     1      -1.535  12.117  22.118  0.00  0.00    +0.000 OA
ATOM     26  C   UNL     1      -1.216  13.121  23.084  0.00  0.00    +0.000 C 
ENDBRANCH  23  25
ENDBRANCH  21  23
ENDBRANCH  16  17
ENDBRANCH  15  16
ENDBRANCH   5  15
TORSDOF 11
ENDMDL
