MODEL 1
REMARK VINA RESULT:      -8.6      0.000      0.000
REMARK  Name = 
REMARK  8 active torsions:
REMARK  status: ('A' for Active; 'I' for Inactive)
REMARK    1  A    between atoms: C_1  and  O_2
REMARK    2  A    between atoms: O_2  and  C_3
REMARK    3  A    between atoms: C_5  and  C_6
REMARK    4  A    between atoms: C_6  and  N_7
REMARK    5  A    between atoms: C_13  and  C_14
REMARK    6  A    between atoms: C_17  and  C_18
REMARK    7  A    between atoms: C_27  and  O_28
REMARK    8  A    between atoms: O_28  and  C_29
REMARK                            x       y       z     vdW  Elec       q    Type
REMARK                         _______ _______ _______ _____ _____    ______ ____
ROOT
ATOM      1  N   UNL     1       3.392   4.627  17.767  0.00  0.00    +0.000 NA
ATOM      2  C   UNL     1       3.774   4.778  19.204  0.00  0.00    +0.000 C 
ATOM      3  C   UNL     1       3.784   3.475  20.041  0.00  0.00    +0.000 C 
ATOM      4  N   UNL     1       2.474   2.782  20.094  0.00  0.00    +0.000 NA
ATOM      5  C   UNL     1       1.608   3.126  18.943  0.00  0.00    +0.000 C 
ATOM      6  C   UNL     1       1.987   4.447  18.256  0.00  0.00    +0.000 C 
ATOM      7  C   UNL     1       2.381   5.468  19.385  0.00  0.00    +0.000 C 
ATOM      8  H   UNL     1       1.996   3.089  20.945  0.00  0.00    +0.000 HD
ENDROOT
BRANCH   7   9
ATOM      9  C   UNL     1       2.079   6.987  19.138  0.00  0.00    +0.000 A 
ATOM     10  C   UNL     1       1.579   7.743  20.214  0.00  0.00    +0.000 A 
ATOM     11  C   UNL     1       1.300   9.099  20.099  0.00  0.00    +0.000 A 
ATOM     12  C   UNL     1       1.521   9.775  18.893  0.00  0.00    +0.000 A 
ATOM     13  C   UNL     1       2.011   9.029  17.810  0.00  0.00    +0.000 A 
ATOM     14  C   UNL     1       2.274   7.660  17.928  0.00  0.00    +0.000 A 
BRANCH  12  15
ATOM     15  C   UNL     1       1.232  11.214  18.782  0.00  0.00    +0.000 A 
ATOM     16  C   UNL     1       2.233  12.125  18.392  0.00  0.00    +0.000 A 
ATOM     17  C   UNL     1       1.977  13.495  18.323  0.00  0.00    +0.000 A 
ATOM     18  C   UNL     1       0.708  13.977  18.625  0.00  0.00    +0.000 A 
ATOM     19  C   UNL     1      -0.303  13.092  19.000  0.00  0.00    +0.000 A 
ATOM     20  C   UNL     1      -0.036  11.724  19.084  0.00  0.00    +0.000 A 
ENDBRANCH  12  15
ENDBRANCH   7   9
BRANCH   1  21
ATOM     21  C   UNL     1       4.002   3.530  17.038  0.00  0.00    +0.000 C 
BRANCH  21  24
ATOM     22  C   UNL     1       6.329   4.076  13.989  0.00  0.00    +0.000 A 
ATOM     23  C   UNL     1       5.307   3.558  14.806  0.00  0.00    +0.000 A 
ATOM     24  C   UNL     1       5.142   4.012  16.126  0.00  0.00    +0.000 A 
ATOM     25  C   UNL     1       6.025   5.001  16.589  0.00  0.00    +0.000 A 
ATOM     26  C   UNL     1       7.012   5.562  15.768  0.00  0.00    +0.000 A 
ATOM     27  C   UNL     1       7.158   5.101  14.463  0.00  0.00    +0.000 A 
BRANCH  22  29
ATOM     28  C   UNL     1       5.162   3.282  12.086  0.00  0.00    +0.000 C 
ATOM     29  O   UNL     1       6.414   3.553  12.720  0.00  0.00    +0.000 OA
ENDBRANCH  22  29
BRANCH  26  30
ATOM     30  O   UNL     1       7.738   6.563  16.354  0.00  0.00    +0.000 OA
ATOM     31  C   UNL     1       7.206   7.188  17.515  0.00  0.00    +0.000 C 
ENDBRANCH  26  30
ENDBRANCH  21  24
ENDBRANCH   1  21
TORSDOF 6
ENDMDL
MODEL 2
REMARK VINA RESULT:      -8.6      5.152      9.867
REMARK  Name = 
REMARK  8 active torsions:
REMARK  status: ('A' for Active; 'I' for Inactive)
REMARK    1  A    between atoms: C_1  and  O_2
REMARK    2  A    between atoms: O_2  and  C_3
REMARK    3  A    between atoms: C_5  and  C_6
REMARK    4  A    between atoms: C_6  and  N_7
REMARK    5  A    between atoms: C_13  and  C_14
REMARK    6  A    between atoms: C_17  and  C_18
REMARK    7  A    between atoms: C_27  and  O_28
REMARK    8  A    between atoms: O_28  and  C_29
REMARK                            x       y       z     vdW  Elec       q    Type
REMARK                         _______ _______ _______ _____ _____    ______ ____
ROOT
ATOM      1  N   UNL     1      -1.209  11.328  19.989  0.00  0.00    +0.000 NA
ATOM      2  C   UNL     1      -0.749  10.904  21.346  0.00  0.00    +0.000 C 
ATOM      3  C   UNL     1      -0.728  12.010  22.430  0.00  0.00    +0.000 C 
ATOM      4  N   UNL     1       0.150  13.160  22.102  0.00  0.00    +0.000 NA
ATOM      5  C   UNL     1       0.375  13.299  20.645  0.00  0.00    +0.000 C 
ATOM      6  C   UNL     1       0.120  12.007  19.852  0.00  0.00    +0.000 C 
ATOM      7  C   UNL     1       0.679  10.813  20.709  0.00  0.00    +0.000 C 
ATOM      8  H   UNL     1       1.058  12.990  22.542  0.00  0.00    +0.000 HD
ENDROOT
BRANCH   7   9
ATOM      9  C   UNL     1       1.257   9.570  19.947  0.00  0.00    +0.000 A 
ATOM     10  C   UNL     1       1.524   8.407  20.690  0.00  0.00    +0.000 A 
ATOM     11  C   UNL     1       2.019   7.250  20.101  0.00  0.00    +0.000 A 
ATOM     12  C   UNL     1       2.262   7.196  18.724  0.00  0.00    +0.000 A 
ATOM     13  C   UNL     1       2.007   8.355  17.973  0.00  0.00    +0.000 A 
ATOM     14  C   UNL     1       1.525   9.521  18.575  0.00  0.00    +0.000 A 
BRANCH  12  15
ATOM     15  C   UNL     1       2.777   5.964  18.105  0.00  0.00    +0.000 A 
ATOM     16  C   UNL     1       4.063   5.923  17.531  0.00  0.00    +0.000 A 
ATOM     17  C   UNL     1       4.540   4.770  16.909  0.00  0.00    +0.000 A 
ATOM     18  C   UNL     1       3.747   3.628  16.865  0.00  0.00    +0.000 A 
ATOM     19  C   UNL     1       2.476   3.641  17.438  0.00  0.00    +0.000 A 
ATOM     20  C   UNL     1       1.996   4.803  18.044  0.00  0.00    +0.000 A 
ENDBRANCH  12  15
ENDBRANCH   7   9
BRANCH   1  21
ATOM     21  C   UNL     1      -2.401  12.156  19.931  0.00  0.00    +0.000 C 
BRANCH  21  24
ATOM     22  C   UNL     1      -5.488  11.535  17.673  0.00  0.00    +0.000 A 
ATOM     23  C   UNL     1      -4.706  11.834  18.804  0.00  0.00    +0.000 A 
ATOM     24  C   UNL     1      -3.303  11.775  18.745  0.00  0.00    +0.000 A 
ATOM     25  C   UNL     1      -2.719  11.418  17.519  0.00  0.00    +0.000 A 
ATOM     26  C   UNL     1      -3.484  11.171  16.372  0.00  0.00    +0.000 A 
ATOM     27  C   UNL     1      -4.872  11.236  16.451  0.00  0.00    +0.000 A 
BRANCH  22  29
ATOM     28  C   UNL     1      -7.284  12.260  19.039  0.00  0.00    +0.000 C 
ATOM     29  O   UNL     1      -6.851  11.607  17.842  0.00  0.00    +0.000 OA
ENDBRANCH  22  29
BRANCH  26  30
ATOM     30  O   UNL     1      -2.754  10.906  15.246  0.00  0.00    +0.000 OA
ATOM     31  C   UNL     1      -3.293   9.999  14.293  0.00  0.00    +0.000 C 
ENDBRANCH  26  30
ENDBRANCH  21  24
ENDBRANCH   1  21
TORSDOF 6
ENDMDL
MODEL 3
REMARK VINA RESULT:      -8.6      5.016      9.474
REMARK  Name = 
REMARK  8 active torsions:
REMARK  status: ('A' for Active; 'I' for Inactive)
REMARK    1  A    between atoms: C_1  and  O_2
REMARK    2  A    between atoms: O_2  and  C_3
REMARK    3  A    between atoms: C_5  and  C_6
REMARK    4  A    between atoms: C_6  and  N_7
REMARK    5  A    between atoms: C_13  and  C_14
REMARK    6  A    between atoms: C_17  and  C_18
REMARK    7  A    between atoms: C_27  and  O_28
REMARK    8  A    between atoms: O_28  and  C_29
REMARK                            x       y       z     vdW  Elec       q    Type
REMARK                         _______ _______ _______ _____ _____    ______ ____
ROOT
ATOM      1  N   UNL     1      -0.864  11.181  19.721  0.00  0.00    +0.000 NA
ATOM      2  C   UNL     1      -0.856  10.415  21.004  0.00  0.00    +0.000 C 
ATOM      3  C   UNL     1      -1.106  11.244  22.288  0.00  0.00    +0.000 C 
ATOM      4  N   UNL     1      -0.111  12.321  22.514  0.00  0.00    +0.000 NA
ATOM      5  C   UNL     1       0.549  12.749  21.260  0.00  0.00    +0.000 C 
ATOM      6  C   UNL     1       0.478  11.705  20.134  0.00  0.00    +0.000 C 
ATOM      7  C   UNL     1       0.689  10.292  20.791  0.00  0.00    +0.000 C 
ATOM      8  H   UNL     1       0.613  11.948  23.134  0.00  0.00    +0.000 HD
ENDROOT
BRANCH   7   9
ATOM      9  C   UNL     1       1.405   9.187  19.938  0.00  0.00    +0.000 A 
ATOM     10  C   UNL     1       1.709   7.965  20.565  0.00  0.00    +0.000 A 
ATOM     11  C   UNL     1       2.324   6.919  19.888  0.00  0.00    +0.000 A 
ATOM     12  C   UNL     1       2.658   7.042  18.534  0.00  0.00    +0.000 A 
ATOM     13  C   UNL     1       2.368   8.260  17.901  0.00  0.00    +0.000 A 
ATOM     14  C   UNL     1       1.763   9.315  18.593  0.00  0.00    +0.000 A 
BRANCH  12  15
ATOM     15  C   UNL     1       3.301   5.926  17.821  0.00  0.00    +0.000 A 
ATOM     16  C   UNL     1       4.471   6.128  17.064  0.00  0.00    +0.000 A 
ATOM     17  C   UNL     1       5.062   5.083  16.354  0.00  0.00    +0.000 A 
ATOM     18  C   UNL     1       4.503   3.810  16.403  0.00  0.00    +0.000 A 
ATOM     19  C   UNL     1       3.352   3.583  17.157  0.00  0.00    +0.000 A 
ATOM     20  C   UNL     1       2.755   4.637  17.851  0.00  0.00    +0.000 A 
ENDBRANCH  12  15
ENDBRANCH   7   9
BRANCH   1  21
ATOM     21  C   UNL     1      -1.938  12.141  19.537  0.00  0.00    +0.000 C 
BRANCH  21  24
ATOM     22  C   UNL     1      -3.181  10.936  16.071  0.00  0.00    +0.000 A 
ATOM     23  C   UNL     1      -2.319  11.319  17.115  0.00  0.00    +0.000 A 
ATOM     24  C   UNL     1      -2.833  11.774  18.342  0.00  0.00    +0.000 A 
ATOM     25  C   UNL     1      -4.229  11.822  18.484  0.00  0.00    +0.000 A 
ATOM     26  C   UNL     1      -5.097  11.394  17.471  0.00  0.00    +0.000 A 
ATOM     27  C   UNL     1      -4.568  10.944  16.265  0.00  0.00    +0.000 A 
BRANCH  22  29
ATOM     28  C   UNL     1      -3.456   9.966  13.926  0.00  0.00    +0.000 C 
ATOM     29  O   UNL     1      -2.576  10.520  14.908  0.00  0.00    +0.000 OA
ENDBRANCH  22  29
BRANCH  26  30
ATOM     30  O   UNL     1      -6.424  11.441  17.801  0.00  0.00    +0.000 OA
ATOM     31  C   UNL     1      -6.894  10.569  18.820  0.00  0.00    +0.000 C 
ENDBRANCH  26  30
ENDBRANCH  21  24
ENDBRANCH   1  21
TORSDOF 6
ENDMDL
MODEL 4
REMARK VINA RESULT:      -8.6      5.052      9.662
REMARK  Name = 
REMARK  8 active torsions:
REMARK  status: ('A' for Active; 'I' for Inactive)
REMARK    1  A    between atoms: C_1  and  O_2
REMARK    2  A    between atoms: O_2  and  C_3
REMARK    3  A    between atoms: C_5  and  C_6
REMARK    4  A    between atoms: C_6  and  N_7
REMARK    5  A    between atoms: C_13  and  C_14
REMARK    6  A    between atoms: C_17  and  C_18
REMARK    7  A    between atoms: C_27  and  O_28
REMARK    8  A    between atoms: O_28  and  C_29
REMARK                            x       y       z     vdW  Elec       q    Type
REMARK                         _______ _______ _______ _____ _____    ______ ____
ROOT
ATOM      1  N   UNL     1      -0.980  11.230  19.787  0.00  0.00    +0.000 NA
ATOM      2  C   UNL     1      -0.584  10.776  21.154  0.00  0.00    +0.000 C 
ATOM      3  C   UNL     1      -0.583  11.866  22.255  0.00  0.00    +0.000 C 
ATOM      4  N   UNL     1       0.334  12.999  21.980  0.00  0.00    +0.000 NA
ATOM      5  C   UNL     1       0.620  13.154  20.536  0.00  0.00    +0.000 C 
ATOM      6  C   UNL     1       0.369  11.880  19.714  0.00  0.00    +0.000 C 
ATOM      7  C   UNL     1       0.865  10.661  20.574  0.00  0.00    +0.000 C 
ATOM      8  H   UNL     1       1.220  12.802  22.453  0.00  0.00    +0.000 HD
ENDROOT
BRANCH   7   9
ATOM      9  C   UNL     1       1.445   9.416  19.817  0.00  0.00    +0.000 A 
ATOM     10  C   UNL     1       1.631   8.228  20.547  0.00  0.00    +0.000 A 
ATOM     11  C   UNL     1       2.122   7.069  19.959  0.00  0.00    +0.000 A 
ATOM     12  C   UNL     1       2.441   7.036  18.597  0.00  0.00    +0.000 A 
ATOM     13  C   UNL     1       2.267   8.218  17.860  0.00  0.00    +0.000 A 
ATOM     14  C   UNL     1       1.789   9.387  18.462  0.00  0.00    +0.000 A 
BRANCH  12  15
ATOM     15  C   UNL     1       2.950   5.801  17.980  0.00  0.00    +0.000 A 
ATOM     16  C   UNL     1       2.228   4.594  18.073  0.00  0.00    +0.000 A 
ATOM     17  C   UNL     1       2.724   3.411  17.524  0.00  0.00    +0.000 A 
ATOM     18  C   UNL     1       3.944   3.417  16.855  0.00  0.00    +0.000 A 
ATOM     19  C   UNL     1       4.669   4.602  16.739  0.00  0.00    +0.000 A 
ATOM     20  C   UNL     1       4.177   5.780  17.305  0.00  0.00    +0.000 A 
ENDBRANCH  12  15
ENDBRANCH   7   9
BRANCH   1  21
ATOM     21  C   UNL     1      -2.149  12.086  19.693  0.00  0.00    +0.000 C 
BRANCH  21  24
ATOM     22  C   UNL     1      -3.265  11.007  16.143  0.00  0.00    +0.000 A 
ATOM     23  C   UNL     1      -2.442  11.359  17.229  0.00  0.00    +0.000 A 
ATOM     24  C   UNL     1      -3.001  11.756  18.456  0.00  0.00    +0.000 A 
ATOM     25  C   UNL     1      -4.401  11.777  18.556  0.00  0.00    +0.000 A 
ATOM     26  C   UNL     1      -5.231  11.378  17.500  0.00  0.00    +0.000 A 
ATOM     27  C   UNL     1      -4.658  10.986  16.293  0.00  0.00    +0.000 A 
BRANCH  22  29
ATOM     28  C   UNL     1      -3.442  10.038  13.987  0.00  0.00    +0.000 C 
ATOM     29  O   UNL     1      -2.618  10.648  14.984  0.00  0.00    +0.000 OA
ENDBRANCH  22  29
BRANCH  26  30
ATOM     30  O   UNL     1      -6.567  11.392  17.789  0.00  0.00    +0.000 OA
ATOM     31  C   UNL     1      -7.240  12.645  17.795  0.00  0.00    +0.000 C 
ENDBRANCH  26  30
ENDBRANCH  21  24
ENDBRANCH   1  21
TORSDOF 6
ENDMDL
MODEL 5
REMARK VINA RESULT:      -8.5      0.333      2.554
REMARK  Name = 
REMARK  8 active torsions:
REMARK  status: ('A' for Active; 'I' for Inactive)
REMARK    1  A    between atoms: C_1  and  O_2
REMARK    2  A    between atoms: O_2  and  C_3
REMARK    3  A    between atoms: C_5  and  C_6
REMARK    4  A    between atoms: C_6  and  N_7
REMARK    5  A    between atoms: C_13  and  C_14
REMARK    6  A    between atoms: C_17  and  C_18
REMARK    7  A    between atoms: C_27  and  O_28
REMARK    8  A    between atoms: O_28  and  C_29
REMARK                            x       y       z     vdW  Elec       q    Type
REMARK                         _______ _______ _______ _____ _____    ______ ____
ROOT
ATOM      1  N   UNL     1       3.249   4.796  17.836  0.00  0.00    +0.000 NA
ATOM      2  C   UNL     1       3.854   4.916  19.197  0.00  0.00    +0.000 C 
ATOM      3  C   UNL     1       4.077   3.587  19.959  0.00  0.00    +0.000 C 
ATOM      4  N   UNL     1       2.835   2.810  20.192  0.00  0.00    +0.000 NA
ATOM      5  C   UNL     1       1.773   3.140  19.214  0.00  0.00    +0.000 C 
ATOM      6  C   UNL     1       1.957   4.508  18.538  0.00  0.00    +0.000 C 
ATOM      7  C   UNL     1       2.472   5.508  19.635  0.00  0.00    +0.000 C 
ATOM      8  H   UNL     1       2.487   3.053  21.122  0.00  0.00    +0.000 HD
ENDROOT
BRANCH   7   9
ATOM      9  C   UNL     1       2.048   7.014  19.513  0.00  0.00    +0.000 A 
ATOM     10  C   UNL     1       2.237   7.654  18.275  0.00  0.00    +0.000 A 
ATOM     11  C   UNL     1       1.875   8.978  18.065  0.00  0.00    +0.000 A 
ATOM     12  C   UNL     1       1.289   9.731  19.089  0.00  0.00    +0.000 A 
ATOM     13  C   UNL     1       1.102   9.105  20.331  0.00  0.00    +0.000 A 
ATOM     14  C   UNL     1       1.485   7.776  20.541  0.00  0.00    +0.000 A 
BRANCH  12  15
ATOM     15  C   UNL     1       0.898  11.131  18.855  0.00  0.00    +0.000 A 
ATOM     16  C   UNL     1       1.870  12.130  18.654  0.00  0.00    +0.000 A 
ATOM     17  C   UNL     1       1.507  13.465  18.471  0.00  0.00    +0.000 A 
ATOM     18  C   UNL     1       0.163  13.822  18.467  0.00  0.00    +0.000 A 
ATOM     19  C   UNL     1      -0.818  12.847  18.650  0.00  0.00    +0.000 A 
ATOM     20  C   UNL     1      -0.449  11.516  18.850  0.00  0.00    +0.000 A 
ENDBRANCH  12  15
ENDBRANCH   7   9
BRANCH   1  21
ATOM     21  C   UNL     1       3.792   3.767  16.967  0.00  0.00    +0.000 C 
BRANCH  21  24
ATOM     22  C   UNL     1       6.965   5.659  15.798  0.00  0.00    +0.000 A 
ATOM     23  C   UNL     1       5.875   5.253  16.590  0.00  0.00    +0.000 A 
ATOM     24  C   UNL     1       4.961   4.295  16.118  0.00  0.00    +0.000 A 
ATOM     25  C   UNL     1       5.184   3.757  14.841  0.00  0.00    +0.000 A 
ATOM     26  C   UNL     1       6.295   4.114  14.065  0.00  0.00    +0.000 A 
ATOM     27  C   UNL     1       7.190   5.063  14.551  0.00  0.00    +0.000 A 
BRANCH  22  29
ATOM     28  C   UNL     1       7.264   7.292  17.490  0.00  0.00    +0.000 C 
ATOM     29  O   UNL     1       7.790   6.613  16.347  0.00  0.00    +0.000 OA
ENDBRANCH  22  29
BRANCH  26  30
ATOM     30  O   UNL     1       6.398   3.444  12.877  0.00  0.00    +0.000 OA
ATOM     31  C   UNL     1       5.228   3.300  12.082  0.00  0.00    +0.000 C 
ENDBRANCH  26  30
ENDBRANCH  21  24
ENDBRANCH   1  21
TORSDOF 6
ENDMDL
MODEL 6
REMARK VINA RESULT:      -8.4      5.014      9.719
REMARK  Name = 
REMARK  8 active torsions:
REMARK  status: ('A' for Active; 'I' for Inactive)
REMARK    1  A    between atoms: C_1  and  O_2
REMARK    2  A    between atoms: O_2  and  C_3
REMARK    3  A    between atoms: C_5  and  C_6
REMARK    4  A    between atoms: C_6  and  N_7
REMARK    5  A    between atoms: C_13  and  C_14
REMARK    6  A    between atoms: C_17  and  C_18
REMARK    7  A    between atoms: C_27  and  O_28
REMARK    8  A    between atoms: O_28  and  C_29
REMARK                            x       y       z     vdW  Elec       q    Type
REMARK                         _______ _______ _______ _____ _____    ______ ____
ROOT
ATOM      1  N   UNL     1      -0.740  11.340  19.552  0.00  0.00    +0.000 NA
ATOM      2  C   UNL     1      -0.585  10.904  20.972  0.00  0.00    +0.000 C 
ATOM      3  C   UNL     1      -0.606  12.032  22.033  0.00  0.00    +0.000 C 
ATOM      4  N   UNL     1       0.463  13.046  21.856  0.00  0.00    +0.000 NA
ATOM      5  C   UNL     1       0.955  13.107  20.461  0.00  0.00    +0.000 C 
ATOM      6  C   UNL     1       0.672  11.834  19.648  0.00  0.00    +0.000 C 
ATOM      7  C   UNL     1       0.906  10.606  20.601  0.00  0.00    +0.000 C 
ATOM      8  H   UNL     1       1.249  12.774  22.452  0.00  0.00    +0.000 HD
ENDROOT
BRANCH   7   9
ATOM      9  C   UNL     1       1.437   9.274  19.964  0.00  0.00    +0.000 A 
ATOM     10  C   UNL     1       1.851   9.305  18.621  0.00  0.00    +0.000 A 
ATOM     11  C   UNL     1       2.352   8.181  17.976  0.00  0.00    +0.000 A 
ATOM     12  C   UNL     1       2.477   6.963  18.654  0.00  0.00    +0.000 A 
ATOM     13  C   UNL     1       2.059   6.919  19.993  0.00  0.00    +0.000 A 
ATOM     14  C   UNL     1       1.539   8.049  20.632  0.00  0.00    +0.000 A 
BRANCH  12  15
ATOM     15  C   UNL     1       3.020   5.780  17.967  0.00  0.00    +0.000 A 
ATOM     16  C   UNL     1       2.298   4.571  17.927  0.00  0.00    +0.000 A 
ATOM     17  C   UNL     1       2.824   3.435  17.312  0.00  0.00    +0.000 A 
ATOM     18  C   UNL     1       4.076   3.492  16.708  0.00  0.00    +0.000 A 
ATOM     19  C   UNL     1       4.804   4.682  16.724  0.00  0.00    +0.000 A 
ATOM     20  C   UNL     1       4.280   5.811  17.357  0.00  0.00    +0.000 A 
ENDBRANCH  12  15
ENDBRANCH   7   9
BRANCH   1  21
ATOM     21  C   UNL     1      -1.780  12.314  19.275  0.00  0.00    +0.000 C 
BRANCH  21  24
ATOM     22  C   UNL     1      -5.094  11.382  17.495  0.00  0.00    +0.000 A 
ATOM     23  C   UNL     1      -4.192  11.825  18.481  0.00  0.00    +0.000 A 
ATOM     24  C   UNL     1      -2.805  11.781  18.259  0.00  0.00    +0.000 A 
ATOM     25  C   UNL     1      -2.360  11.292  17.021  0.00  0.00    +0.000 A 
ATOM     26  C   UNL     1      -3.248  10.898  16.011  0.00  0.00    +0.000 A 
ATOM     27  C   UNL     1      -4.618  10.951  16.250  0.00  0.00    +0.000 A 
BRANCH  22  29
ATOM     28  C   UNL     1      -6.891  10.449  18.725  0.00  0.00    +0.000 C 
ATOM     29  O   UNL     1      -6.428  11.453  17.818  0.00  0.00    +0.000 OA
ENDBRANCH  22  29
BRANCH  26  30
ATOM     30  O   UNL     1      -2.648  10.514  14.844  0.00  0.00    +0.000 OA
ATOM     31  C   UNL     1      -3.476  10.048  13.785  0.00  0.00    +0.000 C 
ENDBRANCH  26  30
ENDBRANCH  21  24
ENDBRANCH   1  21
TORSDOF 6
ENDMDL
MODEL 7
REMARK VINA RESULT:      -8.4      0.371      1.293
REMARK  Name = 
REMARK  8 active torsions:
REMARK  status: ('A' for Active; 'I' for Inactive)
REMARK    1  A    between atoms: C_1  and  O_2
REMARK    2  A    between atoms: O_2  and  C_3
REMARK    3  A    between atoms: C_5  and  C_6
REMARK    4  A    between atoms: C_6  and  N_7
REMARK    5  A    between atoms: C_13  and  C_14
REMARK    6  A    between atoms: C_17  and  C_18
REMARK    7  A    between atoms: C_27  and  O_28
REMARK    8  A    between atoms: O_28  and  C_29
REMARK                            x       y       z     vdW  Elec       q    Type
REMARK                         _______ _______ _______ _____ _____    ______ ____
ROOT
ATOM      1  N   UNL     1       3.466   4.398  17.911  0.00  0.00    +0.000 NA
ATOM      2  C   UNL     1       3.734   4.400  19.381  0.00  0.00    +0.000 C 
ATOM      3  C   UNL     1       3.671   3.021  20.082  0.00  0.00    +0.000 C 
ATOM      4  N   UNL     1       2.357   2.343  19.963  0.00  0.00    +0.000 NA
ATOM      5  C   UNL     1       1.586   2.811  18.789  0.00  0.00    +0.000 C 
ATOM      6  C   UNL     1       2.025   4.189  18.269  0.00  0.00    +0.000 C 
ATOM      7  C   UNL     1       2.334   5.087  19.521  0.00  0.00    +0.000 C 
ATOM      8  H   UNL     1       1.815   2.571  20.801  0.00  0.00    +0.000 HD
ENDROOT
BRANCH   7   9
ATOM      9  C   UNL     1       2.061   6.628  19.405  0.00  0.00    +0.000 A 
ATOM     10  C   UNL     1       2.255   7.239  18.154  0.00  0.00    +0.000 A 
ATOM     11  C   UNL     1       2.021   8.593  17.948  0.00  0.00    +0.000 A 
ATOM     12  C   UNL     1       1.565   9.407  18.992  0.00  0.00    +0.000 A 
ATOM     13  C   UNL     1       1.376   8.809  20.247  0.00  0.00    +0.000 A 
ATOM     14  C   UNL     1       1.630   7.449  20.452  0.00  0.00    +0.000 A 
BRANCH  12  15
ATOM     15  C   UNL     1       1.309  10.838  18.763  0.00  0.00    +0.000 A 
ATOM     16  C   UNL     1       0.017  11.377  18.921  0.00  0.00    +0.000 A 
ATOM     17  C   UNL     1      -0.240  12.725  18.667  0.00  0.00    +0.000 A 
ATOM     18  C   UNL     1       0.796  13.563  18.268  0.00  0.00    +0.000 A 
ATOM     19  C   UNL     1       2.086  13.054  18.118  0.00  0.00    +0.000 A 
ATOM     20  C   UNL     1       2.334  11.702  18.356  0.00  0.00    +0.000 A 
ENDBRANCH  12  15
ENDBRANCH   7   9
BRANCH   1  21
ATOM     21  C   UNL     1       4.125   3.370  17.126  0.00  0.00    +0.000 C 
BRANCH  21  24
ATOM     22  C   UNL     1       6.431   4.155  14.113  0.00  0.00    +0.000 A 
ATOM     23  C   UNL     1       5.441   3.547  14.907  0.00  0.00    +0.000 A 
ATOM     24  C   UNL     1       5.235   3.954  16.237  0.00  0.00    +0.000 A 
ATOM     25  C   UNL     1       6.044   4.990  16.732  0.00  0.00    +0.000 A 
ATOM     26  C   UNL     1       6.995   5.639  15.935  0.00  0.00    +0.000 A 
ATOM     27  C   UNL     1       7.183   5.223  14.621  0.00  0.00    +0.000 A 
BRANCH  22  29
ATOM     28  C   UNL     1       5.333   3.358  12.170  0.00  0.00    +0.000 C 
ATOM     29  O   UNL     1       6.561   3.672  12.832  0.00  0.00    +0.000 OA
ENDBRANCH  22  29
BRANCH  26  30
ATOM     30  O   UNL     1       7.646   6.672  16.553  0.00  0.00    +0.000 OA
ATOM     31  C   UNL     1       7.451   6.849  17.950  0.00  0.00    +0.000 C 
ENDBRANCH  26  30
ENDBRANCH  21  24
ENDBRANCH   1  21
TORSDOF 6
ENDMDL
MODEL 8
REMARK VINA RESULT:      -8.4      0.796      2.563
REMARK  Name = 
REMARK  8 active torsions:
REMARK  status: ('A' for Active; 'I' for Inactive)
REMARK    1  A    between atoms: C_1  and  O_2
REMARK    2  A    between atoms: O_2  and  C_3
REMARK    3  A    between atoms: C_5  and  C_6
REMARK    4  A    between atoms: C_6  and  N_7
REMARK    5  A    between atoms: C_13  and  C_14
REMARK    6  A    between atoms: C_17  and  C_18
REMARK    7  A    between atoms: C_27  and  O_28
REMARK    8  A    between atoms: O_28  and  C_29
REMARK                            x       y       z     vdW  Elec       q    Type
REMARK                         _______ _______ _______ _____ _____    ______ ____
ROOT
ATOM      1  N   UNL     1       3.292   4.716  17.787  0.00  0.00    +0.000 NA
ATOM      2  C   UNL     1       3.966   4.871  19.112  0.00  0.00    +0.000 C 
ATOM      3  C   UNL     1       4.299   3.557  19.859  0.00  0.00    +0.000 C 
ATOM      4  N   UNL     1       3.113   2.719  20.162  0.00  0.00    +0.000 NA
ATOM      5  C   UNL     1       1.982   2.992  19.247  0.00  0.00    +0.000 C 
ATOM      6  C   UNL     1       2.058   4.365  18.561  0.00  0.00    +0.000 C 
ATOM      7  C   UNL     1       2.584   5.394  19.627  0.00  0.00    +0.000 C 
ATOM      8  H   UNL     1       2.807   2.947  21.111  0.00  0.00    +0.000 HD
ENDROOT
BRANCH   7   9
ATOM      9  C   UNL     1       2.077   6.876  19.529  0.00  0.00    +0.000 A 
ATOM     10  C   UNL     1       1.532   7.463  20.685  0.00  0.00    +0.000 A 
ATOM     11  C   UNL     1       1.075   8.775  20.702  0.00  0.00    +0.000 A 
ATOM     12  C   UNL     1       1.153   9.575  19.556  0.00  0.00    +0.000 A 
ATOM     13  C   UNL     1       1.688   8.996  18.394  0.00  0.00    +0.000 A 
ATOM     14  C   UNL     1       2.131   7.669  18.379  0.00  0.00    +0.000 A 
BRANCH  12  15
ATOM     15  C   UNL     1       0.676  10.967  19.585  0.00  0.00    +0.000 A 
ATOM     16  C   UNL     1      -0.142  11.474  18.556  0.00  0.00    +0.000 A 
ATOM     17  C   UNL     1      -0.564  12.804  18.558  0.00  0.00    +0.000 A 
ATOM     18  C   UNL     1      -0.191  13.647  19.599  0.00  0.00    +0.000 A 
ATOM     19  C   UNL     1       0.608  13.163  20.635  0.00  0.00    +0.000 A 
ATOM     20  C   UNL     1       1.042  11.837  20.620  0.00  0.00    +0.000 A 
ENDBRANCH  12  15
ENDBRANCH   7   9
BRANCH   1  21
ATOM     21  C   UNL     1       3.836   3.714  16.889  0.00  0.00    +0.000 C 
BRANCH  21  24
ATOM     22  C   UNL     1       7.001   5.641  15.757  0.00  0.00    +0.000 A 
ATOM     23  C   UNL     1       5.918   5.208  16.544  0.00  0.00    +0.000 A 
ATOM     24  C   UNL     1       4.997   4.270  16.047  0.00  0.00    +0.000 A 
ATOM     25  C   UNL     1       5.206   3.779  14.749  0.00  0.00    +0.000 A 
ATOM     26  C   UNL     1       6.309   4.162  13.975  0.00  0.00    +0.000 A 
ATOM     27  C   UNL     1       7.211   5.091  14.486  0.00  0.00    +0.000 A 
BRANCH  22  29
ATOM     28  C   UNL     1       7.330   7.194  17.517  0.00  0.00    +0.000 C 
ATOM     29  O   UNL     1       7.834   6.573  16.332  0.00  0.00    +0.000 OA
ENDBRANCH  22  29
BRANCH  26  30
ATOM     30  O   UNL     1       6.399   3.536  12.762  0.00  0.00    +0.000 OA
ATOM     31  C   UNL     1       5.193   3.197  12.090  0.00  0.00    +0.000 C 
ENDBRANCH  26  30
ENDBRANCH  21  24
ENDBRANCH   1  21
TORSDOF 6
ENDMDL
MODEL 9
REMARK VINA RESULT:      -8.2      0.947      1.319
REMARK  Name = 
REMARK  8 active torsions:
REMARK  status: ('A' for Active; 'I' for Inactive)
REMARK    1  A    between atoms: C_1  and  O_2
REMARK    2  A    between atoms: O_2  and  C_3
REMARK    3  A    between atoms: C_5  and  C_6
REMARK    4  A    between atoms: C_6  and  N_7
REMARK    5  A    between atoms: C_13  and  C_14
REMARK    6  A    between atoms: C_17  and  C_18
REMARK    7  A    between atoms: C_27  and  O_28
REMARK    8  A    between atoms: O_28  and  C_29
REMARK                            x       y       z     vdW  Elec       q    Type
REMARK                         _______ _______ _______ _____ _____    ______ ____
ROOT
ATOM      1  N   UNL     1       3.005   4.920  17.942  0.00  0.00    +0.000 NA
ATOM      2  C   UNL     1       3.503   5.094  19.340  0.00  0.00    +0.000 C 
ATOM      3  C   UNL     1       3.543   3.812  20.208  0.00  0.00    +0.000 C 
ATOM      4  N   UNL     1       2.222   3.161  20.383  0.00  0.00    +0.000 NA
ATOM      5  C   UNL     1       1.277   3.503  19.295  0.00  0.00    +0.000 C 
ATOM      6  C   UNL     1       1.638   4.795  18.545  0.00  0.00    +0.000 C 
ATOM      7  C   UNL     1       2.149   5.830  19.611  0.00  0.00    +0.000 C 
ATOM      8  H   UNL     1       1.822   3.503  21.260  0.00  0.00    +0.000 HD
ENDROOT
BRANCH   7   9
ATOM      9  C   UNL     1       1.872   7.352  19.349  0.00  0.00    +0.000 A 
ATOM     10  C   UNL     1       1.295   8.105  20.387  0.00  0.00    +0.000 A 
ATOM     11  C   UNL     1       1.030   9.463  20.255  0.00  0.00    +0.000 A 
ATOM     12  C   UNL     1       1.343  10.142  19.072  0.00  0.00    +0.000 A 
ATOM     13  C   UNL     1       1.912   9.398  18.027  0.00  0.00    +0.000 A 
ATOM     14  C   UNL     1       2.161   8.028  18.159  0.00  0.00    +0.000 A 
BRANCH  12  15
ATOM     15  C   UNL     1       1.069  11.582  18.945  0.00  0.00    +0.000 A 
ATOM     16  C   UNL     1      -0.237  12.088  19.098  0.00  0.00    +0.000 A 
ATOM     17  C   UNL     1      -0.510  13.446  18.939  0.00  0.00    +0.000 A 
ATOM     18  C   UNL     1       0.523  14.329  18.643  0.00  0.00    +0.000 A 
ATOM     19  C   UNL     1       1.827  13.854  18.500  0.00  0.00    +0.000 A 
ATOM     20  C   UNL     1       2.091  12.491  18.643  0.00  0.00    +0.000 A 
ENDBRANCH  12  15
ENDBRANCH   7   9
BRANCH   1  21
ATOM     21  C   UNL     1       3.523   3.786  17.198  0.00  0.00    +0.000 C 
BRANCH  21  24
ATOM     22  C   UNL     1       6.553   4.494  14.889  0.00  0.00    +0.000 A 
ATOM     23  C   UNL     1       5.245   4.195  15.312  0.00  0.00    +0.000 A 
ATOM     24  C   UNL     1       4.947   4.047  16.678  0.00  0.00    +0.000 A 
ATOM     25  C   UNL     1       5.996   4.219  17.595  0.00  0.00    +0.000 A 
ATOM     26  C   UNL     1       7.290   4.569  17.190  0.00  0.00    +0.000 A 
ATOM     27  C   UNL     1       7.565   4.713  15.833  0.00  0.00    +0.000 A 
BRANCH  22  29
ATOM     28  C   UNL     1       6.182   3.542  12.751  0.00  0.00    +0.000 C 
ATOM     29  O   UNL     1       6.741   4.602  13.531  0.00  0.00    +0.000 OA
ENDBRANCH  22  29
BRANCH  26  30
ATOM     30  O   UNL     1       8.174   4.766  18.215  0.00  0.00    +0.000 OA
ATOM     31  C   UNL     1       7.862   5.753  19.190  0.00  0.00    +0.000 C 
ENDBRANCH  26  30
ENDBRANCH  21  24
ENDBRANCH   1  21
TORSDOF 6
ENDMDL
