MODEL 1
REMARK VINA RESULT:      -7.8      0.000      0.000
REMARK  Name = 
REMARK  6 active torsions:
REMARK  status: ('A' for Active; 'I' for Inactive)
REMARK    1  A    between atoms: C_1  and  C_2
REMARK    2  A    between atoms: C_2  and  C_3
REMARK    3  A    between atoms: C_3  and  O_5
REMARK    4  A    between atoms: C_8  and  C_9
REMARK    5  A    between atoms: C_17  and  C_18
REMARK    6  A    between atoms: C_17  and  C_19
REMARK                            x       y       z     vdW  Elec       q    Type
REMARK                         _______ _______ _______ _____ _____    ______ ____
ROOT
ATOM      1  C   UNL     1       0.299   3.260  19.706  0.00  0.00    +0.000 C 
ATOM      2  C   UNL     1       1.830   3.020  19.707  0.00  0.00    +0.000 C 
ATOM      3  C   UNL     1       2.127   1.812  18.806  0.00  0.00    +0.000 C 
ATOM      4  C   UNL     1       3.571   1.981  18.378  0.00  0.00    +0.000 C 
ATOM      5  C   UNL     1       3.795   3.498  18.255  0.00  0.00    +0.000 C 
ATOM      6  C   UNL     1       2.632   4.203  19.041  0.00  0.00    +0.000 C 
ATOM      7  C   UNL     1       1.801   4.973  17.973  0.00  0.00    +0.000 C 
ATOM      8  C   UNL     1       3.033   5.274  20.080  0.00  0.00    +0.000 C 
ENDROOT
BRANCH   5   9
ATOM      9  C   UNL     1       5.203   3.861  18.714  0.00  0.00    +0.000 C 
ATOM     10  O   UNL     1       5.654   3.275  19.707  0.00  0.00    +0.000 OA
ATOM     11  N   UNL     1       5.901   4.836  18.020  0.00  0.00    +0.000 N 
ATOM     12  C   UNL     1       7.331   5.010  18.290  0.00  0.00    +0.000 C 
ATOM     13  C   UNL     1       7.693   6.485  18.437  0.00  0.00    +0.000 C 
ATOM     14  C   UNL     1       7.225   7.295  17.229  0.00  0.00    +0.000 C 
ATOM     15  C   UNL     1       5.739   7.075  16.984  0.00  0.00    +0.000 C 
ATOM     16  C   UNL     1       5.405   5.590  16.865  0.00  0.00    +0.000 C 
ENDBRANCH   5   9
BRANCH   2  17
ATOM     17  C   UNL     1       2.213   2.679  21.172  0.00  0.00    +0.000 C 
ATOM     18  O   UNL     1       1.409   2.707  22.095  0.00  0.00    +0.000 OA
BRANCH  17  19
ATOM     19  O   UNL     1       3.485   2.305  21.411  0.00  0.00    +0.000 OA
ATOM     20  H   UNL     1       4.144   2.955  21.747  0.00  0.00    +0.000 HD
ENDBRANCH  17  19
ENDBRANCH   2  17
TORSDOF 3
ENDMDL
MODEL 2
REMARK VINA RESULT:      -6.7      1.941      5.766
REMARK  Name = 
REMARK  6 active torsions:
REMARK  status: ('A' for Active; 'I' for Inactive)
REMARK    1  A    between atoms: C_1  and  C_2
REMARK    2  A    between atoms: C_2  and  C_3
REMARK    3  A    between atoms: C_3  and  O_5
REMARK    4  A    between atoms: C_8  and  C_9
REMARK    5  A    between atoms: C_17  and  C_18
REMARK    6  A    between atoms: C_17  and  C_19
REMARK                            x       y       z     vdW  Elec       q    Type
REMARK                         _______ _______ _______ _____ _____    ______ ____
ROOT
ATOM      1  C   UNL     1       6.943   7.311  16.332  0.00  0.00    +0.000 C 
ATOM      2  C   UNL     1       6.774   6.076  17.252  0.00  0.00    +0.000 C 
ATOM      3  C   UNL     1       7.510   6.355  18.571  0.00  0.00    +0.000 C 
ATOM      4  C   UNL     1       6.852   5.450  19.593  0.00  0.00    +0.000 C 
ATOM      5  C   UNL     1       5.372   5.365  19.183  0.00  0.00    +0.000 C 
ATOM      6  C   UNL     1       5.277   5.843  17.689  0.00  0.00    +0.000 C 
ATOM      7  C   UNL     1       4.441   7.156  17.714  0.00  0.00    +0.000 C 
ATOM      8  C   UNL     1       4.533   4.918  16.700  0.00  0.00    +0.000 C 
ENDROOT
BRANCH   5   9
ATOM      9  C   UNL     1       4.831   3.964  19.452  0.00  0.00    +0.000 C 
ATOM     10  O   UNL     1       5.551   3.002  19.155  0.00  0.00    +0.000 OA
ATOM     11  N   UNL     1       3.562   3.831  19.993  0.00  0.00    +0.000 N 
ATOM     12  C   UNL     1       3.139   2.518  20.488  0.00  0.00    +0.000 C 
ATOM     13  C   UNL     1       1.724   2.179  20.024  0.00  0.00    +0.000 C 
ATOM     14  C   UNL     1       0.740   3.287  20.393  0.00  0.00    +0.000 C 
ATOM     15  C   UNL     1       1.226   4.631  19.866  0.00  0.00    +0.000 C 
ATOM     16  C   UNL     1       2.651   4.929  20.327  0.00  0.00    +0.000 C 
ENDBRANCH   5   9
BRANCH   2  17
ATOM     17  C   UNL     1       7.460   4.893  16.518  0.00  0.00    +0.000 C 
ATOM     18  O   UNL     1       7.515   4.807  15.298  0.00  0.00    +0.000 OA
BRANCH  17  19
ATOM     19  O   UNL     1       8.046   3.946  17.277  0.00  0.00    +0.000 OA
ATOM     20  H   UNL     1       8.858   4.151  17.795  0.00  0.00    +0.000 HD
ENDBRANCH  17  19
ENDBRANCH   2  17
TORSDOF 3
ENDMDL
MODEL 3
REMARK VINA RESULT:      -6.6      1.800      2.224
REMARK  Name = 
REMARK  6 active torsions:
REMARK  status: ('A' for Active; 'I' for Inactive)
REMARK    1  A    between atoms: C_1  and  C_2
REMARK    2  A    between atoms: C_2  and  C_3
REMARK    3  A    between atoms: C_3  and  O_5
REMARK    4  A    between atoms: C_8  and  C_9
REMARK    5  A    between atoms: C_17  and  C_18
REMARK    6  A    between atoms: C_17  and  C_19
REMARK                            x       y       z     vdW  Elec       q    Type
REMARK                         _______ _______ _______ _____ _____    ______ ____
ROOT
ATOM      1  C   UNL     1       0.571   2.998  19.498  0.00  0.00    +0.000 C 
ATOM      2  C   UNL     1       2.003   3.554  19.700  0.00  0.00    +0.000 C 
ATOM      3  C   UNL     1       2.775   2.580  20.602  0.00  0.00    +0.000 C 
ATOM      4  C   UNL     1       4.238   2.826  20.293  0.00  0.00    +0.000 C 
ATOM      5  C   UNL     1       4.294   3.185  18.798  0.00  0.00    +0.000 C 
ATOM      6  C   UNL     1       2.838   3.585  18.364  0.00  0.00    +0.000 C 
ATOM      7  C   UNL     1       2.386   2.502  17.341  0.00  0.00    +0.000 C 
ATOM      8  C   UNL     1       2.671   4.929  17.618  0.00  0.00    +0.000 C 
ENDROOT
BRANCH   5   9
ATOM      9  C   UNL     1       5.361   4.247  18.552  0.00  0.00    +0.000 C 
ATOM     10  O   UNL     1       5.594   5.051  19.463  0.00  0.00    +0.000 OA
ATOM     11  N   UNL     1       6.002   4.277  17.323  0.00  0.00    +0.000 N 
ATOM     12  C   UNL     1       7.191   5.118  17.167  0.00  0.00    +0.000 C 
ATOM     13  C   UNL     1       7.141   5.915  15.866  0.00  0.00    +0.000 C 
ATOM     14  C   UNL     1       6.910   5.002  14.664  0.00  0.00    +0.000 C 
ATOM     15  C   UNL     1       5.670   4.144  14.877  0.00  0.00    +0.000 C 
ATOM     16  C   UNL     1       5.740   3.379  16.196  0.00  0.00    +0.000 C 
ENDBRANCH   5   9
BRANCH   2  17
ATOM     17  C   UNL     1       1.839   4.914  20.430  0.00  0.00    +0.000 C 
ATOM     18  O   UNL     1       0.747   5.392  20.713  0.00  0.00    +0.000 OA
BRANCH  17  19
ATOM     19  O   UNL     1       2.962   5.566  20.792  0.00  0.00    +0.000 OA
ATOM     20  H   UNL     1       3.781   5.066  21.013  0.00  0.00    +0.000 HD
ENDBRANCH  17  19
ENDBRANCH   2  17
TORSDOF 3
ENDMDL
MODEL 4
REMARK VINA RESULT:      -6.5      2.241      5.630
REMARK  Name = 
REMARK  6 active torsions:
REMARK  status: ('A' for Active; 'I' for Inactive)
REMARK    1  A    between atoms: C_1  and  C_2
REMARK    2  A    between atoms: C_2  and  C_3
REMARK    3  A    between atoms: C_3  and  O_5
REMARK    4  A    between atoms: C_8  and  C_9
REMARK    5  A    between atoms: C_17  and  C_18
REMARK    6  A    between atoms: C_17  and  C_19
REMARK                            x       y       z     vdW  Elec       q    Type
REMARK                         _______ _______ _______ _____ _____    ______ ____
ROOT
ATOM      1  C   UNL     1       6.389   4.313  15.010  0.00  0.00    +0.000 C 
ATOM      2  C   UNL     1       5.923   5.000  16.318  0.00  0.00    +0.000 C 
ATOM      3  C   UNL     1       5.396   6.399  15.965  0.00  0.00    +0.000 C 
ATOM      4  C   UNL     1       4.455   6.767  17.095  0.00  0.00    +0.000 C 
ATOM      5  C   UNL     1       3.799   5.447  17.537  0.00  0.00    +0.000 C 
ATOM      6  C   UNL     1       4.687   4.278  16.978  0.00  0.00    +0.000 C 
ATOM      7  C   UNL     1       3.799   3.528  15.941  0.00  0.00    +0.000 C 
ATOM      8  C   UNL     1       5.131   3.190  17.981  0.00  0.00    +0.000 C 
ENDROOT
BRANCH   5   9
ATOM      9  C   UNL     1       3.594   5.442  19.049  0.00  0.00    +0.000 C 
ATOM     10  O   UNL     1       4.391   6.089  19.740  0.00  0.00    +0.000 OA
ATOM     11  N   UNL     1       2.548   4.703  19.578  0.00  0.00    +0.000 N 
ATOM     12  C   UNL     1       2.191   4.893  20.986  0.00  0.00    +0.000 C 
ATOM     13  C   UNL     1       1.971   3.555  21.689  0.00  0.00    +0.000 C 
ATOM     14  C   UNL     1       0.956   2.695  20.939  0.00  0.00    +0.000 C 
ATOM     15  C   UNL     1       1.365   2.534  19.482  0.00  0.00    +0.000 C 
ATOM     16  C   UNL     1       1.600   3.887  18.815  0.00  0.00    +0.000 C 
ENDBRANCH   5   9
BRANCH   2  17
ATOM     17  C   UNL     1       7.186   5.135  17.210  0.00  0.00    +0.000 C 
ATOM     18  O   UNL     1       7.359   6.066  17.986  0.00  0.00    +0.000 OA
BRANCH  17  19
ATOM     19  O   UNL     1       8.107   4.153  17.137  0.00  0.00    +0.000 OA
ATOM     20  H   UNL     1       8.325   3.734  16.272  0.00  0.00    +0.000 HD
ENDBRANCH  17  19
ENDBRANCH   2  17
TORSDOF 3
ENDMDL
MODEL 5
REMARK VINA RESULT:      -6.5      2.079      5.496
REMARK  Name = 
REMARK  6 active torsions:
REMARK  status: ('A' for Active; 'I' for Inactive)
REMARK    1  A    between atoms: C_1  and  C_2
REMARK    2  A    between atoms: C_2  and  C_3
REMARK    3  A    between atoms: C_3  and  O_5
REMARK    4  A    between atoms: C_8  and  C_9
REMARK    5  A    between atoms: C_17  and  C_18
REMARK    6  A    between atoms: C_17  and  C_19
REMARK                            x       y       z     vdW  Elec       q    Type
REMARK                         _______ _______ _______ _____ _____    ______ ____
ROOT
ATOM      1  C   UNL     1       5.180   6.806  15.322  0.00  0.00    +0.000 C 
ATOM      2  C   UNL     1       5.460   5.700  16.370  0.00  0.00    +0.000 C 
ATOM      3  C   UNL     1       6.692   6.113  17.188  0.00  0.00    +0.000 C 
ATOM      4  C   UNL     1       6.569   5.363  18.499  0.00  0.00    +0.000 C 
ATOM      5  C   UNL     1       5.061   5.278  18.791  0.00  0.00    +0.000 C 
ATOM      6  C   UNL     1       4.312   5.572  17.442  0.00  0.00    +0.000 C 
ATOM      7  C   UNL     1       3.540   6.907  17.666  0.00  0.00    +0.000 C 
ATOM      8  C   UNL     1       3.231   4.559  17.002  0.00  0.00    +0.000 C 
ENDROOT
BRANCH   5   9
ATOM      9  C   UNL     1       4.726   3.940  19.442  0.00  0.00    +0.000 C 
ATOM     10  O   UNL     1       5.488   2.989  19.229  0.00  0.00    +0.000 OA
ATOM     11  N   UNL     1       3.583   3.844  20.219  0.00  0.00    +0.000 N 
ATOM     12  C   UNL     1       3.389   2.650  21.047  0.00  0.00    +0.000 C 
ATOM     13  C   UNL     1       1.963   2.117  20.929  0.00  0.00    +0.000 C 
ATOM     14  C   UNL     1       0.937   3.208  21.228  0.00  0.00    +0.000 C 
ATOM     15  C   UNL     1       1.184   4.428  20.352  0.00  0.00    +0.000 C 
ATOM     16  C   UNL     1       2.623   4.922  20.474  0.00  0.00    +0.000 C 
ENDBRANCH   5   9
BRANCH   2  17
ATOM     17  C   UNL     1       5.783   4.413  15.564  0.00  0.00    +0.000 C 
ATOM     18  O   UNL     1       5.761   4.369  14.341  0.00  0.00    +0.000 OA
BRANCH  17  19
ATOM     19  O   UNL     1       6.135   3.314  16.261  0.00  0.00    +0.000 OA
ATOM     20  H   UNL     1       6.415   2.494  15.794  0.00  0.00    +0.000 HD
ENDBRANCH  17  19
ENDBRANCH   2  17
TORSDOF 3
ENDMDL
MODEL 6
REMARK VINA RESULT:      -6.3      2.522      5.783
REMARK  Name = 
REMARK  6 active torsions:
REMARK  status: ('A' for Active; 'I' for Inactive)
REMARK    1  A    between atoms: C_1  and  C_2
REMARK    2  A    between atoms: C_2  and  C_3
REMARK    3  A    between atoms: C_3  and  O_5
REMARK    4  A    between atoms: C_8  and  C_9
REMARK    5  A    between atoms: C_17  and  C_18
REMARK    6  A    between atoms: C_17  and  C_19
REMARK                            x       y       z     vdW  Elec       q    Type
REMARK                         _______ _______ _______ _____ _____    ______ ____
ROOT
ATOM      1  C   UNL     1       7.080   6.891  17.436  0.00  0.00    +0.000 C 
ATOM      2  C   UNL     1       5.891   5.981  17.035  0.00  0.00    +0.000 C 
ATOM      3  C   UNL     1       6.434   4.834  16.171  0.00  0.00    +0.000 C 
ATOM      4  C   UNL     1       5.416   3.718  16.305  0.00  0.00    +0.000 C 
ATOM      5  C   UNL     1       4.871   3.823  17.740  0.00  0.00    +0.000 C 
ATOM      6  C   UNL     1       5.235   5.256  18.271  0.00  0.00    +0.000 C 
ATOM      7  C   UNL     1       6.236   5.034  19.444  0.00  0.00    +0.000 C 
ATOM      8  C   UNL     1       4.089   6.093  18.880  0.00  0.00    +0.000 C 
ENDROOT
BRANCH   5   9
ATOM      9  C   UNL     1       3.385   3.479  17.764  0.00  0.00    +0.000 C 
ATOM     10  O   UNL     1       2.729   3.689  16.736  0.00  0.00    +0.000 OA
ATOM     11  N   UNL     1       2.836   2.971  18.931  0.00  0.00    +0.000 N 
ATOM     12  C   UNL     1       1.486   2.405  18.888  0.00  0.00    +0.000 C 
ATOM     13  C   UNL     1       0.643   2.889  20.066  0.00  0.00    +0.000 C 
ATOM     14  C   UNL     1       1.345   2.625  21.396  0.00  0.00    +0.000 C 
ATOM     15  C   UNL     1       2.745   3.224  21.389  0.00  0.00    +0.000 C 
ATOM     16  C   UNL     1       3.553   2.739  20.188  0.00  0.00    +0.000 C 
ENDBRANCH   5   9
BRANCH   2  17
ATOM     17  C   UNL     1       4.940   6.864  16.182  0.00  0.00    +0.000 C 
ATOM     18  O   UNL     1       4.036   7.531  16.667  0.00  0.00    +0.000 OA
BRANCH  17  19
ATOM     19  O   UNL     1       5.160   6.911  14.853  0.00  0.00    +0.000 OA
ATOM     20  H   UNL     1       5.011   7.744  14.351  0.00  0.00    +0.000 HD
ENDBRANCH  17  19
ENDBRANCH   2  17
TORSDOF 3
ENDMDL
MODEL 7
REMARK VINA RESULT:      -6.2      2.306      5.817
REMARK  Name = 
REMARK  6 active torsions:
REMARK  status: ('A' for Active; 'I' for Inactive)
REMARK    1  A    between atoms: C_1  and  C_2
REMARK    2  A    between atoms: C_2  and  C_3
REMARK    3  A    between atoms: C_3  and  O_5
REMARK    4  A    between atoms: C_8  and  C_9
REMARK    5  A    between atoms: C_17  and  C_18
REMARK    6  A    between atoms: C_17  and  C_19
REMARK                            x       y       z     vdW  Elec       q    Type
REMARK                         _______ _______ _______ _____ _____    ______ ____
ROOT
ATOM      1  C   UNL     1       6.984   5.115  15.404  0.00  0.00    +0.000 C 
ATOM      2  C   UNL     1       6.110   5.745  16.519  0.00  0.00    +0.000 C 
ATOM      3  C   UNL     1       5.166   6.768  15.869  0.00  0.00    +0.000 C 
ATOM      4  C   UNL     1       4.001   6.898  16.829  0.00  0.00    +0.000 C 
ATOM      5  C   UNL     1       3.815   5.504  17.452  0.00  0.00    +0.000 C 
ATOM      6  C   UNL     1       5.142   4.703  17.195  0.00  0.00    +0.000 C 
ATOM      7  C   UNL     1       4.754   3.530  16.246  0.00  0.00    +0.000 C 
ATOM      8  C   UNL     1       5.800   4.022  18.417  0.00  0.00    +0.000 C 
ENDROOT
BRANCH   5   9
ATOM      9  C   UNL     1       3.406   5.632  18.916  0.00  0.00    +0.000 C 
ATOM     10  O   UNL     1       3.889   6.566  19.569  0.00  0.00    +0.000 OA
ATOM     11  N   UNL     1       2.537   4.695  19.451  0.00  0.00    +0.000 N 
ATOM     12  C   UNL     1       1.944   4.950  20.766  0.00  0.00    +0.000 C 
ATOM     13  C   UNL     1       1.999   3.708  21.651  0.00  0.00    +0.000 C 
ATOM     14  C   UNL     1       1.374   2.501  20.954  0.00  0.00    +0.000 C 
ATOM     15  C   UNL     1       2.016   2.282  19.590  0.00  0.00    +0.000 C 
ATOM     16  C   UNL     1       1.966   3.548  18.739  0.00  0.00    +0.000 C 
ENDBRANCH   5   9
BRANCH   2  17
ATOM     17  C   UNL     1       7.090   6.480  17.472  0.00  0.00    +0.000 C 
ATOM     18  O   UNL     1       7.599   5.945  18.449  0.00  0.00    +0.000 OA
BRANCH  17  19
ATOM     19  O   UNL     1       7.410   7.755  17.173  0.00  0.00    +0.000 OA
ATOM     20  H   UNL     1       8.290   7.974  16.789  0.00  0.00    +0.000 HD
ENDBRANCH  17  19
ENDBRANCH   2  17
TORSDOF 3
ENDMDL
MODEL 8
REMARK VINA RESULT:      -6.1      1.631      2.119
REMARK  Name = 
REMARK  6 active torsions:
REMARK  status: ('A' for Active; 'I' for Inactive)
REMARK    1  A    between atoms: C_1  and  C_2
REMARK    2  A    between atoms: C_2  and  C_3
REMARK    3  A    between atoms: C_3  and  O_5
REMARK    4  A    between atoms: C_8  and  C_9
REMARK    5  A    between atoms: C_17  and  C_18
REMARK    6  A    between atoms: C_17  and  C_19
REMARK                            x       y       z     vdW  Elec       q    Type
REMARK                         _______ _______ _______ _____ _____    ______ ____
ROOT
ATOM      1  C   UNL     1       1.384   5.391  21.151  0.00  0.00    +0.000 C 
ATOM      2  C   UNL     1       2.024   4.400  20.146  0.00  0.00    +0.000 C 
ATOM      3  C   UNL     1       0.904   3.798  19.285  0.00  0.00    +0.000 C 
ATOM      4  C   UNL     1       1.585   3.340  18.010  0.00  0.00    +0.000 C 
ATOM      5  C   UNL     1       2.714   4.353  17.754  0.00  0.00    +0.000 C 
ATOM      6  C   UNL     1       2.968   5.114  19.105  0.00  0.00    +0.000 C 
ATOM      7  C   UNL     1       2.567   6.596  18.840  0.00  0.00    +0.000 C 
ATOM      8  C   UNL     1       4.426   5.183  19.611  0.00  0.00    +0.000 C 
ENDROOT
BRANCH   5   9
ATOM      9  C   UNL     1       3.932   3.645  17.169  0.00  0.00    +0.000 C 
ATOM     10  O   UNL     1       4.032   2.426  17.352  0.00  0.00    +0.000 OA
ATOM     11  N   UNL     1       4.874   4.395  16.482  0.00  0.00    +0.000 N 
ATOM     12  C   UNL     1       5.903   3.698  15.706  0.00  0.00    +0.000 C 
ATOM     13  C   UNL     1       7.284   4.303  15.945  0.00  0.00    +0.000 C 
ATOM     14  C   UNL     1       7.282   5.809  15.692  0.00  0.00    +0.000 C 
ATOM     15  C   UNL     1       6.192   6.487  16.512  0.00  0.00    +0.000 C 
ATOM     16  C   UNL     1       4.829   5.844  16.269  0.00  0.00    +0.000 C 
ENDBRANCH   5   9
BRANCH   2  17
ATOM     17  C   UNL     1       2.678   3.281  20.999  0.00  0.00    +0.000 C 
ATOM     18  O   UNL     1       3.486   2.481  20.545  0.00  0.00    +0.000 OA
BRANCH  17  19
ATOM     19  O   UNL     1       2.355   3.226  22.306  0.00  0.00    +0.000 OA
ATOM     20  H   UNL     1       1.838   3.952  22.725  0.00  0.00    +0.000 HD
ENDBRANCH  17  19
ENDBRANCH   2  17
TORSDOF 3
ENDMDL
MODEL 9
REMARK VINA RESULT:      -6.0      2.054      3.152
REMARK  Name = 
REMARK  6 active torsions:
REMARK  status: ('A' for Active; 'I' for Inactive)
REMARK    1  A    between atoms: C_1  and  C_2
REMARK    2  A    between atoms: C_2  and  C_3
REMARK    3  A    between atoms: C_3  and  O_5
REMARK    4  A    between atoms: C_8  and  C_9
REMARK    5  A    between atoms: C_17  and  C_18
REMARK    6  A    between atoms: C_17  and  C_19
REMARK                            x       y       z     vdW  Elec       q    Type
REMARK                         _______ _______ _______ _____ _____    ______ ____
ROOT
ATOM      1  C   UNL     1       2.087   2.112  21.020  0.00  0.00    +0.000 C 
ATOM      2  C   UNL     1       2.116   3.335  20.069  0.00  0.00    +0.000 C 
ATOM      3  C   UNL     1       2.022   4.609  20.923  0.00  0.00    +0.000 C 
ATOM      4  C   UNL     1       2.629   5.705  20.070  0.00  0.00    +0.000 C 
ATOM      5  C   UNL     1       3.750   5.031  19.260  0.00  0.00    +0.000 C 
ATOM      6  C   UNL     1       3.489   3.483  19.309  0.00  0.00    +0.000 C 
ATOM      7  C   UNL     1       4.687   2.874  20.097  0.00  0.00    +0.000 C 
ATOM      8  C   UNL     1       3.477   2.728  17.961  0.00  0.00    +0.000 C 
ENDROOT
BRANCH   5   9
ATOM      9  C   UNL     1       3.823   5.634  17.861  0.00  0.00    +0.000 C 
ATOM     10  O   UNL     1       2.783   6.098  17.379  0.00  0.00    +0.000 OA
ATOM     11  N   UNL     1       5.035   5.616  17.189  0.00  0.00    +0.000 N 
ATOM     12  C   UNL     1       5.177   6.410  15.966  0.00  0.00    +0.000 C 
ATOM     13  C   UNL     1       5.865   5.611  14.862  0.00  0.00    +0.000 C 
ATOM     14  C   UNL     1       7.196   5.034  15.341  0.00  0.00    +0.000 C 
ATOM     15  C   UNL     1       6.999   4.227  16.617  0.00  0.00    +0.000 C 
ATOM     16  C   UNL     1       6.288   5.045  17.692  0.00  0.00    +0.000 C 
ENDBRANCH   5   9
BRANCH   2  17
ATOM     17  C   UNL     1       0.854   3.218  19.175  0.00  0.00    +0.000 C 
ATOM     18  O   UNL     1       0.789   3.690  18.047  0.00  0.00    +0.000 OA
BRANCH  17  19
ATOM     19  O   UNL     1      -0.197   2.532  19.667  0.00  0.00    +0.000 OA
ATOM     20  H   UNL     1      -0.787   2.938  20.343  0.00  0.00    +0.000 HD
ENDBRANCH  17  19
ENDBRANCH   2  17
TORSDOF 3
ENDMDL
