MODEL 1
REMARK VINA RESULT:      -8.7      0.000      0.000
REMARK  Name = 
REMARK  4 active torsions:
REMARK  status: ('A' for Active; 'I' for Inactive)
REMARK    1  A    between atoms: C_1  and  C_2
REMARK    2  A    between atoms: C_4  and  C_5
REMARK    3  A    between atoms: C_10  and  C_12
REMARK    4  A    between atoms: C_15  and  N_16
REMARK                            x       y       z     vdW  Elec       q    Type
REMARK                         _______ _______ _______ _____ _____    ______ ____
ROOT
ATOM      1  C   UNL     1       6.330   4.182  15.113  0.00  0.00    +0.000 C 
ATOM      2  C   UNL     1       5.238   4.485  16.097  0.00  0.00    +0.000 A 
ATOM      3  C   UNL     1       4.497   3.442  16.659  0.00  0.00    +0.000 A 
ATOM      4  C   UNL     1       3.468   3.678  17.582  0.00  0.00    +0.000 A 
ATOM      5  C   UNL     1       2.686   2.551  18.189  0.00  0.00    +0.000 C 
ATOM      6  C   UNL     1       3.222   5.023  17.919  0.00  0.00    +0.000 A 
ATOM      7  S   UNL     1       2.045   5.622  19.001  0.00  0.00    +0.000 S 
ATOM      8  C   UNL     1       2.622   7.204  18.779  0.00  0.00    +0.000 A 
ATOM      9  N   UNL     1       2.053   8.252  19.469  0.00  0.00    +0.000 N 
ATOM     10  C   UNL     1       1.287   8.091  20.608  0.00  0.00    +0.000 C 
ATOM     11  O   UNL     1       1.129   7.053  21.244  0.00  0.00    +0.000 OA
ATOM     12  N   UNL     1       3.549   7.354  17.861  0.00  0.00    +0.000 NA
ATOM     13  C   UNL     1       3.938   6.097  17.391  0.00  0.00    +0.000 A 
ATOM     14  C   UNL     1       4.963   5.818  16.462  0.00  0.00    +0.000 A 
ATOM     15  H   UNL     1       2.288   9.161  19.105  0.00  0.00    +0.000 HD
ENDROOT
BRANCH  10  16
ATOM     16  C   UNL     1       0.579   9.284  21.130  0.00  0.00    +0.000 A 
ATOM     17  C   UNL     1       0.223   9.268  22.483  0.00  0.00    +0.000 A 
ATOM     18  C   UNL     1      -0.419  10.358  23.067  0.00  0.00    +0.000 A 
ATOM     19  C   UNL     1      -0.733  11.498  22.317  0.00  0.00    +0.000 A 
ATOM     20  C   UNL     1      -0.366  11.498  20.958  0.00  0.00    +0.000 A 
ATOM     21  C   UNL     1       0.287  10.409  20.363  0.00  0.00    +0.000 A 
BRANCH  19  22
ATOM     22  N   UNL     1      -1.390  12.617  22.914  0.00  0.00    +0.000 N 
ATOM     23  C   UNL     1      -0.813  13.858  23.088  0.00  0.00    +0.000 C 
ATOM     24  O   UNL     1       0.296  14.254  22.764  0.00  0.00    +0.000 OA
ATOM     25  C   UNL     1      -1.803  14.776  23.734  0.00  0.00    +0.000 C 
ATOM     26  C   UNL     1      -3.029  13.931  23.958  0.00  0.00    +0.000 C 
ATOM     27  C   UNL     1      -2.676  12.585  23.403  0.00  0.00    +0.000 C 
ATOM     28  O   UNL     1      -3.461  11.647  23.463  0.00  0.00    +0.000 OA
ENDBRANCH  19  22
ENDBRANCH  10  16
TORSDOF 2
ENDMDL
MODEL 2
REMARK VINA RESULT:      -8.6      1.020      1.691
REMARK  Name = 
REMARK  4 active torsions:
REMARK  status: ('A' for Active; 'I' for Inactive)
REMARK    1  A    between atoms: C_1  and  C_2
REMARK    2  A    between atoms: C_4  and  C_5
REMARK    3  A    between atoms: C_10  and  C_12
REMARK    4  A    between atoms: C_15  and  N_16
REMARK                            x       y       z     vdW  Elec       q    Type
REMARK                         _______ _______ _______ _____ _____    ______ ____
ROOT
ATOM      1  C   UNL     1       6.098   5.081  15.177  0.00  0.00    +0.000 C 
ATOM      2  C   UNL     1       5.122   5.320  16.292  0.00  0.00    +0.000 A 
ATOM      3  C   UNL     1       4.768   4.273  17.146  0.00  0.00    +0.000 A 
ATOM      4  C   UNL     1       3.860   4.450  18.200  0.00  0.00    +0.000 A 
ATOM      5  C   UNL     1       3.496   3.322  19.119  0.00  0.00    +0.000 C 
ATOM      6  C   UNL     1       3.325   5.743  18.358  0.00  0.00    +0.000 A 
ATOM      7  S   UNL     1       2.206   6.265  19.536  0.00  0.00    +0.000 S 
ATOM      8  C   UNL     1       2.312   7.858  18.956  0.00  0.00    +0.000 A 
ATOM      9  N   UNL     1       1.598   8.866  19.566  0.00  0.00    +0.000 N 
ATOM     10  C   UNL     1       1.076   8.770  20.842  0.00  0.00    +0.000 C 
ATOM     11  O   UNL     1       1.288   7.875  21.654  0.00  0.00    +0.000 OA
ATOM     12  N   UNL     1       3.023   8.026  17.865  0.00  0.00    +0.000 NA
ATOM     13  C   UNL     1       3.652   6.822  17.537  0.00  0.00    +0.000 A 
ATOM     14  C   UNL     1       4.566   6.601  16.484  0.00  0.00    +0.000 A 
ATOM     15  H   UNL     1       1.532   9.712  19.021  0.00  0.00    +0.000 HD
ENDROOT
BRANCH  10  16
ATOM     16  C   UNL     1       0.167   9.850  21.292  0.00  0.00    +0.000 A 
ATOM     17  C   UNL     1      -0.300   9.778  22.608  0.00  0.00    +0.000 A 
ATOM     18  C   UNL     1      -1.135  10.766  23.128  0.00  0.00    +0.000 A 
ATOM     19  C   UNL     1      -1.537  11.855  22.345  0.00  0.00    +0.000 A 
ATOM     20  C   UNL     1      -1.057  11.913  21.023  0.00  0.00    +0.000 A 
ATOM     21  C   UNL     1      -0.210  10.929  20.495  0.00  0.00    +0.000 A 
BRANCH  19  22
ATOM     22  N   UNL     1      -2.392  12.869  22.875  0.00  0.00    +0.000 N 
ATOM     23  C   UNL     1      -3.745  12.959  22.621  0.00  0.00    +0.000 C 
ATOM     24  O   UNL     1      -4.464  12.226  21.959  0.00  0.00    +0.000 OA
ATOM     25  C   UNL     1      -4.308  14.137  23.354  0.00  0.00    +0.000 C 
ATOM     26  C   UNL     1      -3.127  14.762  24.050  0.00  0.00    +0.000 C 
ATOM     27  C   UNL     1      -1.964  13.889  23.694  0.00  0.00    +0.000 C 
ATOM     28  O   UNL     1      -0.832  14.150  24.081  0.00  0.00    +0.000 OA
ENDBRANCH  19  22
ENDBRANCH  10  16
TORSDOF 2
ENDMDL
MODEL 3
REMARK VINA RESULT:      -8.3      0.722      1.797
REMARK  Name = 
REMARK  4 active torsions:
REMARK  status: ('A' for Active; 'I' for Inactive)
REMARK    1  A    between atoms: C_1  and  C_2
REMARK    2  A    between atoms: C_4  and  C_5
REMARK    3  A    between atoms: C_10  and  C_12
REMARK    4  A    between atoms: C_15  and  N_16
REMARK                            x       y       z     vdW  Elec       q    Type
REMARK                         _______ _______ _______ _____ _____    ______ ____
ROOT
ATOM      1  C   UNL     1       6.487   4.657  15.170  0.00  0.00    +0.000 C 
ATOM      2  C   UNL     1       5.391   4.892  16.168  0.00  0.00    +0.000 A 
ATOM      3  C   UNL     1       4.754   3.806  16.775  0.00  0.00    +0.000 A 
ATOM      4  C   UNL     1       3.726   3.979  17.713  0.00  0.00    +0.000 A 
ATOM      5  C   UNL     1       3.058   2.806  18.368  0.00  0.00    +0.000 C 
ATOM      6  C   UNL     1       3.369   5.307  18.016  0.00  0.00    +0.000 A 
ATOM      7  S   UNL     1       2.165   5.833  19.106  0.00  0.00    +0.000 S 
ATOM      8  C   UNL     1       2.595   7.452  18.826  0.00  0.00    +0.000 A 
ATOM      9  N   UNL     1       1.949   8.466  19.499  0.00  0.00    +0.000 N 
ATOM     10  C   UNL     1       1.223   8.274  20.658  0.00  0.00    +0.000 C 
ATOM     11  O   UNL     1       1.168   7.246  21.326  0.00  0.00    +0.000 OA
ATOM     12  N   UNL     1       3.488   7.655  17.885  0.00  0.00    +0.000 NA
ATOM     13  C   UNL     1       3.977   6.423  17.443  0.00  0.00    +0.000 A 
ATOM     14  C   UNL     1       5.006   6.207  16.500  0.00  0.00    +0.000 A 
ATOM     15  H   UNL     1       2.096   9.382  19.103  0.00  0.00    +0.000 HD
ENDROOT
BRANCH  10  16
ATOM     16  C   UNL     1       0.422   9.415  21.160  0.00  0.00    +0.000 A 
ATOM     17  C   UNL     1       0.032  10.377  20.223  0.00  0.00    +0.000 A 
ATOM     18  C   UNL     1      -0.748  11.470  20.599  0.00  0.00    +0.000 A 
ATOM     19  C   UNL     1      -1.158  11.640  21.927  0.00  0.00    +0.000 A 
ATOM     20  C   UNL     1      -0.759  10.662  22.856  0.00  0.00    +0.000 A 
ATOM     21  C   UNL     1       0.019   9.556  22.486  0.00  0.00    +0.000 A 
BRANCH  19  22
ATOM     22  N   UNL     1      -1.959  12.758  22.314  0.00  0.00    +0.000 N 
ATOM     23  C   UNL     1      -3.319  12.850  22.109  0.00  0.00    +0.000 C 
ATOM     24  O   UNL     1      -4.090  12.041  21.616  0.00  0.00    +0.000 OA
ATOM     25  C   UNL     1      -3.813  14.154  22.654  0.00  0.00    +0.000 C 
ATOM     26  C   UNL     1      -2.583  14.847  23.179  0.00  0.00    +0.000 C 
ATOM     27  C   UNL     1      -1.462  13.887  22.926  0.00  0.00    +0.000 C 
ATOM     28  O   UNL     1      -0.306  14.170  23.211  0.00  0.00    +0.000 OA
ENDBRANCH  19  22
ENDBRANCH  10  16
TORSDOF 2
ENDMDL
MODEL 4
REMARK VINA RESULT:      -8.3      1.420      2.341
REMARK  Name = 
REMARK  4 active torsions:
REMARK  status: ('A' for Active; 'I' for Inactive)
REMARK    1  A    between atoms: C_1  and  C_2
REMARK    2  A    between atoms: C_4  and  C_5
REMARK    3  A    between atoms: C_10  and  C_12
REMARK    4  A    between atoms: C_15  and  N_16
REMARK                            x       y       z     vdW  Elec       q    Type
REMARK                         _______ _______ _______ _____ _____    ______ ____
ROOT
ATOM      1  C   UNL     1       3.926   1.413  18.411  0.00  0.00    +0.000 C 
ATOM      2  C   UNL     1       3.693   2.895  18.446  0.00  0.00    +0.000 A 
ATOM      3  C   UNL     1       4.320   3.722  17.510  0.00  0.00    +0.000 A 
ATOM      4  C   UNL     1       4.131   5.112  17.505  0.00  0.00    +0.000 A 
ATOM      5  C   UNL     1       4.799   5.990  16.488  0.00  0.00    +0.000 C 
ATOM      6  C   UNL     1       3.273   5.633  18.492  0.00  0.00    +0.000 A 
ATOM      7  S   UNL     1       2.851   7.269  18.741  0.00  0.00    +0.000 S 
ATOM      8  C   UNL     1       1.785   6.822  19.985  0.00  0.00    +0.000 A 
ATOM      9  N   UNL     1       1.040   7.782  20.636  0.00  0.00    +0.000 N 
ATOM     10  C   UNL     1       0.806   9.045  20.126  0.00  0.00    +0.000 C 
ATOM     11  O   UNL     1       1.082   9.441  18.997  0.00  0.00    +0.000 OA
ATOM     12  N   UNL     1       1.801   5.555  20.329  0.00  0.00    +0.000 NA
ATOM     13  C   UNL     1       2.620   4.850  19.443  0.00  0.00    +0.000 A 
ATOM     14  C   UNL     1       2.839   3.455  19.417  0.00  0.00    +0.000 A 
ATOM     15  H   UNL     1       0.627   7.467  21.499  0.00  0.00    +0.000 HD
ENDROOT
BRANCH  10  16
ATOM     16  C   UNL     1       0.158  10.033  21.019  0.00  0.00    +0.000 A 
ATOM     17  C   UNL     1      -0.229  11.248  20.444  0.00  0.00    +0.000 A 
ATOM     18  C   UNL     1      -0.873  12.226  21.201  0.00  0.00    +0.000 A 
ATOM     19  C   UNL     1      -1.147  12.023  22.559  0.00  0.00    +0.000 A 
ATOM     20  C   UNL     1      -0.753  10.794  23.121  0.00  0.00    +0.000 A 
ATOM     21  C   UNL     1      -0.112   9.802  22.366  0.00  0.00    +0.000 A 
BRANCH  19  22
ATOM     22  N   UNL     1      -1.808  13.023  23.336  0.00  0.00    +0.000 N 
ATOM     23  C   UNL     1      -1.255  14.241  23.672  0.00  0.00    +0.000 C 
ATOM     24  O   UNL     1      -0.168  14.712  23.374  0.00  0.00    +0.000 OA
ATOM     25  C   UNL     1      -2.243  15.026  24.478  0.00  0.00    +0.000 C 
ATOM     26  C   UNL     1      -3.439  14.121  24.614  0.00  0.00    +0.000 C 
ATOM     27  C   UNL     1      -3.075  12.883  23.856  0.00  0.00    +0.000 C 
ATOM     28  O   UNL     1      -3.834  11.924  23.803  0.00  0.00    +0.000 OA
ENDBRANCH  19  22
ENDBRANCH  10  16
TORSDOF 2
ENDMDL
MODEL 5
REMARK VINA RESULT:      -8.3      1.168      1.490
REMARK  Name = 
REMARK  4 active torsions:
REMARK  status: ('A' for Active; 'I' for Inactive)
REMARK    1  A    between atoms: C_1  and  C_2
REMARK    2  A    between atoms: C_4  and  C_5
REMARK    3  A    between atoms: C_10  and  C_12
REMARK    4  A    between atoms: C_15  and  N_16
REMARK                            x       y       z     vdW  Elec       q    Type
REMARK                         _______ _______ _______ _____ _____    ______ ____
ROOT
ATOM      1  C   UNL     1       6.817   4.600  14.795  0.00  0.00    +0.000 C 
ATOM      2  C   UNL     1       5.708   4.825  15.781  0.00  0.00    +0.000 A 
ATOM      3  C   UNL     1       5.091   3.734  16.398  0.00  0.00    +0.000 A 
ATOM      4  C   UNL     1       4.051   3.898  17.325  0.00  0.00    +0.000 A 
ATOM      5  C   UNL     1       3.404   2.720  17.992  0.00  0.00    +0.000 C 
ATOM      6  C   UNL     1       3.662   5.221  17.606  0.00  0.00    +0.000 A 
ATOM      7  S   UNL     1       2.437   5.737  18.678  0.00  0.00    +0.000 S 
ATOM      8  C   UNL     1       2.834   7.361  18.377  0.00  0.00    +0.000 A 
ATOM      9  N   UNL     1       2.160   8.370  19.030  0.00  0.00    +0.000 N 
ATOM     10  C   UNL     1       1.428   8.179  20.186  0.00  0.00    +0.000 C 
ATOM     11  O   UNL     1       1.391   7.159  20.869  0.00  0.00    +0.000 OA
ATOM     12  N   UNL     1       3.730   7.570  17.441  0.00  0.00    +0.000 NA
ATOM     13  C   UNL     1       4.250   6.342  17.021  0.00  0.00    +0.000 A 
ATOM     14  C   UNL     1       5.291   6.136  16.090  0.00  0.00    +0.000 A 
ATOM     15  H   UNL     1       2.290   9.282  18.622  0.00  0.00    +0.000 HD
ENDROOT
BRANCH  10  16
ATOM     16  C   UNL     1       0.598   9.308  20.664  0.00  0.00    +0.000 A 
ATOM     17  C   UNL     1       0.174  10.235  19.706  0.00  0.00    +0.000 A 
ATOM     18  C   UNL     1      -0.635  11.314  20.059  0.00  0.00    +0.000 A 
ATOM     19  C   UNL     1      -1.041  11.506  21.385  0.00  0.00    +0.000 A 
ATOM     20  C   UNL     1      -0.608  10.564  22.337  0.00  0.00    +0.000 A 
ATOM     21  C   UNL     1       0.199   9.471  21.989  0.00  0.00    +0.000 A 
BRANCH  19  22
ATOM     22  N   UNL     1      -1.871  12.610  21.750  0.00  0.00    +0.000 N 
ATOM     23  C   UNL     1      -1.623  13.455  22.811  0.00  0.00    +0.000 C 
ATOM     24  O   UNL     1      -0.688  13.464  23.598  0.00  0.00    +0.000 OA
ATOM     25  C   UNL     1      -2.697  14.495  22.876  0.00  0.00    +0.000 C 
ATOM     26  C   UNL     1      -3.637  14.154  21.750  0.00  0.00    +0.000 C 
ATOM     27  C   UNL     1      -3.031  12.953  21.092  0.00  0.00    +0.000 C 
ATOM     28  O   UNL     1      -3.580  12.401  20.147  0.00  0.00    +0.000 OA
ENDBRANCH  19  22
ENDBRANCH  10  16
TORSDOF 2
ENDMDL
MODEL 6
REMARK VINA RESULT:      -8.1      1.643      2.927
REMARK  Name = 
REMARK  4 active torsions:
REMARK  status: ('A' for Active; 'I' for Inactive)
REMARK    1  A    between atoms: C_1  and  C_2
REMARK    2  A    between atoms: C_4  and  C_5
REMARK    3  A    between atoms: C_10  and  C_12
REMARK    4  A    between atoms: C_15  and  N_16
REMARK                            x       y       z     vdW  Elec       q    Type
REMARK                         _______ _______ _______ _____ _____    ______ ____
ROOT
ATOM      1  C   UNL     1       4.324   1.687  19.300  0.00  0.00    +0.000 C 
ATOM      2  C   UNL     1       3.937   3.133  19.185  0.00  0.00    +0.000 A 
ATOM      3  C   UNL     1       4.437   3.908  18.135  0.00  0.00    +0.000 A 
ATOM      4  C   UNL     1       4.102   5.262  17.989  0.00  0.00    +0.000 A 
ATOM      5  C   UNL     1       4.636   6.082  16.851  0.00  0.00    +0.000 C 
ATOM      6  C   UNL     1       3.230   5.802  18.953  0.00  0.00    +0.000 A 
ATOM      7  S   UNL     1       2.647   7.403  19.043  0.00  0.00    +0.000 S 
ATOM      8  C   UNL     1       1.681   6.995  20.379  0.00  0.00    +0.000 A 
ATOM      9  N   UNL     1       0.863   7.941  20.956  0.00  0.00    +0.000 N 
ATOM     10  C   UNL     1       0.477   9.108  20.324  0.00  0.00    +0.000 C 
ATOM     11  O   UNL     1       0.667   9.400  19.147  0.00  0.00    +0.000 OA
ATOM     12  N   UNL     1       1.843   5.783  20.856  0.00  0.00    +0.000 NA
ATOM     13  C   UNL     1       2.700   5.069  20.014  0.00  0.00    +0.000 A 
ATOM     14  C   UNL     1       3.065   3.710  20.130  0.00  0.00    +0.000 A 
ATOM     15  H   UNL     1       0.518   7.686  21.868  0.00  0.00    +0.000 HD
ENDROOT
BRANCH  10  16
ATOM     16  C   UNL     1      -0.240  10.120  21.134  0.00  0.00    +0.000 A 
ATOM     17  C   UNL     1      -0.774  11.217  20.450  0.00  0.00    +0.000 A 
ATOM     18  C   UNL     1      -1.491  12.203  21.126  0.00  0.00    +0.000 A 
ATOM     19  C   UNL     1      -1.690  12.129  22.510  0.00  0.00    +0.000 A 
ATOM     20  C   UNL     1      -1.147  11.018  23.182  0.00  0.00    +0.000 A 
ATOM     21  C   UNL     1      -0.432  10.017  22.510  0.00  0.00    +0.000 A 
BRANCH  19  22
ATOM     22  N   UNL     1      -2.425  13.138  23.205  0.00  0.00    +0.000 N 
ATOM     23  C   UNL     1      -3.800  13.166  23.312  0.00  0.00    +0.000 C 
ATOM     24  O   UNL     1      -4.631  12.374  22.894  0.00  0.00    +0.000 OA
ATOM     25  C   UNL     1      -4.208  14.360  24.118  0.00  0.00    +0.000 C 
ATOM     26  C   UNL     1      -2.918  15.063  24.451  0.00  0.00    +0.000 C 
ATOM     27  C   UNL     1      -1.847  14.215  23.839  0.00  0.00    +0.000 C 
ATOM     28  O   UNL     1      -0.667  14.536  23.902  0.00  0.00    +0.000 OA
ENDBRANCH  19  22
ENDBRANCH  10  16
TORSDOF 2
ENDMDL
MODEL 7
REMARK VINA RESULT:      -8.0      1.449      2.038
REMARK  Name = 
REMARK  4 active torsions:
REMARK  status: ('A' for Active; 'I' for Inactive)
REMARK    1  A    between atoms: C_1  and  C_2
REMARK    2  A    between atoms: C_4  and  C_5
REMARK    3  A    between atoms: C_10  and  C_12
REMARK    4  A    between atoms: C_15  and  N_16
REMARK                            x       y       z     vdW  Elec       q    Type
REMARK                         _______ _______ _______ _____ _____    ______ ____
ROOT
ATOM      1  C   UNL     1       6.644   4.717  15.307  0.00  0.00    +0.000 C 
ATOM      2  C   UNL     1       5.591   5.052  16.324  0.00  0.00    +0.000 A 
ATOM      3  C   UNL     1       5.211   4.100  17.274  0.00  0.00    +0.000 A 
ATOM      4  C   UNL     1       4.232   4.369  18.241  0.00  0.00    +0.000 A 
ATOM      5  C   UNL     1       3.840   3.343  19.264  0.00  0.00    +0.000 C 
ATOM      6  C   UNL     1       3.653   5.652  18.211  0.00  0.00    +0.000 A 
ATOM      7  S   UNL     1       2.446   6.270  19.248  0.00  0.00    +0.000 S 
ATOM      8  C   UNL     1       2.546   7.786  18.489  0.00  0.00    +0.000 A 
ATOM      9  N   UNL     1       1.767   8.833  18.930  0.00  0.00    +0.000 N 
ATOM     10  C   UNL     1       1.167   8.870  20.174  0.00  0.00    +0.000 C 
ATOM     11  O   UNL     1       1.350   8.084  21.099  0.00  0.00    +0.000 OA
ATOM     12  N   UNL     1       3.322   7.849  17.432  0.00  0.00    +0.000 NA
ATOM     13  C   UNL     1       4.003   6.637  17.289  0.00  0.00    +0.000 A 
ATOM     14  C   UNL     1       4.989   6.326  16.327  0.00  0.00    +0.000 A 
ATOM     15  H   UNL     1       1.714   9.606  18.286  0.00  0.00    +0.000 HD
ENDROOT
BRANCH  10  16
ATOM     16  C   UNL     1       0.202   9.963  20.435  0.00  0.00    +0.000 A 
ATOM     17  C   UNL     1       0.327  10.641  21.653  0.00  0.00    +0.000 A 
ATOM     18  C   UNL     1      -0.518  11.703  21.972  0.00  0.00    +0.000 A 
ATOM     19  C   UNL     1      -1.521  12.118  21.086  0.00  0.00    +0.000 A 
ATOM     20  C   UNL     1      -1.631  11.426  19.866  0.00  0.00    +0.000 A 
ATOM     21  C   UNL     1      -0.781  10.362  19.533  0.00  0.00    +0.000 A 
BRANCH  19  22
ATOM     22  N   UNL     1      -2.387  13.206  21.411  0.00  0.00    +0.000 N 
ATOM     23  C   UNL     1      -3.489  13.107  22.234  0.00  0.00    +0.000 C 
ATOM     24  O   UNL     1      -3.918  12.142  22.849  0.00  0.00    +0.000 OA
ATOM     25  C   UNL     1      -4.142  14.449  22.349  0.00  0.00    +0.000 C 
ATOM     26  C   UNL     1      -3.322  15.357  21.471  0.00  0.00    +0.000 C 
ATOM     27  C   UNL     1      -2.233  14.485  20.926  0.00  0.00    +0.000 C 
ATOM     28  O   UNL     1      -1.404  14.921  20.137  0.00  0.00    +0.000 OA
ENDBRANCH  19  22
ENDBRANCH  10  16
TORSDOF 2
ENDMDL
MODEL 8
REMARK VINA RESULT:      -7.9      1.358      1.687
REMARK  Name = 
REMARK  4 active torsions:
REMARK  status: ('A' for Active; 'I' for Inactive)
REMARK    1  A    between atoms: C_1  and  C_2
REMARK    2  A    between atoms: C_4  and  C_5
REMARK    3  A    between atoms: C_10  and  C_12
REMARK    4  A    between atoms: C_15  and  N_16
REMARK                            x       y       z     vdW  Elec       q    Type
REMARK                         _______ _______ _______ _____ _____    ______ ____
ROOT
ATOM      1  C   UNL     1       5.821   4.219  15.933  0.00  0.00    +0.000 C 
ATOM      2  C   UNL     1       4.860   4.647  17.004  0.00  0.00    +0.000 A 
ATOM      3  C   UNL     1       4.481   3.746  18.002  0.00  0.00    +0.000 A 
ATOM      4  C   UNL     1       3.587   4.102  19.022  0.00  0.00    +0.000 A 
ATOM      5  C   UNL     1       3.196   3.130  20.096  0.00  0.00    +0.000 C 
ATOM      6  C   UNL     1       3.092   5.420  18.992  0.00  0.00    +0.000 A 
ATOM      7  S   UNL     1       1.998   6.142  20.085  0.00  0.00    +0.000 S 
ATOM      8  C   UNL     1       2.148   7.630  19.280  0.00  0.00    +0.000 A 
ATOM      9  N   UNL     1       1.469   8.737  19.739  0.00  0.00    +0.000 N 
ATOM     10  C   UNL     1       0.954   8.843  21.017  0.00  0.00    +0.000 C 
ATOM     11  O   UNL     1       1.145   8.069  21.950  0.00  0.00    +0.000 OA
ATOM     12  N   UNL     1       2.855   7.616  18.174  0.00  0.00    +0.000 NA
ATOM     13  C   UNL     1       3.445   6.358  18.022  0.00  0.00    +0.000 A 
ATOM     14  C   UNL     1       4.345   5.959  17.010  0.00  0.00    +0.000 A 
ATOM     15  H   UNL     1       1.424   9.496  19.078  0.00  0.00    +0.000 HD
ENDROOT
BRANCH  10  16
ATOM     16  C   UNL     1       0.081  10.004  21.308  0.00  0.00    +0.000 A 
ATOM     17  C   UNL     1      -0.328  10.779  20.218  0.00  0.00    +0.000 A 
ATOM     18  C   UNL     1      -1.174  11.873  20.393  0.00  0.00    +0.000 A 
ATOM     19  C   UNL     1      -1.634  12.233  21.666  0.00  0.00    +0.000 A 
ATOM     20  C   UNL     1      -1.214  11.442  22.751  0.00  0.00    +0.000 A 
ATOM     21  C   UNL     1      -0.370  10.335  22.584  0.00  0.00    +0.000 A 
BRANCH  19  22
ATOM     22  N   UNL     1      -2.502  13.353  21.847  0.00  0.00    +0.000 N 
ATOM     23  C   UNL     1      -2.078  14.663  21.918  0.00  0.00    +0.000 C 
ATOM     24  O   UNL     1      -0.952  15.125  21.818  0.00  0.00    +0.000 OA
ATOM     25  C   UNL     1      -3.266  15.556  22.100  0.00  0.00    +0.000 C 
ATOM     26  C   UNL     1      -4.447  14.624  22.163  0.00  0.00    +0.000 C 
ATOM     27  C   UNL     1      -3.868  13.255  21.988  0.00  0.00    +0.000 C 
ATOM     28  O   UNL     1      -4.574  12.256  22.027  0.00  0.00    +0.000 OA
ENDBRANCH  19  22
ENDBRANCH  10  16
TORSDOF 2
ENDMDL
MODEL 9
REMARK VINA RESULT:      -7.9      3.464      9.991
REMARK  Name = 
REMARK  4 active torsions:
REMARK  status: ('A' for Active; 'I' for Inactive)
REMARK    1  A    between atoms: C_1  and  C_2
REMARK    2  A    between atoms: C_4  and  C_5
REMARK    3  A    between atoms: C_10  and  C_12
REMARK    4  A    between atoms: C_15  and  N_16
REMARK                            x       y       z     vdW  Elec       q    Type
REMARK                         _______ _______ _______ _____ _____    ______ ____
ROOT
ATOM      1  C   UNL     1      -1.056  18.424  18.657  0.00  0.00    +0.000 C 
ATOM      2  C   UNL     1      -0.625  17.132  19.289  0.00  0.00    +0.000 A 
ATOM      3  C   UNL     1      -0.532  17.033  20.679  0.00  0.00    +0.000 A 
ATOM      4  C   UNL     1      -0.133  15.846  21.312  0.00  0.00    +0.000 A 
ATOM      5  C   UNL     1      -0.048  15.746  22.807  0.00  0.00    +0.000 C 
ATOM      6  C   UNL     1       0.165  14.755  20.473  0.00  0.00    +0.000 A 
ATOM      7  S   UNL     1       0.673  13.195  20.943  0.00  0.00    +0.000 S 
ATOM      8  C   UNL     1       0.644  12.680  19.324  0.00  0.00    +0.000 A 
ATOM      9  N   UNL     1       0.957  11.376  19.007  0.00  0.00    +0.000 N 
ATOM     10  C   UNL     1       0.942  10.341  19.922  0.00  0.00    +0.000 C 
ATOM     11  O   UNL     1       0.519  10.388  21.074  0.00  0.00    +0.000 OA
ATOM     12  N   UNL     1       0.405  13.611  18.429  0.00  0.00    +0.000 NA
ATOM     13  C   UNL     1       0.080  14.803  19.082  0.00  0.00    +0.000 A 
ATOM     14  C   UNL     1      -0.320  16.017  18.483  0.00  0.00    +0.000 A 
ATOM     15  H   UNL     1       1.146  11.225  18.029  0.00  0.00    +0.000 HD
ENDROOT
BRANCH  10  16
ATOM     16  C   UNL     1       1.488   9.035  19.486  0.00  0.00    +0.000 A 
ATOM     17  C   UNL     1       1.584   8.033  20.457  0.00  0.00    +0.000 A 
ATOM     18  C   UNL     1       2.058   6.763  20.132  0.00  0.00    +0.000 A 
ATOM     19  C   UNL     1       2.459   6.456  18.825  0.00  0.00    +0.000 A 
ATOM     20  C   UNL     1       2.355   7.475  17.861  0.00  0.00    +0.000 A 
ATOM     21  C   UNL     1       1.872   8.753  18.177  0.00  0.00    +0.000 A 
BRANCH  19  22
ATOM     22  N   UNL     1       2.944   5.155  18.489  0.00  0.00    +0.000 N 
ATOM     23  C   UNL     1       4.200   4.684  18.810  0.00  0.00    +0.000 C 
ATOM     24  O   UNL     1       5.099   5.226  19.435  0.00  0.00    +0.000 OA
ATOM     25  C   UNL     1       4.346   3.282  18.307  0.00  0.00    +0.000 C 
ATOM     26  C   UNL     1       3.041   2.979  17.617  0.00  0.00    +0.000 C 
ATOM     27  C   UNL     1       2.218   4.218  17.789  0.00  0.00    +0.000 C 
ATOM     28  O   UNL     1       1.097   4.309  17.305  0.00  0.00    +0.000 OA
ENDBRANCH  19  22
ENDBRANCH  10  16
TORSDOF 2
ENDMDL
