MODEL 1
REMARK VINA RESULT:      -8.1      0.000      0.000
REMARK  Name = 
REMARK  1 active torsions:
REMARK  status: ('A' for Active; 'I' for Inactive)
REMARK    1  A    between atoms: C_13  and  C_14
REMARK                            x       y       z     vdW  Elec       q    Type
REMARK                         _______ _______ _______ _____ _____    ______ ____
ROOT
ATOM      1  O   UNL     1       2.280   7.331  19.377  0.00  0.00    +0.000 OA
ATOM      2  C   UNL     1       2.653   6.186  19.164  0.00  0.00    +0.000 C 
ATOM      3  O   UNL     1       1.820   5.131  19.268  0.00  0.00    +0.000 OA
ATOM      4  C   UNL     1       2.371   3.831  19.488  0.00  0.00    +0.000 C 
ATOM      5  C   UNL     1       1.331   2.789  19.029  0.00  0.00    +0.000 C 
ATOM      6  C   UNL     1       1.009   1.950  20.263  0.00  0.00    +0.000 C 
ATOM      7  C   UNL     1       1.271   2.890  21.426  0.00  0.00    +0.000 C 
ATOM      8  C   UNL     1       2.541   3.606  21.000  0.00  0.00    +0.000 C 
ATOM      9  O   UNL     1       3.590   3.554  18.813  0.00  0.00    +0.000 OA
ATOM     10  C   UNL     1       4.530   4.514  18.874  0.00  0.00    +0.000 C 
ATOM     11  O   UNL     1       5.710   4.262  19.061  0.00  0.00    +0.000 OA
ATOM     12  C   UNL     1       3.981   5.850  18.649  0.00  0.00    +0.000 C 
ATOM     13  C   UNL     1       4.563   6.744  17.827  0.00  0.00    +0.000 C 
ENDROOT
BRANCH  13  14
ATOM     14  C   UNL     1       5.698   6.485  17.004  0.00  0.00    +0.000 A 
ATOM     15  C   UNL     1       6.955   6.999  17.203  0.00  0.00    +0.000 A 
ATOM     16  N   UNL     1       7.779   6.442  16.258  0.00  0.00    +0.000 N 
ATOM     17  C   UNL     1       7.066   5.600  15.433  0.00  0.00    +0.000 A 
ATOM     18  C   UNL     1       7.492   4.816  14.353  0.00  0.00    +0.000 A 
ATOM     19  C   UNL     1       6.532   4.046  13.691  0.00  0.00    +0.000 A 
ATOM     20  C   UNL     1       5.197   4.061  14.091  0.00  0.00    +0.000 A 
ATOM     21  C   UNL     1       4.788   4.841  15.178  0.00  0.00    +0.000 A 
ATOM     22  C   UNL     1       5.741   5.622  15.870  0.00  0.00    +0.000 A 
ATOM     23  H   UNL     1       8.772   6.606  16.185  0.00  0.00    +0.000 HD
ENDBRANCH  13  14
TORSDOF 1
ENDMDL
MODEL 2
REMARK VINA RESULT:      -8.1      2.362      6.370
REMARK  Name = 
REMARK  1 active torsions:
REMARK  status: ('A' for Active; 'I' for Inactive)
REMARK    1  A    between atoms: C_13  and  C_14
REMARK                            x       y       z     vdW  Elec       q    Type
REMARK                         _______ _______ _______ _____ _____    ______ ____
ROOT
ATOM      1  O   UNL     1       8.259   4.179  17.736  0.00  0.00    +0.000 OA
ATOM      2  C   UNL     1       7.301   4.333  16.991  0.00  0.00    +0.000 C 
ATOM      3  O   UNL     1       7.293   3.861  15.728  0.00  0.00    +0.000 OA
ATOM      4  C   UNL     1       6.411   4.453  14.772  0.00  0.00    +0.000 C 
ATOM      5  C   UNL     1       6.188   3.436  13.636  0.00  0.00    +0.000 C 
ATOM      6  C   UNL     1       6.683   4.118  12.363  0.00  0.00    +0.000 C 
ATOM      7  C   UNL     1       7.739   5.092  12.854  0.00  0.00    +0.000 C 
ATOM      8  C   UNL     1       7.113   5.656  14.119  0.00  0.00    +0.000 C 
ATOM      9  O   UNL     1       5.136   4.841  15.265  0.00  0.00    +0.000 OA
ATOM     10  C   UNL     1       5.132   5.509  16.432  0.00  0.00    +0.000 C 
ATOM     11  O   UNL     1       4.419   6.480  16.626  0.00  0.00    +0.000 OA
ATOM     12  C   UNL     1       6.028   4.913  17.421  0.00  0.00    +0.000 C 
ATOM     13  C   UNL     1       5.661   4.704  18.700  0.00  0.00    +0.000 C 
ENDROOT
BRANCH  13  14
ATOM     14  C   UNL     1       4.355   4.927  19.225  0.00  0.00    +0.000 A 
ATOM     15  C   UNL     1       3.895   6.119  19.727  0.00  0.00    +0.000 A 
ATOM     16  N   UNL     1       2.571   5.946  20.043  0.00  0.00    +0.000 N 
ATOM     17  C   UNL     1       2.178   4.651  19.783  0.00  0.00    +0.000 A 
ATOM     18  C   UNL     1       0.930   4.035  19.938  0.00  0.00    +0.000 A 
ATOM     19  C   UNL     1       0.822   2.688  19.585  0.00  0.00    +0.000 A 
ATOM     20  C   UNL     1       1.921   1.982  19.099  0.00  0.00    +0.000 A 
ATOM     21  C   UNL     1       3.160   2.612  18.941  0.00  0.00    +0.000 A 
ATOM     22  C   UNL     1       3.293   3.977  19.282  0.00  0.00    +0.000 A 
ATOM     23  H   UNL     1       1.960   6.668  20.398  0.00  0.00    +0.000 HD
ENDBRANCH  13  14
TORSDOF 1
ENDMDL
MODEL 3
REMARK VINA RESULT:      -7.0      1.684      3.388
REMARK  Name = 
REMARK  1 active torsions:
REMARK  status: ('A' for Active; 'I' for Inactive)
REMARK    1  A    between atoms: C_13  and  C_14
REMARK                            x       y       z     vdW  Elec       q    Type
REMARK                         _______ _______ _______ _____ _____    ______ ____
ROOT
ATOM      1  O   UNL     1       3.610   1.313  17.211  0.00  0.00    +0.000 OA
ATOM      2  C   UNL     1       3.504   2.246  17.995  0.00  0.00    +0.000 C 
ATOM      3  O   UNL     1       3.176   2.059  19.289  0.00  0.00    +0.000 OA
ATOM      4  C   UNL     1       2.604   3.143  20.023  0.00  0.00    +0.000 C 
ATOM      5  C   UNL     1       2.834   2.877  21.524  0.00  0.00    +0.000 C 
ATOM      6  C   UNL     1       1.444   2.810  22.153  0.00  0.00    +0.000 C 
ATOM      7  C   UNL     1       0.549   2.346  21.019  0.00  0.00    +0.000 C 
ATOM      8  C   UNL     1       1.078   3.131  19.830  0.00  0.00    +0.000 C 
ATOM      9  O   UNL     1       3.123   4.432  19.726  0.00  0.00    +0.000 OA
ATOM     10  C   UNL     1       3.261   4.728  18.422  0.00  0.00    +0.000 C 
ATOM     11  O   UNL     1       2.956   5.817  17.963  0.00  0.00    +0.000 OA
ATOM     12  C   UNL     1       3.848   3.628  17.658  0.00  0.00    +0.000 C 
ATOM     13  C   UNL     1       4.840   3.812  16.767  0.00  0.00    +0.000 C 
ENDROOT
BRANCH  13  14
ATOM     14  C   UNL     1       5.510   5.047  16.529  0.00  0.00    +0.000 A 
ATOM     15  C   UNL     1       5.297   5.869  15.451  0.00  0.00    +0.000 A 
ATOM     16  N   UNL     1       6.063   6.993  15.635  0.00  0.00    +0.000 N 
ATOM     17  C   UNL     1       6.792   6.893  16.801  0.00  0.00    +0.000 A 
ATOM     18  C   UNL     1       7.685   7.797  17.390  0.00  0.00    +0.000 A 
ATOM     19  C   UNL     1       8.286   7.424  18.595  0.00  0.00    +0.000 A 
ATOM     20  C   UNL     1       8.006   6.194  19.188  0.00  0.00    +0.000 A 
ATOM     21  C   UNL     1       7.104   5.305  18.593  0.00  0.00    +0.000 A 
ATOM     22  C   UNL     1       6.476   5.663  17.378  0.00  0.00    +0.000 A 
ATOM     23  H   UNL     1       6.080   7.792  15.019  0.00  0.00    +0.000 HD
ENDBRANCH  13  14
TORSDOF 1
ENDMDL
MODEL 4
REMARK VINA RESULT:      -6.8      1.722      2.888
REMARK  Name = 
REMARK  1 active torsions:
REMARK  status: ('A' for Active; 'I' for Inactive)
REMARK    1  A    between atoms: C_13  and  C_14
REMARK                            x       y       z     vdW  Elec       q    Type
REMARK                         _______ _______ _______ _____ _____    ______ ____
ROOT
ATOM      1  O   UNL     1       3.824   1.220  17.750  0.00  0.00    +0.000 OA
ATOM      2  C   UNL     1       3.813   2.411  18.026  0.00  0.00    +0.000 C 
ATOM      3  O   UNL     1       3.407   2.862  19.230  0.00  0.00    +0.000 OA
ATOM      4  C   UNL     1       2.958   4.213  19.349  0.00  0.00    +0.000 C 
ATOM      5  C   UNL     1       3.084   4.628  20.828  0.00  0.00    +0.000 C 
ATOM      6  C   UNL     1       1.672   4.996  21.280  0.00  0.00    +0.000 C 
ATOM      7  C   UNL     1       0.771   4.165  20.383  0.00  0.00    +0.000 C 
ATOM      8  C   UNL     1       1.454   4.272  19.030  0.00  0.00    +0.000 C 
ATOM      9  O   UNL     1       3.660   5.169  18.568  0.00  0.00    +0.000 OA
ATOM     10  C   UNL     1       3.894   4.830  17.288  0.00  0.00    +0.000 C 
ATOM     11  O   UNL     1       3.761   5.620  16.368  0.00  0.00    +0.000 OA
ATOM     12  C   UNL     1       4.357   3.450  17.151  0.00  0.00    +0.000 C 
ATOM     13  C   UNL     1       5.402   3.110  16.374  0.00  0.00    +0.000 C 
ENDROOT
BRANCH  13  14
ATOM     14  C   UNL     1       6.245   4.029  15.684  0.00  0.00    +0.000 A 
ATOM     15  C   UNL     1       7.032   4.984  16.279  0.00  0.00    +0.000 A 
ATOM     16  N   UNL     1       7.754   5.596  15.286  0.00  0.00    +0.000 N 
ATOM     17  C   UNL     1       7.420   5.074  14.055  0.00  0.00    +0.000 A 
ATOM     18  C   UNL     1       7.907   5.382  12.778  0.00  0.00    +0.000 A 
ATOM     19  C   UNL     1       7.378   4.677  11.694  0.00  0.00    +0.000 A 
ATOM     20  C   UNL     1       6.398   3.704  11.878  0.00  0.00    +0.000 A 
ATOM     21  C   UNL     1       5.927   3.400  13.160  0.00  0.00    +0.000 A 
ATOM     22  C   UNL     1       6.453   4.093  14.274  0.00  0.00    +0.000 A 
ATOM     23  H   UNL     1       8.447   6.315  15.431  0.00  0.00    +0.000 HD
ENDBRANCH  13  14
TORSDOF 1
ENDMDL
MODEL 5
REMARK VINA RESULT:      -6.7      5.181      7.445
REMARK  Name = 
REMARK  1 active torsions:
REMARK  status: ('A' for Active; 'I' for Inactive)
REMARK    1  A    between atoms: C_13  and  C_14
REMARK                            x       y       z     vdW  Elec       q    Type
REMARK                         _______ _______ _______ _____ _____    ______ ____
ROOT
ATOM      1  O   UNL     1       1.549   8.412  21.681  0.00  0.00    +0.000 OA
ATOM      2  C   UNL     1       1.585   8.211  20.476  0.00  0.00    +0.000 C 
ATOM      3  O   UNL     1       1.847   6.992  19.961  0.00  0.00    +0.000 OA
ATOM      4  C   UNL     1       2.347   6.896  18.626  0.00  0.00    +0.000 C 
ATOM      5  C   UNL     1       2.042   5.478  18.105  0.00  0.00    +0.000 C 
ATOM      6  C   UNL     1       3.397   4.857  17.769  0.00  0.00    +0.000 C 
ATOM      7  C   UNL     1       4.366   5.566  18.698  0.00  0.00    +0.000 C 
ATOM      8  C   UNL     1       3.881   7.005  18.655  0.00  0.00    +0.000 C 
ATOM      9  O   UNL     1       1.809   7.826  17.696  0.00  0.00    +0.000 OA
ATOM     10  C   UNL     1       1.735   9.102  18.112  0.00  0.00    +0.000 C 
ATOM     11  O   UNL     1       2.034  10.042  17.394  0.00  0.00    +0.000 OA
ATOM     12  C   UNL     1       1.222   9.217  19.476  0.00  0.00    +0.000 C 
ATOM     13  C   UNL     1       0.276  10.109  19.823  0.00  0.00    +0.000 C 
ENDROOT
BRANCH  13  14
ATOM     14  C   UNL     1      -0.415  10.966  18.917  0.00  0.00    +0.000 A 
ATOM     15  C   UNL     1      -0.069  12.264  18.634  0.00  0.00    +0.000 A 
ATOM     16  N   UNL     1      -0.919  12.709  17.653  0.00  0.00    +0.000 N 
ATOM     17  C   UNL     1      -1.830  11.729  17.323  0.00  0.00    +0.000 A 
ATOM     18  C   UNL     1      -2.863  11.734  16.377  0.00  0.00    +0.000 A 
ATOM     19  C   UNL     1      -3.638  10.578  16.256  0.00  0.00    +0.000 A 
ATOM     20  C   UNL     1      -3.392   9.460  17.051  0.00  0.00    +0.000 A 
ATOM     21  C   UNL     1      -2.351   9.467  17.986  0.00  0.00    +0.000 A 
ATOM     22  C   UNL     1      -1.546  10.620  18.122  0.00  0.00    +0.000 A 
ATOM     23  H   UNL     1      -0.876  13.619  17.217  0.00  0.00    +0.000 HD
ENDBRANCH  13  14
TORSDOF 1
ENDMDL
MODEL 6
REMARK VINA RESULT:      -6.7      3.898      6.297
REMARK  Name = 
REMARK  1 active torsions:
REMARK  status: ('A' for Active; 'I' for Inactive)
REMARK    1  A    between atoms: C_13  and  C_14
REMARK                            x       y       z     vdW  Elec       q    Type
REMARK                         _______ _______ _______ _____ _____    ______ ____
ROOT
ATOM      1  O   UNL     1       0.761   8.869  21.907  0.00  0.00    +0.000 OA
ATOM      2  C   UNL     1       1.067   9.363  20.831  0.00  0.00    +0.000 C 
ATOM      3  O   UNL     1       1.194  10.696  20.666  0.00  0.00    +0.000 OA
ATOM      4  C   UNL     1       1.072  11.247  19.354  0.00  0.00    +0.000 C 
ATOM      5  C   UNL     1       1.778  12.617  19.345  0.00  0.00    +0.000 C 
ATOM      6  C   UNL     1       0.704  13.636  18.970  0.00  0.00    +0.000 C 
ATOM      7  C   UNL     1      -0.588  13.003  19.453  0.00  0.00    +0.000 C 
ATOM      8  C   UNL     1      -0.410  11.544  19.069  0.00  0.00    +0.000 C 
ATOM      9  O   UNL     1       1.624  10.467  18.302  0.00  0.00    +0.000 OA
ATOM     10  C   UNL     1       1.332   9.154  18.324  0.00  0.00    +0.000 C 
ATOM     11  O   UNL     1       1.036   8.534  17.315  0.00  0.00    +0.000 OA
ATOM     12  C   UNL     1       1.455   8.576  19.660  0.00  0.00    +0.000 C 
ATOM     13  C   UNL     1       2.084   7.408  19.890  0.00  0.00    +0.000 C 
ENDROOT
BRANCH  13  14
ATOM     14  C   UNL     1       2.789   6.649  18.910  0.00  0.00    +0.000 A 
ATOM     15  C   UNL     1       3.885   7.086  18.208  0.00  0.00    +0.000 A 
ATOM     16  N   UNL     1       4.322   6.037  17.439  0.00  0.00    +0.000 N 
ATOM     17  C   UNL     1       3.505   4.940  17.610  0.00  0.00    +0.000 A 
ATOM     18  C   UNL     1       3.577   3.661  17.045  0.00  0.00    +0.000 A 
ATOM     19  C   UNL     1       2.598   2.733  17.410  0.00  0.00    +0.000 A 
ATOM     20  C   UNL     1       1.585   3.072  18.305  0.00  0.00    +0.000 A 
ATOM     21  C   UNL     1       1.531   4.352  18.869  0.00  0.00    +0.000 A 
ATOM     22  C   UNL     1       2.515   5.305  18.523  0.00  0.00    +0.000 A 
ATOM     23  H   UNL     1       5.137   6.054  16.844  0.00  0.00    +0.000 HD
ENDBRANCH  13  14
TORSDOF 1
ENDMDL
MODEL 7
REMARK VINA RESULT:      -6.7      2.787      4.811
REMARK  Name = 
REMARK  1 active torsions:
REMARK  status: ('A' for Active; 'I' for Inactive)
REMARK    1  A    between atoms: C_13  and  C_14
REMARK                            x       y       z     vdW  Elec       q    Type
REMARK                         _______ _______ _______ _____ _____    ______ ____
ROOT
ATOM      1  O   UNL     1       2.083   9.401  17.506  0.00  0.00    +0.000 OA
ATOM      2  C   UNL     1       1.873   8.644  18.444  0.00  0.00    +0.000 C 
ATOM      3  O   UNL     1       0.875   8.856  19.325  0.00  0.00    +0.000 OA
ATOM      4  C   UNL     1       0.959   8.263  20.623  0.00  0.00    +0.000 C 
ATOM      5  C   UNL     1      -0.467   8.183  21.202  0.00  0.00    +0.000 C 
ATOM      6  C   UNL     1      -0.441   9.005  22.489  0.00  0.00    +0.000 C 
ATOM      7  C   UNL     1       0.656  10.027  22.251  0.00  0.00    +0.000 C 
ATOM      8  C   UNL     1       1.733   9.208  21.558  0.00  0.00    +0.000 C 
ATOM      9  O   UNL     1       1.521   6.959  20.672  0.00  0.00    +0.000 OA
ATOM     10  C   UNL     1       2.650   6.776  19.963  0.00  0.00    +0.000 C 
ATOM     11  O   UNL     1       3.598   6.142  20.398  0.00  0.00    +0.000 OA
ATOM     12  C   UNL     1       2.578   7.375  18.632  0.00  0.00    +0.000 C 
ATOM     13  C   UNL     1       2.976   6.726  17.522  0.00  0.00    +0.000 C 
ENDROOT
BRANCH  13  14
ATOM     14  C   UNL     1       3.407   5.367  17.476  0.00  0.00    +0.000 A 
ATOM     15  C   UNL     1       4.653   4.944  17.086  0.00  0.00    +0.000 A 
ATOM     16  N   UNL     1       4.699   3.585  17.269  0.00  0.00    +0.000 N 
ATOM     17  C   UNL     1       3.491   3.121  17.742  0.00  0.00    +0.000 A 
ATOM     18  C   UNL     1       3.090   1.822  18.081  0.00  0.00    +0.000 A 
ATOM     19  C   UNL     1       1.783   1.646  18.544  0.00  0.00    +0.000 A 
ATOM     20  C   UNL     1       0.910   2.726  18.660  0.00  0.00    +0.000 A 
ATOM     21  C   UNL     1       1.327   4.019  18.326  0.00  0.00    +0.000 A 
ATOM     22  C   UNL     1       2.647   4.225  17.864  0.00  0.00    +0.000 A 
ATOM     23  H   UNL     1       5.508   3.004  17.102  0.00  0.00    +0.000 HD
ENDBRANCH  13  14
TORSDOF 1
ENDMDL
MODEL 8
REMARK VINA RESULT:      -6.5      4.369      7.112
REMARK  Name = 
REMARK  1 active torsions:
REMARK  status: ('A' for Active; 'I' for Inactive)
REMARK    1  A    between atoms: C_13  and  C_14
REMARK                            x       y       z     vdW  Elec       q    Type
REMARK                         _______ _______ _______ _____ _____    ______ ____
ROOT
ATOM      1  O   UNL     1       0.802   9.675  22.707  0.00  0.00    +0.000 OA
ATOM      2  C   UNL     1       1.025  10.057  21.567  0.00  0.00    +0.000 C 
ATOM      3  O   UNL     1       1.298  11.347  21.285  0.00  0.00    +0.000 OA
ATOM      4  C   UNL     1       1.076  11.828  19.958  0.00  0.00    +0.000 C 
ATOM      5  C   UNL     1       1.942  13.087  19.757  0.00  0.00    +0.000 C 
ATOM      6  C   UNL     1       0.966  14.218  19.438  0.00  0.00    +0.000 C 
ATOM      7  C   UNL     1      -0.322  13.796  20.120  0.00  0.00    +0.000 C 
ATOM      8  C   UNL     1      -0.381  12.305  19.833  0.00  0.00    +0.000 C 
ATOM      9  O   UNL     1       1.383  10.918  18.911  0.00  0.00    +0.000 OA
ATOM     10  C   UNL     1       0.933   9.661  19.070  0.00  0.00    +0.000 C 
ATOM     11  O   UNL     1       0.433   9.026  18.155  0.00  0.00    +0.000 OA
ATOM     12  C   UNL     1       1.155   9.154  20.422  0.00  0.00    +0.000 C 
ATOM     13  C   UNL     1       1.656   7.928  20.664  0.00  0.00    +0.000 C 
ENDROOT
BRANCH  13  14
ATOM     14  C   UNL     1       2.127   7.023  19.668  0.00  0.00    +0.000 A 
ATOM     15  C   UNL     1       2.967   7.350  18.633  0.00  0.00    +0.000 A 
ATOM     16  N   UNL     1       3.254   6.191  17.957  0.00  0.00    +0.000 N 
ATOM     17  C   UNL     1       2.585   5.126  18.521  0.00  0.00    +0.000 A 
ATOM     18  C   UNL     1       2.589   3.768  18.175  0.00  0.00    +0.000 A 
ATOM     19  C   UNL     1       1.804   2.901  18.939  0.00  0.00    +0.000 A 
ATOM     20  C   UNL     1       1.042   3.373  20.007  0.00  0.00    +0.000 A 
ATOM     21  C   UNL     1       1.055   4.730  20.347  0.00  0.00    +0.000 A 
ATOM     22  C   UNL     1       1.848   5.626  19.595  0.00  0.00    +0.000 A 
ATOM     23  H   UNL     1       3.881   6.118  17.170  0.00  0.00    +0.000 HD
ENDBRANCH  13  14
TORSDOF 1
ENDMDL
MODEL 9
REMARK VINA RESULT:      -6.4      3.163      6.636
REMARK  Name = 
REMARK  1 active torsions:
REMARK  status: ('A' for Active; 'I' for Inactive)
REMARK    1  A    between atoms: C_13  and  C_14
REMARK                            x       y       z     vdW  Elec       q    Type
REMARK                         _______ _______ _______ _____ _____    ______ ____
ROOT
ATOM      1  O   UNL     1       3.244   3.813  18.719  0.00  0.00    +0.000 OA
ATOM      2  C   UNL     1       3.679   4.632  17.922  0.00  0.00    +0.000 C 
ATOM      3  O   UNL     1       4.242   4.265  16.753  0.00  0.00    +0.000 OA
ATOM      4  C   UNL     1       5.140   5.166  16.103  0.00  0.00    +0.000 C 
ATOM      5  C   UNL     1       5.197   4.786  14.610  0.00  0.00    +0.000 C 
ATOM      6  C   UNL     1       6.657   4.440  14.325  0.00  0.00    +0.000 C 
ATOM      7  C   UNL     1       7.190   3.960  15.663  0.00  0.00    +0.000 C 
ATOM      8  C   UNL     1       6.562   4.936  16.643  0.00  0.00    +0.000 C 
ATOM      9  O   UNL     1       4.803   6.544  16.188  0.00  0.00    +0.000 OA
ATOM     10  C   UNL     1       4.439   6.989  17.404  0.00  0.00    +0.000 C 
ATOM     11  O   UNL     1       4.823   8.059  17.850  0.00  0.00    +0.000 OA
ATOM     12  C   UNL     1       3.518   6.078  18.081  0.00  0.00    +0.000 C 
ATOM     13  C   UNL     1       2.404   6.505  18.705  0.00  0.00    +0.000 C 
ENDROOT
BRANCH  13  14
ATOM     14  C   UNL     1       1.924   7.848  18.701  0.00  0.00    +0.000 A 
ATOM     15  C   UNL     1       1.788   8.638  17.587  0.00  0.00    +0.000 A 
ATOM     16  N   UNL     1       1.214   9.817  17.990  0.00  0.00    +0.000 N 
ATOM     17  C   UNL     1       1.007   9.812  19.352  0.00  0.00    +0.000 A 
ATOM     18  C   UNL     1       0.442  10.785  20.186  0.00  0.00    +0.000 A 
ATOM     19  C   UNL     1       0.357  10.502  21.552  0.00  0.00    +0.000 A 
ATOM     20  C   UNL     1       0.823   9.292  22.065  0.00  0.00    +0.000 A 
ATOM     21  C   UNL     1       1.378   8.326  21.219  0.00  0.00    +0.000 A 
ATOM     22  C   UNL     1       1.466   8.585  19.832  0.00  0.00    +0.000 A 
ATOM     23  H   UNL     1       0.957  10.577  17.377  0.00  0.00    +0.000 HD
ENDBRANCH  13  14
TORSDOF 1
ENDMDL
