MODEL 1
REMARK VINA RESULT:      -7.6      0.000      0.000
REMARK  Name = 
REMARK  9 active torsions:
REMARK  status: ('A' for Active; 'I' for Inactive)
REMARK    1  A    between atoms: C_1  and  O_2
REMARK    2  A    between atoms: O_2  and  C_3
REMARK    3  A    between atoms: C_5  and  N_6
REMARK    4  A    between atoms: N_6  and  C_7
REMARK    5  A    between atoms: N_6  and  C_8
REMARK    6  A    between atoms: C_11  and  C_12
REMARK    7  A    between atoms: C_14  and  C_15
REMARK    8  A    between atoms: C_16  and  O_17
REMARK    9  A    between atoms: C_19  and  C_20
REMARK                            x       y       z     vdW  Elec       q    Type
REMARK                         _______ _______ _______ _____ _____    ______ ____
ROOT
ATOM      1  C   UNL     1       2.521   6.622  19.600  0.00  0.00    +0.000 C 
ATOM      2  C   UNL     1       2.919   6.025  18.260  0.00  0.00    +0.000 C 
ATOM      3  C   UNL     1       4.023   4.995  18.270  0.00  0.00    +0.000 C 
ATOM      4  N   UNL     1       4.270   4.114  19.186  0.00  0.00    +0.000 NA
ATOM      5  C   UNL     1       3.510   3.905  20.415  0.00  0.00    +0.000 C 
ATOM      6  C   UNL     1       1.998   3.976  20.273  0.00  0.00    +0.000 C 
ATOM      7  S   UNL     1       1.419   5.627  20.684  0.00  0.00    +0.000 S 
ENDROOT
BRANCH   3   8
ATOM      8  C   UNL     1       4.879   4.966  17.042  0.00  0.00    +0.000 A 
ATOM      9  C   UNL     1       5.156   3.813  16.422  0.00  0.00    +0.000 A 
ATOM     10  C   UNL     1       6.044   3.778  15.296  0.00  0.00    +0.000 A 
ATOM     11  C   UNL     1       6.564   4.918  14.827  0.00  0.00    +0.000 A 
ATOM     12  C   UNL     1       7.498   5.003  13.667  0.00  0.00    +0.000 C 
ATOM     13  O   UNL     1       6.277   6.156  15.422  0.00  0.00    +0.000 OA
ATOM     14  C   UNL     1       5.493   6.240  16.556  0.00  0.00    +0.000 A 
ATOM     15  O   UNL     1       5.332   7.308  17.098  0.00  0.00    +0.000 OA
BRANCH   9  16
ATOM     16  O   UNL     1       4.686   2.558  16.762  0.00  0.00    +0.000 OA
ATOM     17  H   UNL     1       4.672   1.996  15.959  0.00  0.00    +0.000 HD
ENDBRANCH   9  16
ENDBRANCH   3   8
BRANCH   1  23
ATOM     18  C   UNL     1       1.369   8.793  20.480  0.00  0.00    +0.000 A 
ATOM     19  C   UNL     1       0.850  10.055  20.169  0.00  0.00    +0.000 A 
ATOM     20  C   UNL     1       0.717  10.547  18.865  0.00  0.00    +0.000 A 
ATOM     21  C   UNL     1       1.218   9.710  17.861  0.00  0.00    +0.000 A 
ATOM     22  C   UNL     1       1.806   8.476  18.141  0.00  0.00    +0.000 A 
ATOM     23  C   UNL     1       1.899   7.994  19.454  0.00  0.00    +0.000 A 
BRANCH  20  24
ATOM     24  N   UNL     1       0.085  11.750  18.576  0.00  0.00    +0.000 N 
ATOM     25  C   UNL     1       0.786  13.021  18.756  0.00  0.00    +0.000 C 
ATOM     26  C   UNL     1      -1.373  11.896  18.627  0.00  0.00    +0.000 C 
ENDBRANCH  20  24
BRANCH  18  28
ATOM     27  C   UNL     1       0.582   9.265  22.682  0.00  0.00    +0.000 C 
ATOM     28  O   UNL     1       1.266   8.360  21.787  0.00  0.00    +0.000 OA
ENDBRANCH  18  28
ENDBRANCH   1  23
TORSDOF 5
ENDMDL
MODEL 2
REMARK VINA RESULT:      -7.5      4.266      9.975
REMARK  Name = 
REMARK  9 active torsions:
REMARK  status: ('A' for Active; 'I' for Inactive)
REMARK    1  A    between atoms: C_1  and  O_2
REMARK    2  A    between atoms: O_2  and  C_3
REMARK    3  A    between atoms: C_5  and  N_6
REMARK    4  A    between atoms: N_6  and  C_7
REMARK    5  A    between atoms: N_6  and  C_8
REMARK    6  A    between atoms: C_11  and  C_12
REMARK    7  A    between atoms: C_14  and  C_15
REMARK    8  A    between atoms: C_16  and  O_17
REMARK    9  A    between atoms: C_19  and  C_20
REMARK                            x       y       z     vdW  Elec       q    Type
REMARK                         _______ _______ _______ _____ _____    ______ ____
ROOT
ATOM      1  C   UNL     1       0.114  11.762  20.081  0.00  0.00    +0.000 C 
ATOM      2  C   UNL     1      -1.378  11.762  19.796  0.00  0.00    +0.000 C 
ATOM      3  C   UNL     1      -2.164  12.967  20.256  0.00  0.00    +0.000 C 
ATOM      4  N   UNL     1      -1.767  14.199  20.290  0.00  0.00    +0.000 NA
ATOM      5  C   UNL     1      -0.464  14.702  19.865  0.00  0.00    +0.000 C 
ATOM      6  C   UNL     1       0.085  14.102  18.580  0.00  0.00    +0.000 C 
ATOM      7  S   UNL     1       1.196  12.742  18.962  0.00  0.00    +0.000 S 
ENDROOT
BRANCH   3   8
ATOM      8  C   UNL     1      -3.581  12.692  20.652  0.00  0.00    +0.000 A 
ATOM      9  C   UNL     1      -4.538  12.541  19.729  0.00  0.00    +0.000 A 
ATOM     10  C   UNL     1      -5.909  12.362  20.113  0.00  0.00    +0.000 A 
ATOM     11  C   UNL     1      -6.230  12.294  21.410  0.00  0.00    +0.000 A 
ATOM     12  C   UNL     1      -7.618  12.113  21.925  0.00  0.00    +0.000 C 
ATOM     13  O   UNL     1      -5.258  12.413  22.414  0.00  0.00    +0.000 OA
ATOM     14  C   UNL     1      -3.935  12.666  22.105  0.00  0.00    +0.000 A 
ATOM     15  O   UNL     1      -3.134  12.849  22.991  0.00  0.00    +0.000 OA
BRANCH   9  16
ATOM     16  O   UNL     1      -4.374  12.562  18.356  0.00  0.00    +0.000 OA
ATOM     17  H   UNL     1      -5.223  12.321  17.932  0.00  0.00    +0.000 HD
ENDBRANCH   9  16
ENDBRANCH   3   8
BRANCH   1  23
ATOM     18  C   UNL     1       0.902   9.600  21.313  0.00  0.00    +0.000 A 
ATOM     19  C   UNL     1       1.419   8.305  21.195  0.00  0.00    +0.000 A 
ATOM     20  C   UNL     1       1.847   7.738  19.988  0.00  0.00    +0.000 A 
ATOM     21  C   UNL     1       1.653   8.539  18.856  0.00  0.00    +0.000 A 
ATOM     22  C   UNL     1       1.076   9.808  18.928  0.00  0.00    +0.000 A 
ATOM     23  C   UNL     1       0.684  10.362  20.154  0.00  0.00    +0.000 A 
BRANCH  20  24
ATOM     24  N   UNL     1       2.470   6.499  19.918  0.00  0.00    +0.000 N 
ATOM     25  C   UNL     1       3.351   6.171  18.797  0.00  0.00    +0.000 C 
ATOM     26  C   UNL     1       1.910   5.308  20.563  0.00  0.00    +0.000 C 
ENDBRANCH  20  24
BRANCH  18  28
ATOM     27  C   UNL     1      -0.627   9.892  23.120  0.00  0.00    +0.000 C 
ATOM     28  O   UNL     1       0.699  10.098  22.585  0.00  0.00    +0.000 OA
ENDBRANCH  18  28
ENDBRANCH   1  23
TORSDOF 5
ENDMDL
MODEL 3
REMARK VINA RESULT:      -7.4      3.865      6.986
REMARK  Name = 
REMARK  9 active torsions:
REMARK  status: ('A' for Active; 'I' for Inactive)
REMARK    1  A    between atoms: C_1  and  O_2
REMARK    2  A    between atoms: O_2  and  C_3
REMARK    3  A    between atoms: C_5  and  N_6
REMARK    4  A    between atoms: N_6  and  C_7
REMARK    5  A    between atoms: N_6  and  C_8
REMARK    6  A    between atoms: C_11  and  C_12
REMARK    7  A    between atoms: C_14  and  C_15
REMARK    8  A    between atoms: C_16  and  O_17
REMARK    9  A    between atoms: C_19  and  C_20
REMARK                            x       y       z     vdW  Elec       q    Type
REMARK                         _______ _______ _______ _____ _____    ______ ____
ROOT
ATOM      1  C   UNL     1      -0.805  11.887  18.290  0.00  0.00    +0.000 C 
ATOM      2  C   UNL     1      -0.189  10.854  19.219  0.00  0.00    +0.000 C 
ATOM      3  C   UNL     1       1.246  10.464  18.955  0.00  0.00    +0.000 C 
ATOM      4  N   UNL     1       2.200  11.222  18.516  0.00  0.00    +0.000 NA
ATOM      5  C   UNL     1       2.101  12.644  18.199  0.00  0.00    +0.000 C 
ATOM      6  C   UNL     1       1.293  13.481  19.177  0.00  0.00    +0.000 C 
ATOM      7  S   UNL     1      -0.397  13.655  18.588  0.00  0.00    +0.000 S 
ENDROOT
BRANCH   3   8
ATOM      8  C   UNL     1       1.599   9.053  19.308  0.00  0.00    +0.000 A 
ATOM      9  C   UNL     1       2.167   8.239  18.410  0.00  0.00    +0.000 A 
ATOM     10  C   UNL     1       2.426   6.863  18.725  0.00  0.00    +0.000 A 
ATOM     11  C   UNL     1       2.143   6.399  19.947  0.00  0.00    +0.000 A 
ATOM     12  C   UNL     1       2.367   4.991  20.385  0.00  0.00    +0.000 C 
ATOM     13  O   UNL     1       1.578   7.222  20.933  0.00  0.00    +0.000 OA
ATOM     14  C   UNL     1       1.233   8.532  20.661  0.00  0.00    +0.000 A 
ATOM     15  O   UNL     1       0.669   9.192  21.502  0.00  0.00    +0.000 OA
BRANCH   9  16
ATOM     16  O   UNL     1       2.541   8.564  17.120  0.00  0.00    +0.000 OA
ATOM     17  H   UNL     1       3.518   8.527  17.054  0.00  0.00    +0.000 HD
ENDBRANCH   9  16
ENDBRANCH   3   8
BRANCH   1  23
ATOM     18  C   UNL     1      -3.079  11.345  17.128  0.00  0.00    +0.000 A 
ATOM     19  C   UNL     1      -4.472  11.277  17.249  0.00  0.00    +0.000 A 
ATOM     20  C   UNL     1      -5.183  11.718  18.372  0.00  0.00    +0.000 A 
ATOM     21  C   UNL     1      -4.392  12.175  19.433  0.00  0.00    +0.000 A 
ATOM     22  C   UNL     1      -2.998  12.191  19.373  0.00  0.00    +0.000 A 
ATOM     23  C   UNL     1      -2.312  11.772  18.224  0.00  0.00    +0.000 A 
BRANCH  20  24
ATOM     24  N   UNL     1      -6.571  11.754  18.418  0.00  0.00    +0.000 N 
ATOM     25  C   UNL     1      -7.312  12.798  17.711  0.00  0.00    +0.000 C 
ATOM     26  C   UNL     1      -7.329  11.179  19.534  0.00  0.00    +0.000 C 
ENDBRANCH  20  24
BRANCH  18  28
ATOM     27  C   UNL     1      -3.382  10.313  14.999  0.00  0.00    +0.000 C 
ATOM     28  O   UNL     1      -2.526  11.055  15.897  0.00  0.00    +0.000 OA
ENDBRANCH  18  28
ENDBRANCH   1  23
TORSDOF 5
ENDMDL
MODEL 4
REMARK VINA RESULT:      -7.1      2.144      7.328
REMARK  Name = 
REMARK  9 active torsions:
REMARK  status: ('A' for Active; 'I' for Inactive)
REMARK    1  A    between atoms: C_1  and  O_2
REMARK    2  A    between atoms: O_2  and  C_3
REMARK    3  A    between atoms: C_5  and  N_6
REMARK    4  A    between atoms: N_6  and  C_7
REMARK    5  A    between atoms: N_6  and  C_8
REMARK    6  A    between atoms: C_11  and  C_12
REMARK    7  A    between atoms: C_14  and  C_15
REMARK    8  A    between atoms: C_16  and  O_17
REMARK    9  A    between atoms: C_19  and  C_20
REMARK                            x       y       z     vdW  Elec       q    Type
REMARK                         _______ _______ _______ _____ _____    ______ ____
ROOT
ATOM      1  C   UNL     1       4.029   4.706  17.896  0.00  0.00    +0.000 C 
ATOM      2  C   UNL     1       3.880   6.076  18.534  0.00  0.00    +0.000 C 
ATOM      3  C   UNL     1       2.576   6.365  19.240  0.00  0.00    +0.000 C 
ATOM      4  N   UNL     1       1.842   5.534  19.909  0.00  0.00    +0.000 NA
ATOM      5  C   UNL     1       2.130   4.123  20.150  0.00  0.00    +0.000 C 
ATOM      6  C   UNL     1       3.577   3.795  20.483  0.00  0.00    +0.000 C 
ATOM      7  S   UNL     1       4.453   3.294  18.996  0.00  0.00    +0.000 S 
ENDROOT
BRANCH   3   8
ATOM      8  C   UNL     1       2.133   7.794  19.203  0.00  0.00    +0.000 A 
ATOM      9  C   UNL     1       1.562   8.367  20.269  0.00  0.00    +0.000 A 
ATOM     10  C   UNL     1       1.062   9.710  20.203  0.00  0.00    +0.000 A 
ATOM     11  C   UNL     1       1.213  10.418  19.078  0.00  0.00    +0.000 A 
ATOM     12  C   UNL     1       0.733  11.819  18.894  0.00  0.00    +0.000 C 
ATOM     13  O   UNL     1       1.836   9.874  17.945  0.00  0.00    +0.000 OA
ATOM     14  C   UNL     1       2.264   8.560  17.925  0.00  0.00    +0.000 A 
ATOM     15  O   UNL     1       2.718   8.091  16.908  0.00  0.00    +0.000 OA
BRANCH   9  16
ATOM     16  O   UNL     1       1.351   7.786  21.506  0.00  0.00    +0.000 OA
ATOM     17  H   UNL     1       2.014   7.077  21.640  0.00  0.00    +0.000 HD
ENDBRANCH   9  16
ENDBRANCH   3   8
BRANCH   1  23
ATOM     18  C   UNL     1       6.346   5.185  16.792  0.00  0.00    +0.000 A 
ATOM     19  C   UNL     1       7.142   5.089  15.645  0.00  0.00    +0.000 A 
ATOM     20  C   UNL     1       6.674   4.644  14.402  0.00  0.00    +0.000 A 
ATOM     21  C   UNL     1       5.341   4.214  14.390  0.00  0.00    +0.000 A 
ATOM     22  C   UNL     1       4.540   4.230  15.532  0.00  0.00    +0.000 A 
ATOM     23  C   UNL     1       5.025   4.709  16.757  0.00  0.00    +0.000 A 
BRANCH  20  24
ATOM     24  N   UNL     1       7.450   4.675  13.251  0.00  0.00    +0.000 N 
ATOM     25  C   UNL     1       8.352   5.797  12.991  0.00  0.00    +0.000 C 
ATOM     26  C   UNL     1       7.056   3.972  12.026  0.00  0.00    +0.000 C 
ENDBRANCH  20  24
BRANCH  18  28
ATOM     27  C   UNL     1       7.485   7.106  17.633  0.00  0.00    +0.000 C 
ATOM     28  O   UNL     1       6.883   5.818  17.896  0.00  0.00    +0.000 OA
ENDBRANCH  18  28
ENDBRANCH   1  23
TORSDOF 5
ENDMDL
MODEL 5
REMARK VINA RESULT:      -7.1      4.067      9.889
REMARK  Name = 
REMARK  9 active torsions:
REMARK  status: ('A' for Active; 'I' for Inactive)
REMARK    1  A    between atoms: C_1  and  O_2
REMARK    2  A    between atoms: O_2  and  C_3
REMARK    3  A    between atoms: C_5  and  N_6
REMARK    4  A    between atoms: N_6  and  C_7
REMARK    5  A    between atoms: N_6  and  C_8
REMARK    6  A    between atoms: C_11  and  C_12
REMARK    7  A    between atoms: C_14  and  C_15
REMARK    8  A    between atoms: C_16  and  O_17
REMARK    9  A    between atoms: C_19  and  C_20
REMARK                            x       y       z     vdW  Elec       q    Type
REMARK                         _______ _______ _______ _____ _____    ______ ____
ROOT
ATOM      1  C   UNL     1       0.678  11.439  20.095  0.00  0.00    +0.000 C 
ATOM      2  C   UNL     1      -0.825  11.606  20.238  0.00  0.00    +0.000 C 
ATOM      3  C   UNL     1      -1.318  12.922  20.792  0.00  0.00    +0.000 C 
ATOM      4  N   UNL     1      -0.805  14.096  20.608  0.00  0.00    +0.000 NA
ATOM      5  C   UNL     1       0.366  14.412  19.794  0.00  0.00    +0.000 C 
ATOM      6  C   UNL     1       0.460  13.680  18.465  0.00  0.00    +0.000 C 
ATOM      7  S   UNL     1       1.489  12.217  18.639  0.00  0.00    +0.000 S 
ENDROOT
BRANCH   3   8
ATOM      8  C   UNL     1      -2.583  12.844  21.589  0.00  0.00    +0.000 A 
ATOM      9  C   UNL     1      -3.776  13.012  21.007  0.00  0.00    +0.000 A 
ATOM     10  C   UNL     1      -4.980  13.021  21.787  0.00  0.00    +0.000 A 
ATOM     11  C   UNL     1      -4.916  12.810  23.107  0.00  0.00    +0.000 A 
ATOM     12  C   UNL     1      -6.099  12.799  24.016  0.00  0.00    +0.000 C 
ATOM     13  O   UNL     1      -3.692  12.595  23.758  0.00  0.00    +0.000 OA
ATOM     14  C   UNL     1      -2.495  12.655  23.070  0.00  0.00    +0.000 A 
ATOM     15  O   UNL     1      -1.451  12.552  23.670  0.00  0.00    +0.000 OA
BRANCH   9  16
ATOM     16  O   UNL     1      -4.018  13.218  19.662  0.00  0.00    +0.000 OA
ATOM     17  H   UNL     1      -4.752  13.861  19.567  0.00  0.00    +0.000 HD
ENDBRANCH   9  16
ENDBRANCH   3   8
BRANCH   1  23
ATOM     18  C   UNL     1       1.222   9.168  21.263  0.00  0.00    +0.000 A 
ATOM     19  C   UNL     1       1.603   7.831  21.108  0.00  0.00    +0.000 A 
ATOM     20  C   UNL     1       1.987   7.262  19.887  0.00  0.00    +0.000 A 
ATOM     21  C   UNL     1       1.892   8.114  18.780  0.00  0.00    +0.000 A 
ATOM     22  C   UNL     1       1.449   9.433  18.888  0.00  0.00    +0.000 A 
ATOM     23  C   UNL     1       1.100   9.986  20.128  0.00  0.00    +0.000 A 
BRANCH  20  24
ATOM     24  N   UNL     1       2.479   5.968  19.782  0.00  0.00    +0.000 N 
ATOM     25  C   UNL     1       2.155   4.963  20.794  0.00  0.00    +0.000 C 
ATOM     26  C   UNL     1       3.717   5.662  19.059  0.00  0.00    +0.000 C 
ENDBRANCH  20  24
BRANCH  18  28
ATOM     27  C   UNL     1      -0.227   9.349  23.150  0.00  0.00    +0.000 C 
ATOM     28  O   UNL     1       1.053   9.644  22.548  0.00  0.00    +0.000 OA
ENDBRANCH  18  28
ENDBRANCH   1  23
TORSDOF 5
ENDMDL
MODEL 6
REMARK VINA RESULT:      -7.1      4.019      7.297
REMARK  Name = 
REMARK  9 active torsions:
REMARK  status: ('A' for Active; 'I' for Inactive)
REMARK    1  A    between atoms: C_1  and  O_2
REMARK    2  A    between atoms: O_2  and  C_3
REMARK    3  A    between atoms: C_5  and  N_6
REMARK    4  A    between atoms: N_6  and  C_7
REMARK    5  A    between atoms: N_6  and  C_8
REMARK    6  A    between atoms: C_11  and  C_12
REMARK    7  A    between atoms: C_14  and  C_15
REMARK    8  A    between atoms: C_16  and  O_17
REMARK    9  A    between atoms: C_19  and  C_20
REMARK                            x       y       z     vdW  Elec       q    Type
REMARK                         _______ _______ _______ _____ _____    ______ ____
ROOT
ATOM      1  C   UNL     1      -1.295  12.468  19.692  0.00  0.00    +0.000 C 
ATOM      2  C   UNL     1      -0.576  11.206  20.140  0.00  0.00    +0.000 C 
ATOM      3  C   UNL     1       0.892  11.098  19.802  0.00  0.00    +0.000 C 
ATOM      4  N   UNL     1       1.762  12.056  19.758  0.00  0.00    +0.000 NA
ATOM      5  C   UNL     1       1.516  13.465  20.052  0.00  0.00    +0.000 C 
ATOM      6  C   UNL     1       0.624  13.740  21.251  0.00  0.00    +0.000 C 
ATOM      7  S   UNL     1      -1.074  13.982  20.712  0.00  0.00    +0.000 S 
ENDROOT
BRANCH   3   8
ATOM      8  C   UNL     1       1.390   9.708  19.557  0.00  0.00    +0.000 A 
ATOM      9  C   UNL     1       1.837   9.338  18.352  0.00  0.00    +0.000 A 
ATOM     10  C   UNL     1       2.234   7.982  18.098  0.00  0.00    +0.000 A 
ATOM     11  C   UNL     1       2.204   7.087  19.091  0.00  0.00    +0.000 A 
ATOM     12  C   UNL     1       2.590   5.653  18.944  0.00  0.00    +0.000 C 
ATOM     13  O   UNL     1       1.775   7.434  20.381  0.00  0.00    +0.000 OA
ATOM     14  C   UNL     1       1.306   8.703  20.662  0.00  0.00    +0.000 A 
ATOM     15  O   UNL     1       0.863   8.951  21.759  0.00  0.00    +0.000 OA
BRANCH   9  16
ATOM     16  O   UNL     1       1.952  10.139  17.231  0.00  0.00    +0.000 OA
ATOM     17  H   UNL     1       2.755   9.876  16.735  0.00  0.00    +0.000 HD
ENDBRANCH   9  16
ENDBRANCH   3   8
BRANCH   1  23
ATOM     18  C   UNL     1      -3.422  11.617  18.440  0.00  0.00    +0.000 A 
ATOM     19  C   UNL     1      -4.814  11.480  18.452  0.00  0.00    +0.000 A 
ATOM     20  C   UNL     1      -5.648  12.034  19.431  0.00  0.00    +0.000 A 
ATOM     21  C   UNL     1      -4.982  12.693  20.473  0.00  0.00    +0.000 A 
ATOM     22  C   UNL     1      -3.591  12.788  20.528  0.00  0.00    +0.000 A 
ATOM     23  C   UNL     1      -2.782  12.249  19.519  0.00  0.00    +0.000 A 
BRANCH  20  24
ATOM     24  N   UNL     1      -7.034  11.988  19.354  0.00  0.00    +0.000 N 
ATOM     25  C   UNL     1      -7.767  12.964  18.549  0.00  0.00    +0.000 C 
ATOM     26  C   UNL     1      -7.854  11.403  20.419  0.00  0.00    +0.000 C 
ENDBRANCH  20  24
BRANCH  18  28
ATOM     27  C   UNL     1      -3.528  11.136  16.106  0.00  0.00    +0.000 C 
ATOM     28  O   UNL     1      -2.743  11.185  17.318  0.00  0.00    +0.000 OA
ENDBRANCH  18  28
ENDBRANCH   1  23
TORSDOF 5
ENDMDL
MODEL 7
REMARK VINA RESULT:      -7.0      3.594      8.279
REMARK  Name = 
REMARK  9 active torsions:
REMARK  status: ('A' for Active; 'I' for Inactive)
REMARK    1  A    between atoms: C_1  and  O_2
REMARK    2  A    between atoms: O_2  and  C_3
REMARK    3  A    between atoms: C_5  and  N_6
REMARK    4  A    between atoms: N_6  and  C_7
REMARK    5  A    between atoms: N_6  and  C_8
REMARK    6  A    between atoms: C_11  and  C_12
REMARK    7  A    between atoms: C_14  and  C_15
REMARK    8  A    between atoms: C_16  and  O_17
REMARK    9  A    between atoms: C_19  and  C_20
REMARK                            x       y       z     vdW  Elec       q    Type
REMARK                         _______ _______ _______ _____ _____    ______ ____
ROOT
ATOM      1  C   UNL     1       0.804  10.643  18.841  0.00  0.00    +0.000 C 
ATOM      2  C   UNL     1       1.381  11.683  19.786  0.00  0.00    +0.000 C 
ATOM      3  C   UNL     1       1.361  13.119  19.319  0.00  0.00    +0.000 C 
ATOM      4  N   UNL     1       0.458  13.699  18.595  0.00  0.00    +0.000 NA
ATOM      5  C   UNL     1      -0.767  13.089  18.084  0.00  0.00    +0.000 C 
ATOM      6  C   UNL     1      -1.503  12.179  19.054  0.00  0.00    +0.000 C 
ATOM      7  S   UNL     1      -1.025  10.469  18.777  0.00  0.00    +0.000 S 
ENDROOT
BRANCH   3   8
ATOM      8  C   UNL     1       2.490  13.967  19.814  0.00  0.00    +0.000 A 
ATOM      9  C   UNL     1       3.520  14.278  19.018  0.00  0.00    +0.000 A 
ATOM     10  C   UNL     1       4.641  15.019  19.521  0.00  0.00    +0.000 A 
ATOM     11  C   UNL     1       4.636  15.449  20.788  0.00  0.00    +0.000 A 
ATOM     12  C   UNL     1       5.745  16.224  21.418  0.00  0.00    +0.000 C 
ATOM     13  O   UNL     1       3.565  15.178  21.652  0.00  0.00    +0.000 OA
ATOM     14  C   UNL     1       2.497  14.401  21.246  0.00  0.00    +0.000 A 
ATOM     15  O   UNL     1       1.630  14.111  22.036  0.00  0.00    +0.000 OA
BRANCH   9  16
ATOM     16  O   UNL     1       3.670  13.934  17.687  0.00  0.00    +0.000 OA
ATOM     17  H   UNL     1       4.115  13.063  17.634  0.00  0.00    +0.000 HD
ENDBRANCH   9  16
ENDBRANCH   3   8
BRANCH   1  23
ATOM     18  C   UNL     1       1.371   8.543  20.285  0.00  0.00    +0.000 A 
ATOM     19  C   UNL     1       1.936   7.263  20.324  0.00  0.00    +0.000 A 
ATOM     20  C   UNL     1       2.628   6.679  19.255  0.00  0.00    +0.000 A 
ATOM     21  C   UNL     1       2.657   7.442  18.080  0.00  0.00    +0.000 A 
ATOM     22  C   UNL     1       2.044   8.692  17.985  0.00  0.00    +0.000 A 
ATOM     23  C   UNL     1       1.384   9.266  19.081  0.00  0.00    +0.000 A 
BRANCH  20  24
ATOM     24  N   UNL     1       3.285   5.461  19.360  0.00  0.00    +0.000 N 
ATOM     25  C   UNL     1       2.739   4.389  20.194  0.00  0.00    +0.000 C 
ATOM     26  C   UNL     1       4.731   5.336  19.155  0.00  0.00    +0.000 C 
ENDBRANCH  20  24
BRANCH  18  28
ATOM     27  C   UNL     1      -0.412   8.579  21.870  0.00  0.00    +0.000 C 
ATOM     28  O   UNL     1       0.887   9.068  21.466  0.00  0.00    +0.000 OA
ENDBRANCH  18  28
ENDBRANCH   1  23
TORSDOF 5
ENDMDL
MODEL 8
REMARK VINA RESULT:      -7.0      4.297     10.164
REMARK  Name = 
REMARK  9 active torsions:
REMARK  status: ('A' for Active; 'I' for Inactive)
REMARK    1  A    between atoms: C_1  and  O_2
REMARK    2  A    between atoms: O_2  and  C_3
REMARK    3  A    between atoms: C_5  and  N_6
REMARK    4  A    between atoms: N_6  and  C_7
REMARK    5  A    between atoms: N_6  and  C_8
REMARK    6  A    between atoms: C_11  and  C_12
REMARK    7  A    between atoms: C_14  and  C_15
REMARK    8  A    between atoms: C_16  and  O_17
REMARK    9  A    between atoms: C_19  and  C_20
REMARK                            x       y       z     vdW  Elec       q    Type
REMARK                         _______ _______ _______ _____ _____    ______ ____
ROOT
ATOM      1  C   UNL     1       0.284  11.842  20.160  0.00  0.00    +0.000 C 
ATOM      2  C   UNL     1      -1.214  11.938  20.391  0.00  0.00    +0.000 C 
ATOM      3  C   UNL     1      -1.741  13.247  20.930  0.00  0.00    +0.000 C 
ATOM      4  N   UNL     1      -1.302  14.438  20.674  0.00  0.00    +0.000 NA
ATOM      5  C   UNL     1      -0.201  14.782  19.778  0.00  0.00    +0.000 C 
ATOM      6  C   UNL     1      -0.151  14.007  18.471  0.00  0.00    +0.000 C 
ATOM      7  S   UNL     1       0.962  12.605  18.630  0.00  0.00    +0.000 S 
ENDROOT
BRANCH   3   8
ATOM      8  C   UNL     1      -2.949  13.136  21.807  0.00  0.00    +0.000 A 
ATOM      9  C   UNL     1      -2.866  13.350  23.125  0.00  0.00    +0.000 A 
ATOM     10  C   UNL     1      -4.007  13.160  23.975  0.00  0.00    +0.000 A 
ATOM     11  C   UNL     1      -5.181  12.812  23.438  0.00  0.00    +0.000 A 
ATOM     12  C   UNL     1      -6.430  12.585  24.221  0.00  0.00    +0.000 C 
ATOM     13  O   UNL     1      -5.327  12.609  22.058  0.00  0.00    +0.000 OA
ATOM     14  C   UNL     1      -4.246  12.700  21.203  0.00  0.00    +0.000 A 
ATOM     15  O   UNL     1      -4.381  12.435  20.031  0.00  0.00    +0.000 OA
BRANCH   9  16
ATOM     16  O   UNL     1      -1.741  13.733  23.831  0.00  0.00    +0.000 OA
ATOM     17  H   UNL     1      -1.391  14.562  23.444  0.00  0.00    +0.000 HD
ENDBRANCH   9  16
ENDBRANCH   3   8
BRANCH   1  23
ATOM     18  C   UNL     1       0.952   9.624  21.364  0.00  0.00    +0.000 A 
ATOM     19  C   UNL     1       1.404   8.306  21.230  0.00  0.00    +0.000 A 
ATOM     20  C   UNL     1       1.813   7.737  20.017  0.00  0.00    +0.000 A 
ATOM     21  C   UNL     1       1.669   8.564  18.896  0.00  0.00    +0.000 A 
ATOM     22  C   UNL     1       1.156   9.859  18.984  0.00  0.00    +0.000 A 
ATOM     23  C   UNL     1       0.782  10.414  20.215  0.00  0.00    +0.000 A 
BRANCH  20  24
ATOM     24  N   UNL     1       2.373   6.469  19.931  0.00  0.00    +0.000 N 
ATOM     25  C   UNL     1       3.274   6.125  18.832  0.00  0.00    +0.000 C 
ATOM     26  C   UNL     1       1.729   5.292  20.523  0.00  0.00    +0.000 C 
ENDBRANCH  20  24
BRANCH  18  28
ATOM     27  C   UNL     1      -0.517   9.803  23.234  0.00  0.00    +0.000 C 
ATOM     28  O   UNL     1       0.764  10.112  22.641  0.00  0.00    +0.000 OA
ENDBRANCH  18  28
ENDBRANCH   1  23
TORSDOF 5
ENDMDL
MODEL 9
REMARK VINA RESULT:      -7.0      3.874      6.978
REMARK  Name = 
REMARK  9 active torsions:
REMARK  status: ('A' for Active; 'I' for Inactive)
REMARK    1  A    between atoms: C_1  and  O_2
REMARK    2  A    between atoms: O_2  and  C_3
REMARK    3  A    between atoms: C_5  and  N_6
REMARK    4  A    between atoms: N_6  and  C_7
REMARK    5  A    between atoms: N_6  and  C_8
REMARK    6  A    between atoms: C_11  and  C_12
REMARK    7  A    between atoms: C_14  and  C_15
REMARK    8  A    between atoms: C_16  and  O_17
REMARK    9  A    between atoms: C_19  and  C_20
REMARK                            x       y       z     vdW  Elec       q    Type
REMARK                         _______ _______ _______ _____ _____    ______ ____
ROOT
ATOM      1  C   UNL     1      -0.859  11.933  18.395  0.00  0.00    +0.000 C 
ATOM      2  C   UNL     1      -0.256  10.851  19.275  0.00  0.00    +0.000 C 
ATOM      3  C   UNL     1       1.180  10.469  19.005  0.00  0.00    +0.000 C 
ATOM      4  N   UNL     1       2.140  11.245  18.615  0.00  0.00    +0.000 NA
ATOM      5  C   UNL     1       2.050  12.682  18.372  0.00  0.00    +0.000 C 
ATOM      6  C   UNL     1       1.235  13.470  19.384  0.00  0.00    +0.000 C 
ATOM      7  S   UNL     1      -0.447  13.681  18.790  0.00  0.00    +0.000 S 
ENDROOT
BRANCH   3   8
ATOM      8  C   UNL     1       1.524   9.041  19.287  0.00  0.00    +0.000 A 
ATOM      9  C   UNL     1       1.342   8.515  20.504  0.00  0.00    +0.000 A 
ATOM     10  C   UNL     1       1.751   7.170  20.794  0.00  0.00    +0.000 A 
ATOM     11  C   UNL     1       2.276   6.414  19.823  0.00  0.00    +0.000 A 
ATOM     12  C   UNL     1       2.738   5.008  20.008  0.00  0.00    +0.000 C 
ATOM     13  O   UNL     1       2.455   6.909  18.522  0.00  0.00    +0.000 OA
ATOM     14  C   UNL     1       2.154   8.220  18.207  0.00  0.00    +0.000 A 
ATOM     15  O   UNL     1       2.399   8.644  17.102  0.00  0.00    +0.000 OA
BRANCH   9  16
ATOM     16  O   UNL     1       0.796   9.148  21.605  0.00  0.00    +0.000 OA
ATOM     17  H   UNL     1      -0.069   9.533  21.352  0.00  0.00    +0.000 HD
ENDBRANCH   9  16
ENDBRANCH   3   8
BRANCH   1  23
ATOM     18  C   UNL     1      -3.121  11.405  17.204  0.00  0.00    +0.000 A 
ATOM     19  C   UNL     1      -4.516  11.346  17.306  0.00  0.00    +0.000 A 
ATOM     20  C   UNL     1      -5.239  11.794  18.419  0.00  0.00    +0.000 A 
ATOM     21  C   UNL     1      -4.459  12.248  19.490  0.00  0.00    +0.000 A 
ATOM     22  C   UNL     1      -3.064  12.254  19.448  0.00  0.00    +0.000 A 
ATOM     23  C   UNL     1      -2.367  11.829  18.310  0.00  0.00    +0.000 A 
BRANCH  20  24
ATOM     24  N   UNL     1      -6.627  11.839  18.446  0.00  0.00    +0.000 N 
ATOM     25  C   UNL     1      -7.354  12.858  17.689  0.00  0.00    +0.000 C 
ATOM     26  C   UNL     1      -7.402  11.314  19.574  0.00  0.00    +0.000 C 
ENDBRANCH  20  24
BRANCH  18  28
ATOM     27  C   UNL     1      -3.341  10.244  15.131  0.00  0.00    +0.000 C 
ATOM     28  O   UNL     1      -2.554  11.109  15.981  0.00  0.00    +0.000 OA
ENDBRANCH  18  28
ENDBRANCH   1  23
TORSDOF 5
ENDMDL
