MODEL 1
REMARK VINA RESULT:      -8.2      0.000      0.000
REMARK  Name = 
REMARK  8 active torsions:
REMARK  status: ('A' for Active; 'I' for Inactive)
REMARK    1  A    between atoms: C_1  and  O_2
REMARK    2  A    between atoms: O_2  and  C_3
REMARK    3  A    between atoms: C_5  and  O_6
REMARK    4  A    between atoms: O_6  and  C_7
REMARK    5  A    between atoms: C_8  and  N_9
REMARK    6  A    between atoms: C_10  and  C_12
REMARK    7  A    between atoms: C_12  and  N_13
REMARK    8  A    between atoms: C_26  and  C_27
REMARK                            x       y       z     vdW  Elec       q    Type
REMARK                         _______ _______ _______ _____ _____    ______ ____
ROOT
ATOM      1  N   UNL     1       0.805  11.214  18.974  0.00  0.00    +0.000 N 
ATOM      2  C   UNL     1       0.100  12.433  19.264  0.00  0.00    +0.000 A 
ATOM      3  N   UNL     1      -1.001  12.294  20.174  0.00  0.00    +0.000 N 
ATOM      4  C   UNL     1      -0.340  12.029  21.450  0.00  0.00    +0.000 C 
ATOM      5  C   UNL     1      -1.081  12.221  22.713  0.00  0.00    +0.000 C 
ATOM      6  C   UNL     1      -2.485  12.595  22.757  0.00  0.00    +0.000 A 
ATOM      7  C   UNL     1      -3.041  12.497  24.052  0.00  0.00    +0.000 A 
ATOM      8  C   UNL     1      -4.392  12.485  24.226  0.00  0.00    +0.000 A 
ATOM      9  C   UNL     1      -5.164  12.711  23.096  0.00  0.00    +0.000 A 
ATOM     10  C   UNL     1      -4.563  12.963  21.805  0.00  0.00    +0.000 A 
ATOM     11  C   UNL     1      -3.171  12.889  21.583  0.00  0.00    +0.000 A 
ATOM     12  C   UNL     1      -2.302  13.115  20.274  0.00  0.00    +0.000 C 
ATOM     13  N   UNL     1       0.635  13.584  18.920  0.00  0.00    +0.000 NA
ATOM     14  C   UNL     1       1.943  13.585  18.436  0.00  0.00    +0.000 A 
ATOM     15  C   UNL     1       2.724  14.872  18.320  0.00  0.00    +0.000 C 
ATOM     16  C   UNL     1       2.637  12.484  18.129  0.00  0.00    +0.000 A 
ATOM     17  C   UNL     1       1.955  11.207  18.213  0.00  0.00    +0.000 A 
ATOM     18  O   UNL     1       2.407  10.229  17.631  0.00  0.00    +0.000 OA
ENDROOT
BRANCH   1  19
ATOM     19  C   UNL     1       0.297   9.876  19.241  0.00  0.00    +0.000 C 
BRANCH  19  21
ATOM     20  N   UNL     1       1.741   7.949  19.021  0.00  0.00    +0.000 N 
ATOM     21  C   UNL     1       1.285   8.878  19.957  0.00  0.00    +0.000 C 
ATOM     22  O   UNL     1       1.537   8.926  21.154  0.00  0.00    +0.000 OA
ATOM     23  H   UNL     1       1.516   8.213  18.079  0.00  0.00    +0.000 HD
BRANCH  20  27
ATOM     24  C   UNL     1       3.754   4.244  19.579  0.00  0.00    +0.000 A 
ATOM     25  C   UNL     1       4.247   5.119  18.595  0.00  0.00    +0.000 A 
ATOM     26  C   UNL     1       3.655   6.394  18.355  0.00  0.00    +0.000 A 
ATOM     27  C   UNL     1       2.513   6.757  19.080  0.00  0.00    +0.000 A 
ATOM     28  C   UNL     1       2.037   5.865  20.067  0.00  0.00    +0.000 A 
ATOM     29  C   UNL     1       2.658   4.628  20.336  0.00  0.00    +0.000 A 
ATOM     30 CL   UNL     1       2.044   3.756  21.694  0.00  0.00    +0.000 Cl
BRANCH  24  32
ATOM     31  C   UNL     1       3.978   1.897  19.269  0.00  0.00    +0.000 C 
ATOM     32  O   UNL     1       4.517   3.116  19.758  0.00  0.00    +0.000 OA
ENDBRANCH  24  32
BRANCH  26  33
ATOM     33  O   UNL     1       4.185   7.261  17.441  0.00  0.00    +0.000 OA
ATOM     34  C   UNL     1       4.954   6.692  16.385  0.00  0.00    +0.000 C 
ENDBRANCH  26  33
ENDBRANCH  20  27
ENDBRANCH  19  21
ENDBRANCH   1  19
TORSDOF 5
ENDMDL
MODEL 2
REMARK VINA RESULT:      -7.8      4.990      8.406
REMARK  Name = 
REMARK  8 active torsions:
REMARK  status: ('A' for Active; 'I' for Inactive)
REMARK    1  A    between atoms: C_1  and  O_2
REMARK    2  A    between atoms: O_2  and  C_3
REMARK    3  A    between atoms: C_5  and  O_6
REMARK    4  A    between atoms: O_6  and  C_7
REMARK    5  A    between atoms: C_8  and  N_9
REMARK    6  A    between atoms: C_10  and  C_12
REMARK    7  A    between atoms: C_12  and  N_13
REMARK    8  A    between atoms: C_26  and  C_27
REMARK                            x       y       z     vdW  Elec       q    Type
REMARK                         _______ _______ _______ _____ _____    ______ ____
ROOT
ATOM      1  N   UNL     1      -4.720  13.783  22.956  0.00  0.00    +0.000 N 
ATOM      2  C   UNL     1      -3.446  13.488  23.553  0.00  0.00    +0.000 A 
ATOM      3  N   UNL     1      -2.709  12.434  22.920  0.00  0.00    +0.000 N 
ATOM      4  C   UNL     1      -2.303  13.034  21.651  0.00  0.00    +0.000 C 
ATOM      5  C   UNL     1      -1.198  12.435  20.877  0.00  0.00    +0.000 C 
ATOM      6  C   UNL     1      -0.524  11.211  21.278  0.00  0.00    +0.000 A 
ATOM      7  C   UNL     1       0.336  10.703  20.279  0.00  0.00    +0.000 A 
ATOM      8  C   UNL     1       0.787   9.418  20.341  0.00  0.00    +0.000 A 
ATOM      9  C   UNL     1       0.469   8.706  21.488  0.00  0.00    +0.000 A 
ATOM     10  C   UNL     1      -0.285   9.303  22.568  0.00  0.00    +0.000 A 
ATOM     11  C   UNL     1      -0.839  10.599  22.487  0.00  0.00    +0.000 A 
ATOM     12  C   UNL     1      -1.693  11.444  23.525  0.00  0.00    +0.000 C 
ATOM     13  N   UNL     1      -2.933  14.330  24.424  0.00  0.00    +0.000 NA
ATOM     14  C   UNL     1      -3.568  15.559  24.608  0.00  0.00    +0.000 A 
ATOM     15  C   UNL     1      -2.878  16.684  25.340  0.00  0.00    +0.000 C 
ATOM     16  C   UNL     1      -4.761  15.877  24.094  0.00  0.00    +0.000 A 
ATOM     17  C   UNL     1      -5.489  14.847  23.379  0.00  0.00    +0.000 A 
ATOM     18  O   UNL     1      -6.694  14.960  23.193  0.00  0.00    +0.000 OA
ENDROOT
BRANCH   1  19
ATOM     19  C   UNL     1      -5.427  12.907  22.033  0.00  0.00    +0.000 C 
BRANCH  19  21
ATOM     20  N   UNL     1      -4.997  12.030  19.820  0.00  0.00    +0.000 N 
ATOM     21  C   UNL     1      -5.260  13.222  20.497  0.00  0.00    +0.000 C 
ATOM     22  O   UNL     1      -5.312  14.355  20.034  0.00  0.00    +0.000 OA
ATOM     23  H   UNL     1      -5.160  11.222  20.392  0.00  0.00    +0.000 HD
BRANCH  20  27
ATOM     24  C   UNL     1      -3.451  10.850  16.038  0.00  0.00    +0.000 A 
ATOM     25  C   UNL     1      -4.724  11.447  16.071  0.00  0.00    +0.000 A 
ATOM     26  C   UNL     1      -5.312  11.899  17.289  0.00  0.00    +0.000 A 
ATOM     27  C   UNL     1      -4.626  11.689  18.492  0.00  0.00    +0.000 A 
ATOM     28  C   UNL     1      -3.347  11.091  18.434  0.00  0.00    +0.000 A 
ATOM     29  C   UNL     1      -2.749  10.693  17.222  0.00  0.00    +0.000 A 
ATOM     30 CL   UNL     1      -1.113  10.149  17.332  0.00  0.00    +0.000 Cl
BRANCH  24  32
ATOM     31  C   UNL     1      -3.897   9.953  13.881  0.00  0.00    +0.000 C 
ATOM     32  O   UNL     1      -2.990  10.588  14.771  0.00  0.00    +0.000 OA
ENDBRANCH  24  32
BRANCH  26  33
ATOM     33  O   UNL     1      -6.521  12.537  17.298  0.00  0.00    +0.000 OA
ATOM     34  C   UNL     1      -6.565  13.842  16.727  0.00  0.00    +0.000 C 
ENDBRANCH  26  33
ENDBRANCH  20  27
ENDBRANCH  19  21
ENDBRANCH   1  19
TORSDOF 5
ENDMDL
MODEL 3
REMARK VINA RESULT:      -7.7      1.623      2.187
REMARK  Name = 
REMARK  8 active torsions:
REMARK  status: ('A' for Active; 'I' for Inactive)
REMARK    1  A    between atoms: C_1  and  O_2
REMARK    2  A    between atoms: O_2  and  C_3
REMARK    3  A    between atoms: C_5  and  O_6
REMARK    4  A    between atoms: O_6  and  C_7
REMARK    5  A    between atoms: C_8  and  N_9
REMARK    6  A    between atoms: C_10  and  C_12
REMARK    7  A    between atoms: C_12  and  N_13
REMARK    8  A    between atoms: C_26  and  C_27
REMARK                            x       y       z     vdW  Elec       q    Type
REMARK                         _______ _______ _______ _____ _____    ______ ____
ROOT
ATOM      1  N   UNL     1       0.593  11.699  19.246  0.00  0.00    +0.000 N 
ATOM      2  C   UNL     1      -0.162  12.871  19.597  0.00  0.00    +0.000 A 
ATOM      3  N   UNL     1      -1.293  12.632  20.446  0.00  0.00    +0.000 N 
ATOM      4  C   UNL     1      -0.675  12.289  21.725  0.00  0.00    +0.000 C 
ATOM      5  C   UNL     1      -1.472  12.362  22.967  0.00  0.00    +0.000 C 
ATOM      6  C   UNL     1      -2.888  12.690  22.980  0.00  0.00    +0.000 A 
ATOM      7  C   UNL     1      -3.492  12.477  24.239  0.00  0.00    +0.000 A 
ATOM      8  C   UNL     1      -4.848  12.412  24.354  0.00  0.00    +0.000 A 
ATOM      9  C   UNL     1      -5.581  12.701  23.212  0.00  0.00    +0.000 A 
ATOM     10  C   UNL     1      -4.938  13.068  21.971  0.00  0.00    +0.000 A 
ATOM     11  C   UNL     1      -3.536  13.052  21.802  0.00  0.00    +0.000 A 
ATOM     12  C   UNL     1      -2.623  13.404  20.552  0.00  0.00    +0.000 C 
ATOM     13  N   UNL     1       0.349  14.061  19.363  0.00  0.00    +0.000 NA
ATOM     14  C   UNL     1       1.675  14.137  18.937  0.00  0.00    +0.000 A 
ATOM     15  C   UNL     1       2.417  15.452  18.951  0.00  0.00    +0.000 C 
ATOM     16  C   UNL     1       2.416  13.084  18.578  0.00  0.00    +0.000 A 
ATOM     17  C   UNL     1       1.773  11.785  18.536  0.00  0.00    +0.000 A 
ATOM     18  O   UNL     1       2.278  10.867  17.901  0.00  0.00    +0.000 OA
ENDROOT
BRANCH   1  19
ATOM     19  C   UNL     1       0.118  10.331  19.389  0.00  0.00    +0.000 C 
BRANCH  19  21
ATOM     20  N   UNL     1       1.633   8.520  18.865  0.00  0.00    +0.000 N 
ATOM     21  C   UNL     1       1.158   9.279  19.936  0.00  0.00    +0.000 C 
ATOM     22  O   UNL     1       1.430   9.158  21.124  0.00  0.00    +0.000 OA
ATOM     23  H   UNL     1       1.382   8.912  17.977  0.00  0.00    +0.000 HD
BRANCH  20  27
ATOM     24  C   UNL     1       4.291   5.294  18.078  0.00  0.00    +0.000 A 
ATOM     25  C   UNL     1       3.387   5.156  19.146  0.00  0.00    +0.000 A 
ATOM     26  C   UNL     1       2.441   6.173  19.469  0.00  0.00    +0.000 A 
ATOM     27  C   UNL     1       2.453   7.366  18.736  0.00  0.00    +0.000 A 
ATOM     28  C   UNL     1       3.367   7.482  17.664  0.00  0.00    +0.000 A 
ATOM     29  C   UNL     1       4.266   6.453  17.318  0.00  0.00    +0.000 A 
ATOM     30 CL   UNL     1       5.177   6.703  15.872  0.00  0.00    +0.000 Cl
BRANCH  24  32
ATOM     31  C   UNL     1       4.334   2.967  17.589  0.00  0.00    +0.000 C 
ATOM     32  O   UNL     1       5.045   4.172  17.835  0.00  0.00    +0.000 OA
ENDBRANCH  24  32
BRANCH  26  33
ATOM     33  O   UNL     1       1.525   5.997  20.468  0.00  0.00    +0.000 OA
ATOM     34  C   UNL     1       1.164   4.654  20.781  0.00  0.00    +0.000 C 
ENDBRANCH  26  33
ENDBRANCH  20  27
ENDBRANCH  19  21
ENDBRANCH   1  19
TORSDOF 5
ENDMDL
MODEL 4
REMARK VINA RESULT:      -7.5      3.076     10.302
REMARK  Name = 
REMARK  8 active torsions:
REMARK  status: ('A' for Active; 'I' for Inactive)
REMARK    1  A    between atoms: C_1  and  O_2
REMARK    2  A    between atoms: O_2  and  C_3
REMARK    3  A    between atoms: C_5  and  O_6
REMARK    4  A    between atoms: O_6  and  C_7
REMARK    5  A    between atoms: C_8  and  N_9
REMARK    6  A    between atoms: C_10  and  C_12
REMARK    7  A    between atoms: C_12  and  N_13
REMARK    8  A    between atoms: C_26  and  C_27
REMARK                            x       y       z     vdW  Elec       q    Type
REMARK                         _______ _______ _______ _____ _____    ______ ____
ROOT
ATOM      1  N   UNL     1       3.079   4.596  18.473  0.00  0.00    +0.000 N 
ATOM      2  C   UNL     1       3.968   3.617  17.910  0.00  0.00    +0.000 A 
ATOM      3  N   UNL     1       4.582   3.996  16.670  0.00  0.00    +0.000 N 
ATOM      4  C   UNL     1       5.519   5.041  17.076  0.00  0.00    +0.000 C 
ATOM      5  C   UNL     1       6.629   5.418  16.178  0.00  0.00    +0.000 C 
ATOM      6  C   UNL     1       6.802   4.849  14.851  0.00  0.00    +0.000 A 
ATOM      7  C   UNL     1       7.785   5.517  14.088  0.00  0.00    +0.000 A 
ATOM      8  C   UNL     1       7.851   5.343  12.739  0.00  0.00    +0.000 A 
ATOM      9  C   UNL     1       7.005   4.386  12.196  0.00  0.00    +0.000 A 
ATOM     10  C   UNL     1       6.115   3.604  13.024  0.00  0.00    +0.000 A 
ATOM     11  C   UNL     1       5.963   3.830  14.409  0.00  0.00    +0.000 A 
ATOM     12  C   UNL     1       5.057   3.114  15.499  0.00  0.00    +0.000 C 
ATOM     13  N   UNL     1       4.361   2.603  18.650  0.00  0.00    +0.000 NA
ATOM     14  C   UNL     1       4.032   2.608  20.006  0.00  0.00    +0.000 A 
ATOM     15  C   UNL     1       4.703   1.659  20.968  0.00  0.00    +0.000 C 
ATOM     16  C   UNL     1       3.195   3.481  20.577  0.00  0.00    +0.000 A 
ATOM     17  C   UNL     1       2.509   4.425  19.717  0.00  0.00    +0.000 A 
ATOM     18  O   UNL     1       1.501   4.999  20.113  0.00  0.00    +0.000 OA
ENDROOT
BRANCH   1  19
ATOM     19  C   UNL     1       2.518   5.725  17.745  0.00  0.00    +0.000 C 
BRANCH  19  21
ATOM     20  N   UNL     1       1.771   7.592  19.090  0.00  0.00    +0.000 N 
ATOM     21  C   UNL     1       2.846   7.160  18.311  0.00  0.00    +0.000 C 
ATOM     22  O   UNL     1       3.871   7.771  18.039  0.00  0.00    +0.000 OA
ATOM     23  H   UNL     1       1.122   6.853  19.289  0.00  0.00    +0.000 HD
BRANCH  20  27
ATOM     24  C   UNL     1       0.580  10.958  21.400  0.00  0.00    +0.000 A 
ATOM     25  C   UNL     1       1.032  11.187  20.088  0.00  0.00    +0.000 A 
ATOM     26  C   UNL     1       1.426  10.119  19.230  0.00  0.00    +0.000 A 
ATOM     27  C   UNL     1       1.418   8.810  19.730  0.00  0.00    +0.000 A 
ATOM     28  C   UNL     1       0.956   8.602  21.049  0.00  0.00    +0.000 A 
ATOM     29  C   UNL     1       0.519   9.657  21.875  0.00  0.00    +0.000 A 
ATOM     30 CL   UNL     1      -0.178   9.192  23.386  0.00  0.00    +0.000 Cl
BRANCH  24  32
ATOM     31  C   UNL     1      -0.002  13.259  21.250  0.00  0.00    +0.000 C 
ATOM     32  O   UNL     1       0.127  12.085  22.040  0.00  0.00    +0.000 OA
ENDBRANCH  24  32
BRANCH  26  33
ATOM     33  O   UNL     1       1.801  10.351  17.936  0.00  0.00    +0.000 OA
ATOM     34  C   UNL     1       2.508  11.561  17.678  0.00  0.00    +0.000 C 
ENDBRANCH  26  33
ENDBRANCH  20  27
ENDBRANCH  19  21
ENDBRANCH   1  19
TORSDOF 5
ENDMDL
MODEL 5
REMARK VINA RESULT:      -7.4      3.901      8.819
REMARK  Name = 
REMARK  8 active torsions:
REMARK  status: ('A' for Active; 'I' for Inactive)
REMARK    1  A    between atoms: C_1  and  O_2
REMARK    2  A    between atoms: O_2  and  C_3
REMARK    3  A    between atoms: C_5  and  O_6
REMARK    4  A    between atoms: O_6  and  C_7
REMARK    5  A    between atoms: C_8  and  N_9
REMARK    6  A    between atoms: C_10  and  C_12
REMARK    7  A    between atoms: C_12  and  N_13
REMARK    8  A    between atoms: C_26  and  C_27
REMARK                            x       y       z     vdW  Elec       q    Type
REMARK                         _______ _______ _______ _____ _____    ______ ____
ROOT
ATOM      1  N   UNL     1       0.170  12.047  19.725  0.00  0.00    +0.000 N 
ATOM      2  C   UNL     1      -0.030  10.936  18.834  0.00  0.00    +0.000 A 
ATOM      3  N   UNL     1       1.007   9.946  18.859  0.00  0.00    +0.000 N 
ATOM      4  C   UNL     1       0.823   9.311  20.162  0.00  0.00    +0.000 C 
ATOM      5  C   UNL     1       1.419   7.985  20.422  0.00  0.00    +0.000 C 
ATOM      6  C   UNL     1       2.260   7.293  19.459  0.00  0.00    +0.000 A 
ATOM      7  C   UNL     1       2.902   6.158  20.003  0.00  0.00    +0.000 A 
ATOM      8  C   UNL     1       3.963   5.590  19.364  0.00  0.00    +0.000 A 
ATOM      9  C   UNL     1       4.274   6.097  18.111  0.00  0.00    +0.000 A 
ATOM     10  C   UNL     1       3.501   7.160  17.509  0.00  0.00    +0.000 A 
ATOM     11  C   UNL     1       2.458   7.825  18.189  0.00  0.00    +0.000 A 
ATOM     12  C   UNL     1       1.493   9.004  17.740  0.00  0.00    +0.000 C 
ATOM     13  N   UNL     1      -1.210  10.758  18.281  0.00  0.00    +0.000 NA
ATOM     14  C   UNL     1      -2.268  11.558  18.711  0.00  0.00    +0.000 A 
ATOM     15  C   UNL     1      -3.694  11.209  18.360  0.00  0.00    +0.000 C 
ATOM     16  C   UNL     1      -2.137  12.615  19.520  0.00  0.00    +0.000 A 
ATOM     17  C   UNL     1      -0.796  13.016  19.900  0.00  0.00    +0.000 A 
ATOM     18  O   UNL     1      -0.590  14.142  20.336  0.00  0.00    +0.000 OA
ENDROOT
BRANCH   1  19
ATOM     19  C   UNL     1       1.438  12.395  20.349  0.00  0.00    +0.000 C 
BRANCH  19  21
ATOM     20  N   UNL     1       3.165  14.078  20.170  0.00  0.00    +0.000 N 
ATOM     21  C   UNL     1       2.506  13.097  19.427  0.00  0.00    +0.000 C 
ATOM     22  O   UNL     1       2.657  12.821  18.243  0.00  0.00    +0.000 OA
ATOM     23  H   UNL     1       2.976  14.004  21.153  0.00  0.00    +0.000 HD
BRANCH  20  27
ATOM     24  C   UNL     1       6.249  16.960  19.645  0.00  0.00    +0.000 A 
ATOM     25  C   UNL     1       5.095  17.078  18.850  0.00  0.00    +0.000 A 
ATOM     26  C   UNL     1       3.998  16.176  18.974  0.00  0.00    +0.000 A 
ATOM     27  C   UNL     1       4.100  15.106  19.873  0.00  0.00    +0.000 A 
ATOM     28  C   UNL     1       5.266  15.008  20.665  0.00  0.00    +0.000 A 
ATOM     29  C   UNL     1       6.326  15.933  20.574  0.00  0.00    +0.000 A 
ATOM     30 CL   UNL     1       7.584  15.756  21.744  0.00  0.00    +0.000 Cl
BRANCH  24  32
ATOM     31  C   UNL     1       8.304  17.696  18.702  0.00  0.00    +0.000 C 
ATOM     32  O   UNL     1       7.150  17.982  19.479  0.00  0.00    +0.000 OA
ENDBRANCH  24  32
BRANCH  26  33
ATOM     33  O   UNL     1       2.857  16.343  18.242  0.00  0.00    +0.000 OA
ATOM     34  C   UNL     1       2.992  16.987  16.978  0.00  0.00    +0.000 C 
ENDBRANCH  26  33
ENDBRANCH  20  27
ENDBRANCH  19  21
ENDBRANCH   1  19
TORSDOF 5
ENDMDL
MODEL 6
REMARK VINA RESULT:      -7.4      3.651      8.751
REMARK  Name = 
REMARK  8 active torsions:
REMARK  status: ('A' for Active; 'I' for Inactive)
REMARK    1  A    between atoms: C_1  and  O_2
REMARK    2  A    between atoms: O_2  and  C_3
REMARK    3  A    between atoms: C_5  and  O_6
REMARK    4  A    between atoms: O_6  and  C_7
REMARK    5  A    between atoms: C_8  and  N_9
REMARK    6  A    between atoms: C_10  and  C_12
REMARK    7  A    between atoms: C_12  and  N_13
REMARK    8  A    between atoms: C_26  and  C_27
REMARK                            x       y       z     vdW  Elec       q    Type
REMARK                         _______ _______ _______ _____ _____    ______ ____
ROOT
ATOM      1  N   UNL     1       0.255  12.013  18.830  0.00  0.00    +0.000 N 
ATOM      2  C   UNL     1       1.041  11.292  19.794  0.00  0.00    +0.000 A 
ATOM      3  N   UNL     1       1.132   9.879  19.565  0.00  0.00    +0.000 N 
ATOM      4  C   UNL     1       1.977   9.793  18.377  0.00  0.00    +0.000 C 
ATOM      5  C   UNL     1       2.645   8.518  18.043  0.00  0.00    +0.000 C 
ATOM      6  C   UNL     1       2.445   7.297  18.805  0.00  0.00    +0.000 A 
ATOM      7  C   UNL     1       2.995   6.158  18.177  0.00  0.00    +0.000 A 
ATOM      8  C   UNL     1       2.626   4.906  18.567  0.00  0.00    +0.000 A 
ATOM      9  C   UNL     1       1.805   4.822  19.682  0.00  0.00    +0.000 A 
ATOM     10  C   UNL     1       1.381   6.001  20.402  0.00  0.00    +0.000 A 
ATOM     11  C   UNL     1       1.674   7.311  19.964  0.00  0.00    +0.000 A 
ATOM     12  C   UNL     1       1.314   8.730  20.577  0.00  0.00    +0.000 C 
ATOM     13  N   UNL     1       1.814  11.959  20.623  0.00  0.00    +0.000 NA
ATOM     14  C   UNL     1       1.967  13.331  20.425  0.00  0.00    +0.000 A 
ATOM     15  C   UNL     1       3.063  14.097  21.126  0.00  0.00    +0.000 C 
ATOM     16  C   UNL     1       1.248  14.055  19.559  0.00  0.00    +0.000 A 
ATOM     17  C   UNL     1       0.173  13.390  18.848  0.00  0.00    +0.000 A 
ATOM     18  O   UNL     1      -0.717  14.048  18.324  0.00  0.00    +0.000 OA
ENDROOT
BRANCH   1  19
ATOM     19  C   UNL     1      -0.687  11.404  17.903  0.00  0.00    +0.000 C 
BRANCH  19  21
ATOM     20  N   UNL     1      -2.732  12.103  18.990  0.00  0.00    +0.000 N 
ATOM     21  C   UNL     1      -2.080  10.970  18.499  0.00  0.00    +0.000 C 
ATOM     22  O   UNL     1      -2.458   9.806  18.544  0.00  0.00    +0.000 OA
ATOM     23  H   UNL     1      -2.291  12.955  18.695  0.00  0.00    +0.000 HD
BRANCH  20  27
ATOM     24  C   UNL     1      -5.968  12.860  21.643  0.00  0.00    +0.000 A 
ATOM     25  C   UNL     1      -6.272  12.560  20.303  0.00  0.00    +0.000 A 
ATOM     26  C   UNL     1      -5.255  12.266  19.348  0.00  0.00    +0.000 A 
ATOM     27  C   UNL     1      -3.914  12.336  19.743  0.00  0.00    +0.000 A 
ATOM     28  C   UNL     1      -3.631  12.634  21.096  0.00  0.00    +0.000 A 
ATOM     29  C   UNL     1      -4.642  12.873  22.048  0.00  0.00    +0.000 A 
ATOM     30 CL   UNL     1      -4.113  13.042  23.683  0.00  0.00    +0.000 Cl
BRANCH  24  32
ATOM     31  C   UNL     1      -7.423  14.319  22.831  0.00  0.00    +0.000 C 
ATOM     32  O   UNL     1      -7.072  12.997  22.449  0.00  0.00    +0.000 OA
ENDBRANCH  24  32
BRANCH  26  33
ATOM     33  O   UNL     1      -5.569  11.913  18.065  0.00  0.00    +0.000 OA
ATOM     34  C   UNL     1      -6.655  12.605  17.454  0.00  0.00    +0.000 C 
ENDBRANCH  26  33
ENDBRANCH  20  27
ENDBRANCH  19  21
ENDBRANCH   1  19
TORSDOF 5
ENDMDL
MODEL 7
REMARK VINA RESULT:      -7.3      3.358     10.542
REMARK  Name = 
REMARK  8 active torsions:
REMARK  status: ('A' for Active; 'I' for Inactive)
REMARK    1  A    between atoms: C_1  and  O_2
REMARK    2  A    between atoms: O_2  and  C_3
REMARK    3  A    between atoms: C_5  and  O_6
REMARK    4  A    between atoms: O_6  and  C_7
REMARK    5  A    between atoms: C_8  and  N_9
REMARK    6  A    between atoms: C_10  and  C_12
REMARK    7  A    between atoms: C_12  and  N_13
REMARK    8  A    between atoms: C_26  and  C_27
REMARK                            x       y       z     vdW  Elec       q    Type
REMARK                         _______ _______ _______ _____ _____    ______ ____
ROOT
ATOM      1  N   UNL     1       3.091   4.727  18.334  0.00  0.00    +0.000 N 
ATOM      2  C   UNL     1       3.962   3.722  17.787  0.00  0.00    +0.000 A 
ATOM      3  N   UNL     1       4.590   4.073  16.547  0.00  0.00    +0.000 N 
ATOM      4  C   UNL     1       5.547   5.103  16.944  0.00  0.00    +0.000 C 
ATOM      5  C   UNL     1       6.669   5.446  16.047  0.00  0.00    +0.000 C 
ATOM      6  C   UNL     1       6.837   4.856  14.729  0.00  0.00    +0.000 A 
ATOM      7  C   UNL     1       7.838   5.495  13.963  0.00  0.00    +0.000 A 
ATOM      8  C   UNL     1       7.906   5.302  12.616  0.00  0.00    +0.000 A 
ATOM      9  C   UNL     1       7.043   4.357  12.081  0.00  0.00    +0.000 A 
ATOM     10  C   UNL     1       6.133   3.603  12.914  0.00  0.00    +0.000 A 
ATOM     11  C   UNL     1       5.979   3.850  14.295  0.00  0.00    +0.000 A 
ATOM     12  C   UNL     1       5.053   3.167  15.389  0.00  0.00    +0.000 C 
ATOM     13  N   UNL     1       4.331   2.710  18.543  0.00  0.00    +0.000 NA
ATOM     14  C   UNL     1       3.995   2.739  19.896  0.00  0.00    +0.000 A 
ATOM     15  C   UNL     1       4.641   1.788  20.874  0.00  0.00    +0.000 C 
ATOM     16  C   UNL     1       3.174   3.636  20.452  0.00  0.00    +0.000 A 
ATOM     17  C   UNL     1       2.511   4.584  19.577  0.00  0.00    +0.000 A 
ATOM     18  O   UNL     1       1.514   5.183  19.960  0.00  0.00    +0.000 OA
ENDROOT
BRANCH   1  19
ATOM     19  C   UNL     1       2.558   5.858  17.589  0.00  0.00    +0.000 C 
BRANCH  19  21
ATOM     20  N   UNL     1       1.769   7.848  18.716  0.00  0.00    +0.000 N 
ATOM     21  C   UNL     1       2.912   7.292  18.139  0.00  0.00    +0.000 C 
ATOM     22  O   UNL     1       4.016   7.808  18.009  0.00  0.00    +0.000 OA
ATOM     23  H   UNL     1       1.037   7.172  18.840  0.00  0.00    +0.000 HD
BRANCH  20  27
ATOM     24  C   UNL     1       0.986  11.860  19.889  0.00  0.00    +0.000 A 
ATOM     25  C   UNL     1       0.521  10.828  20.723  0.00  0.00    +0.000 A 
ATOM     26  C   UNL     1       0.759   9.453  20.426  0.00  0.00    +0.000 A 
ATOM     27  C   UNL     1       1.424   9.123  19.239  0.00  0.00    +0.000 A 
ATOM     28  C   UNL     1       1.887  10.176  18.417  0.00  0.00    +0.000 A 
ATOM     29  C   UNL     1       1.693  11.534  18.742  0.00  0.00    +0.000 A 
ATOM     30 CL   UNL     1       2.483  12.675  17.714  0.00  0.00    +0.000 Cl
BRANCH  24  32
ATOM     31  C   UNL     1       0.035  13.212  21.599  0.00  0.00    +0.000 C 
ATOM     32  O   UNL     1       0.774  13.121  20.389  0.00  0.00    +0.000 OA
ENDBRANCH  24  32
BRANCH  26  33
ATOM     33  O   UNL     1       0.358   8.464  21.280  0.00  0.00    +0.000 OA
ATOM     34  C   UNL     1      -0.406   8.864  22.414  0.00  0.00    +0.000 C 
ENDBRANCH  26  33
ENDBRANCH  20  27
ENDBRANCH  19  21
ENDBRANCH   1  19
TORSDOF 5
ENDMDL
MODEL 8
REMARK VINA RESULT:      -7.3      1.844      5.200
REMARK  Name = 
REMARK  8 active torsions:
REMARK  status: ('A' for Active; 'I' for Inactive)
REMARK    1  A    between atoms: C_1  and  O_2
REMARK    2  A    between atoms: O_2  and  C_3
REMARK    3  A    between atoms: C_5  and  O_6
REMARK    4  A    between atoms: O_6  and  C_7
REMARK    5  A    between atoms: C_8  and  N_9
REMARK    6  A    between atoms: C_10  and  C_12
REMARK    7  A    between atoms: C_12  and  N_13
REMARK    8  A    between atoms: C_26  and  C_27
REMARK                            x       y       z     vdW  Elec       q    Type
REMARK                         _______ _______ _______ _____ _____    ______ ____
ROOT
ATOM      1  N   UNL     1      -0.155  11.601  22.224  0.00  0.00    +0.000 N 
ATOM      2  C   UNL     1      -0.050  13.028  22.085  0.00  0.00    +0.000 A 
ATOM      3  N   UNL     1       1.035  13.479  21.263  0.00  0.00    +0.000 N 
ATOM      4  C   UNL     1       0.612  13.087  19.920  0.00  0.00    +0.000 C 
ATOM      5  C   UNL     1       1.244  13.713  18.741  0.00  0.00    +0.000 C 
ATOM      6  C   UNL     1       2.339  14.664  18.842  0.00  0.00    +0.000 A 
ATOM      7  C   UNL     1       2.934  14.953  17.594  0.00  0.00    +0.000 A 
ATOM      8  C   UNL     1       4.158  15.550  17.532  0.00  0.00    +0.000 A 
ATOM      9  C   UNL     1       4.703  15.970  18.736  0.00  0.00    +0.000 A 
ATOM     10  C   UNL     1       4.000  15.799  19.988  0.00  0.00    +0.000 A 
ATOM     11  C   UNL     1       2.776  15.103  20.088  0.00  0.00    +0.000 A 
ATOM     12  C   UNL     1       1.843  14.790  21.333  0.00  0.00    +0.000 C 
ATOM     13  N   UNL     1      -1.053  13.788  22.470  0.00  0.00    +0.000 NA
ATOM     14  C   UNL     1      -2.246  13.169  22.842  0.00  0.00    +0.000 A 
ATOM     15  C   UNL     1      -3.518  13.967  22.989  0.00  0.00    +0.000 C 
ATOM     16  C   UNL     1      -2.394  11.850  23.007  0.00  0.00    +0.000 A 
ATOM     17  C   UNL     1      -1.215  11.015  22.884  0.00  0.00    +0.000 A 
ATOM     18  O   UNL     1      -1.212   9.883  23.351  0.00  0.00    +0.000 OA
ENDROOT
BRANCH   1  19
ATOM     19  C   UNL     1       0.902  10.655  21.900  0.00  0.00    +0.000 C 
BRANCH  19  21
ATOM     20  N   UNL     1       1.538   8.562  20.868  0.00  0.00    +0.000 N 
ATOM     21  C   UNL     1       0.555   9.552  20.828  0.00  0.00    +0.000 C 
ATOM     22  O   UNL     1      -0.407   9.627  20.074  0.00  0.00    +0.000 OA
ATOM     23  H   UNL     1       2.131   8.644  21.673  0.00  0.00    +0.000 HD
BRANCH  20  27
ATOM     24  C   UNL     1       2.311   4.871  18.900  0.00  0.00    +0.000 A 
ATOM     25  C   UNL     1       2.642   6.060  18.224  0.00  0.00    +0.000 A 
ATOM     26  C   UNL     1       2.444   7.343  18.815  0.00  0.00    +0.000 A 
ATOM     27  C   UNL     1       1.849   7.421  20.080  0.00  0.00    +0.000 A 
ATOM     28  C   UNL     1       1.528   6.214  20.743  0.00  0.00    +0.000 A 
ATOM     29  C   UNL     1       1.773   4.948  20.175  0.00  0.00    +0.000 A 
ATOM     30 CL   UNL     1       1.483   3.592  21.205  0.00  0.00    +0.000 Cl
BRANCH  24  32
ATOM     31  C   UNL     1       3.821   3.820  17.394  0.00  0.00    +0.000 C 
ATOM     32  O   UNL     1       2.680   3.729  18.234  0.00  0.00    +0.000 OA
ENDBRANCH  24  32
BRANCH  26  33
ATOM     33  O   UNL     1       2.831   8.485  18.173  0.00  0.00    +0.000 OA
ATOM     34  C   UNL     1       1.807   9.244  17.535  0.00  0.00    +0.000 C 
ENDBRANCH  26  33
ENDBRANCH  20  27
ENDBRANCH  19  21
ENDBRANCH   1  19
TORSDOF 5
ENDMDL
MODEL 9
REMARK VINA RESULT:      -7.3      2.218      3.475
REMARK  Name = 
REMARK  8 active torsions:
REMARK  status: ('A' for Active; 'I' for Inactive)
REMARK    1  A    between atoms: C_1  and  O_2
REMARK    2  A    between atoms: O_2  and  C_3
REMARK    3  A    between atoms: C_5  and  O_6
REMARK    4  A    between atoms: O_6  and  C_7
REMARK    5  A    between atoms: C_8  and  N_9
REMARK    6  A    between atoms: C_10  and  C_12
REMARK    7  A    between atoms: C_12  and  N_13
REMARK    8  A    between atoms: C_26  and  C_27
REMARK                            x       y       z     vdW  Elec       q    Type
REMARK                         _______ _______ _______ _____ _____    ______ ____
ROOT
ATOM      1  N   UNL     1       0.358  13.450  19.688  0.00  0.00    +0.000 N 
ATOM      2  C   UNL     1       0.052  14.218  20.864  0.00  0.00    +0.000 A 
ATOM      3  N   UNL     1      -1.268  14.022  21.390  0.00  0.00    +0.000 N 
ATOM      4  C   UNL     1      -1.206  12.668  21.935  0.00  0.00    +0.000 C 
ATOM      5  C   UNL     1      -2.218  12.226  22.915  0.00  0.00    +0.000 C 
ATOM      6  C   UNL     1      -3.341  13.055  23.322  0.00  0.00    +0.000 A 
ATOM      7  C   UNL     1      -4.299  12.350  24.085  0.00  0.00    +0.000 A 
ATOM      8  C   UNL     1      -5.549  12.860  24.268  0.00  0.00    +0.000 A 
ATOM      9  C   UNL     1      -5.770  14.143  23.789  0.00  0.00    +0.000 A 
ATOM     10  C   UNL     1      -4.723  14.904  23.147  0.00  0.00    +0.000 A 
ATOM     11  C   UNL     1      -3.450  14.365  22.864  0.00  0.00    +0.000 A 
ATOM     12  C   UNL     1      -2.168  14.998  22.173  0.00  0.00    +0.000 C 
ATOM     13  N   UNL     1       1.027  14.813  21.516  0.00  0.00    +0.000 NA
ATOM     14  C   UNL     1       2.340  14.537  21.135  0.00  0.00    +0.000 A 
ATOM     15  C   UNL     1       3.500  14.926  22.020  0.00  0.00    +0.000 C 
ATOM     16  C   UNL     1       2.682  13.848  20.041  0.00  0.00    +0.000 A 
ATOM     17  C   UNL     1       1.623  13.441  19.138  0.00  0.00    +0.000 A 
ATOM     18  O   UNL     1       1.885  13.125  17.984  0.00  0.00    +0.000 OA
ENDROOT
BRANCH   1  19
ATOM     19  C   UNL     1      -0.631  12.799  18.841  0.00  0.00    +0.000 C 
BRANCH  19  21
ATOM     20  N   UNL     1       0.414  10.741  19.565  0.00  0.00    +0.000 N 
ATOM     21  C   UNL     1      -0.752  11.233  18.977  0.00  0.00    +0.000 C 
ATOM     22  O   UNL     1      -1.716  10.596  18.571  0.00  0.00    +0.000 OA
ATOM     23  H   UNL     1       0.985  11.471  19.950  0.00  0.00    +0.000 HD
BRANCH  20  27
ATOM     24  C   UNL     1       2.249   6.916  19.872  0.00  0.00    +0.000 A 
ATOM     25  C   UNL     1       1.363   7.305  20.893  0.00  0.00    +0.000 A 
ATOM     26  C   UNL     1       0.681   8.557  20.862  0.00  0.00    +0.000 A 
ATOM     27  C   UNL     1       0.947   9.448  19.815  0.00  0.00    +0.000 A 
ATOM     28  C   UNL     1       1.837   9.035  18.797  0.00  0.00    +0.000 A 
ATOM     29  C   UNL     1       2.469   7.775  18.806  0.00  0.00    +0.000 A 
ATOM     30 CL   UNL     1       3.378   7.378  17.393  0.00  0.00    +0.000 Cl
BRANCH  24  32
ATOM     31  C   UNL     1       1.942   4.742  20.786  0.00  0.00    +0.000 C 
ATOM     32  O   UNL     1       2.721   5.633  20.001  0.00  0.00    +0.000 OA
ENDBRANCH  24  32
BRANCH  26  33
ATOM     33  O   UNL     1      -0.227   8.893  21.827  0.00  0.00    +0.000 OA
ATOM     34  C   UNL     1       0.292   9.442  23.036  0.00  0.00    +0.000 C 
ENDBRANCH  26  33
ENDBRANCH  20  27
ENDBRANCH  19  21
ENDBRANCH   1  19
TORSDOF 5
ENDMDL
