MODEL 1
REMARK VINA RESULT:      -6.4      0.000      0.000
REMARK  Name = 
REMARK  7 active torsions:
REMARK  status: ('A' for Active; 'I' for Inactive)
REMARK    1  A    between atoms: C_1  and  N_2
REMARK    2  A    between atoms: N_2  and  C_3
REMARK    3  A    between atoms: N_2  and  N_4
REMARK    4  A    between atoms: N_5  and  C_6
REMARK    5  A    between atoms: N_12  and  C_13
REMARK    6  A    between atoms: N_16  and  C_17
REMARK    7  A    between atoms: N_18  and  C_19
REMARK                            x       y       z     vdW  Elec       q    Type
REMARK                         _______ _______ _______ _____ _____    ______ ____
ROOT
ATOM      1  C   UNL     1       5.236   4.503  16.218  0.00  0.00    +0.000 A 
ATOM      2  N   UNL     1       4.860   3.360  16.784  0.00  0.00    +0.000 NA
ATOM      3  C   UNL     1       4.029   3.702  17.804  0.00  0.00    +0.000 A 
ATOM      4  C   UNL     1       3.878   5.051  17.907  0.00  0.00    +0.000 A 
ATOM      5  C   UNL     1       3.041   5.657  18.892  0.00  0.00    +0.000 A 
ATOM      6  O   UNL     1       2.898   6.870  18.994  0.00  0.00    +0.000 OA
ATOM      7  N   UNL     1       2.401   4.727  19.715  0.00  0.00    +0.000 N 
ATOM      8  C   UNL     1       1.510   5.224  20.748  0.00  0.00    +0.000 C 
ATOM      9  C   UNL     1       2.539   3.327  19.639  0.00  0.00    +0.000 A 
ATOM     10  O   UNL     1       1.929   2.587  20.416  0.00  0.00    +0.000 OA
ATOM     11  N   UNL     1       3.388   2.826  18.650  0.00  0.00    +0.000 N 
ATOM     12  C   UNL     1       3.574   1.395  18.508  0.00  0.00    +0.000 C 
ATOM     13  N   UNL     1       4.665   5.568  16.911  0.00  0.00    +0.000 N 
ATOM     14  C   UNL     1       4.866   6.964  16.607  0.00  0.00    +0.000 C 
ENDROOT
BRANCH   1  16
ATOM     15  N   UNL     1       5.918   3.876  14.220  0.00  0.00    +0.000 NA
ATOM     16  N   UNL     1       6.034   4.725  15.131  0.00  0.00    +0.000 NA
BRANCH  15  18
ATOM     17  C   UNL     1       6.467   3.279  11.955  0.00  0.00    +0.000 C 
ATOM     18  N   UNL     1       6.716   4.102  13.123  0.00  0.00    +0.000 N 
ATOM     19  C   UNL     1       7.723   5.141  13.085  0.00  0.00    +0.000 C 
ENDBRANCH  15  18
ENDBRANCH   1  16
TORSDOF 2
ENDMDL
MODEL 2
REMARK VINA RESULT:      -6.1      3.304      6.900
REMARK  Name = 
REMARK  7 active torsions:
REMARK  status: ('A' for Active; 'I' for Inactive)
REMARK    1  A    between atoms: C_1  and  N_2
REMARK    2  A    between atoms: N_2  and  C_3
REMARK    3  A    between atoms: N_2  and  N_4
REMARK    4  A    between atoms: N_5  and  C_6
REMARK    5  A    between atoms: N_12  and  C_13
REMARK    6  A    between atoms: N_16  and  C_17
REMARK    7  A    between atoms: N_18  and  C_19
REMARK                            x       y       z     vdW  Elec       q    Type
REMARK                         _______ _______ _______ _____ _____    ______ ____
ROOT
ATOM      1  C   UNL     1       1.662   7.687  20.172  0.00  0.00    +0.000 A 
ATOM      2  N   UNL     1       1.666   6.515  20.799  0.00  0.00    +0.000 NA
ATOM      3  C   UNL     1       2.401   5.676  20.022  0.00  0.00    +0.000 A 
ATOM      4  C   UNL     1       2.856   6.292  18.897  0.00  0.00    +0.000 A 
ATOM      5  C   UNL     1       3.666   5.624  17.929  0.00  0.00    +0.000 A 
ATOM      6  O   UNL     1       4.081   6.168  16.913  0.00  0.00    +0.000 OA
ATOM      7  N   UNL     1       3.938   4.296  18.266  0.00  0.00    +0.000 N 
ATOM      8  C   UNL     1       4.766   3.516  17.363  0.00  0.00    +0.000 C 
ATOM      9  C   UNL     1       3.480   3.626  19.417  0.00  0.00    +0.000 A 
ATOM     10  O   UNL     1       3.776   2.446  19.625  0.00  0.00    +0.000 OA
ATOM     11  N   UNL     1       2.685   4.358  20.302  0.00  0.00    +0.000 N 
ATOM     12  C   UNL     1       2.181   3.738  21.512  0.00  0.00    +0.000 C 
ATOM     13  N   UNL     1       2.368   7.571  18.976  0.00  0.00    +0.000 N 
ATOM     14  C   UNL     1       2.554   8.627  18.012  0.00  0.00    +0.000 C 
ENDROOT
BRANCH   1  16
ATOM     15  N   UNL     1       0.200   8.786  21.397  0.00  0.00    +0.000 NA
ATOM     16  N   UNL     1       1.104   8.880  20.539  0.00  0.00    +0.000 NA
BRANCH  15  18
ATOM     17  C   UNL     1      -0.747  10.118  23.164  0.00  0.00    +0.000 C 
ATOM     18  N   UNL     1      -0.359   9.986  21.773  0.00  0.00    +0.000 N 
ATOM     19  C   UNL     1      -0.510  11.100  20.862  0.00  0.00    +0.000 C 
ENDBRANCH  15  18
ENDBRANCH   1  16
TORSDOF 2
ENDMDL
MODEL 3
REMARK VINA RESULT:      -6.1      0.749      1.107
REMARK  Name = 
REMARK  7 active torsions:
REMARK  status: ('A' for Active; 'I' for Inactive)
REMARK    1  A    between atoms: C_1  and  N_2
REMARK    2  A    between atoms: N_2  and  C_3
REMARK    3  A    between atoms: N_2  and  N_4
REMARK    4  A    between atoms: N_5  and  C_6
REMARK    5  A    between atoms: N_12  and  C_13
REMARK    6  A    between atoms: N_16  and  C_17
REMARK    7  A    between atoms: N_18  and  C_19
REMARK                            x       y       z     vdW  Elec       q    Type
REMARK                         _______ _______ _______ _____ _____    ______ ____
ROOT
ATOM      1  C   UNL     1       5.062   4.195  16.425  0.00  0.00    +0.000 A 
ATOM      2  N   UNL     1       4.409   3.267  17.116  0.00  0.00    +0.000 NA
ATOM      3  C   UNL     1       3.641   3.939  18.015  0.00  0.00    +0.000 A 
ATOM      4  C   UNL     1       3.805   5.287  17.916  0.00  0.00    +0.000 A 
ATOM      5  C   UNL     1       3.094   6.209  18.741  0.00  0.00    +0.000 A 
ATOM      6  O   UNL     1       3.233   7.424  18.662  0.00  0.00    +0.000 OA
ATOM      7  N   UNL     1       2.223   5.584  19.638  0.00  0.00    +0.000 N 
ATOM      8  C   UNL     1       1.433   6.422  20.522  0.00  0.00    +0.000 C 
ATOM      9  C   UNL     1       2.034   4.195  19.770  0.00  0.00    +0.000 A 
ATOM     10  O   UNL     1       1.239   3.739  20.596  0.00  0.00    +0.000 OA
ATOM     11  N   UNL     1       2.780   3.370  18.926  0.00  0.00    +0.000 N 
ATOM     12  C   UNL     1       2.634   1.929  19.000  0.00  0.00    +0.000 C 
ATOM     13  N   UNL     1       4.729   5.455  16.917  0.00  0.00    +0.000 N 
ATOM     14  C   UNL     1       5.261   6.706  16.436  0.00  0.00    +0.000 C 
ENDROOT
BRANCH   1  16
ATOM     15  N   UNL     1       5.400   4.137  14.250  0.00  0.00    +0.000 NA
ATOM     16  N   UNL     1       5.932   4.063  15.378  0.00  0.00    +0.000 NA
BRANCH  15  18
ATOM     17  C   UNL     1       7.451   4.858  13.219  0.00  0.00    +0.000 C 
ATOM     18  N   UNL     1       6.275   4.010  13.196  0.00  0.00    +0.000 N 
ATOM     19  C   UNL     1       6.088   3.046  12.133  0.00  0.00    +0.000 C 
ENDBRANCH  15  18
ENDBRANCH   1  16
TORSDOF 2
ENDMDL
MODEL 4
REMARK VINA RESULT:      -5.8      3.718      6.414
REMARK  Name = 
REMARK  7 active torsions:
REMARK  status: ('A' for Active; 'I' for Inactive)
REMARK    1  A    between atoms: C_1  and  N_2
REMARK    2  A    between atoms: N_2  and  C_3
REMARK    3  A    between atoms: N_2  and  N_4
REMARK    4  A    between atoms: N_5  and  C_6
REMARK    5  A    between atoms: N_12  and  C_13
REMARK    6  A    between atoms: N_16  and  C_17
REMARK    7  A    between atoms: N_18  and  C_19
REMARK                            x       y       z     vdW  Elec       q    Type
REMARK                         _______ _______ _______ _____ _____    ______ ____
ROOT
ATOM      1  C   UNL     1       2.135   8.401  18.758  0.00  0.00    +0.000 A 
ATOM      2  N   UNL     1       2.991   8.053  17.802  0.00  0.00    +0.000 NA
ATOM      3  C   UNL     1       3.435   6.810  18.130  0.00  0.00    +0.000 A 
ATOM      4  C   UNL     1       2.885   6.364  19.291  0.00  0.00    +0.000 A 
ATOM      5  C   UNL     1       3.182   5.078  19.837  0.00  0.00    +0.000 A 
ATOM      6  O   UNL     1       2.693   4.665  20.882  0.00  0.00    +0.000 OA
ATOM      7  N   UNL     1       4.077   4.344  19.055  0.00  0.00    +0.000 N 
ATOM      8  C   UNL     1       4.444   3.012  19.501  0.00  0.00    +0.000 C 
ATOM      9  C   UNL     1       4.668   4.778  17.852  0.00  0.00    +0.000 A 
ATOM     10  O   UNL     1       5.451   4.052  17.233  0.00  0.00    +0.000 OA
ATOM     11  N   UNL     1       4.325   6.054  17.401  0.00  0.00    +0.000 N 
ATOM     12  C   UNL     1       4.890   6.566  16.167  0.00  0.00    +0.000 C 
ATOM     13  N   UNL     1       2.071   7.385  19.709  0.00  0.00    +0.000 N 
ATOM     14  C   UNL     1       1.270   7.415  20.909  0.00  0.00    +0.000 C 
ENDROOT
BRANCH   1  16
ATOM     15  N   UNL     1       0.414   9.606  18.099  0.00  0.00    +0.000 NA
ATOM     16  N   UNL     1       1.378   9.531  18.893  0.00  0.00    +0.000 NA
BRANCH  15  18
ATOM     17  C   UNL     1      -1.739  10.643  17.822  0.00  0.00    +0.000 C 
ATOM     18  N   UNL     1      -0.353  10.739  18.237  0.00  0.00    +0.000 N 
ATOM     19  C   UNL     1       0.154  11.964  18.819  0.00  0.00    +0.000 C 
ENDBRANCH  15  18
ENDBRANCH   1  16
TORSDOF 2
ENDMDL
MODEL 5
REMARK VINA RESULT:      -5.8      3.484      6.900
REMARK  Name = 
REMARK  7 active torsions:
REMARK  status: ('A' for Active; 'I' for Inactive)
REMARK    1  A    between atoms: C_1  and  N_2
REMARK    2  A    between atoms: N_2  and  C_3
REMARK    3  A    between atoms: N_2  and  N_4
REMARK    4  A    between atoms: N_5  and  C_6
REMARK    5  A    between atoms: N_12  and  C_13
REMARK    6  A    between atoms: N_16  and  C_17
REMARK    7  A    between atoms: N_18  and  C_19
REMARK                            x       y       z     vdW  Elec       q    Type
REMARK                         _______ _______ _______ _____ _____    ______ ____
ROOT
ATOM      1  C   UNL     1       1.574   7.878  19.939  0.00  0.00    +0.000 A 
ATOM      2  N   UNL     1       1.676   6.705  20.556  0.00  0.00    +0.000 NA
ATOM      3  C   UNL     1       2.547   5.968  19.817  0.00  0.00    +0.000 A 
ATOM      4  C   UNL     1       2.994   6.650  18.727  0.00  0.00    +0.000 A 
ATOM      5  C   UNL     1       3.931   6.094  17.804  0.00  0.00    +0.000 A 
ATOM      6  O   UNL     1       4.340   6.698  16.819  0.00  0.00    +0.000 OA
ATOM      7  N   UNL     1       4.334   4.800  18.144  0.00  0.00    +0.000 N 
ATOM      8  C   UNL     1       5.298   4.135  17.287  0.00  0.00    +0.000 C 
ATOM      9  C   UNL     1       3.888   4.065  19.260  0.00  0.00    +0.000 A 
ATOM     10  O   UNL     1       4.305   2.923  19.475  0.00  0.00    +0.000 OA
ATOM     11  N   UNL     1       2.964   4.687  20.102  0.00  0.00    +0.000 N 
ATOM     12  C   UNL     1       2.464   3.994  21.274  0.00  0.00    +0.000 C 
ATOM     13  N   UNL     1       2.358   7.862  18.788  0.00  0.00    +0.000 N 
ATOM     14  C   UNL     1       2.478   8.949  17.846  0.00  0.00    +0.000 C 
ENDROOT
BRANCH   1  16
ATOM     15  N   UNL     1       1.077   9.409  21.443  0.00  0.00    +0.000 NA
ATOM     16  N   UNL     1       0.862   8.994  20.283  0.00  0.00    +0.000 NA
BRANCH  15  18
ATOM     17  C   UNL     1       0.646  11.740  21.033  0.00  0.00    +0.000 C 
ATOM     18  N   UNL     1       0.366  10.534  21.788  0.00  0.00    +0.000 N 
ATOM     19  C   UNL     1      -0.660  10.532  22.810  0.00  0.00    +0.000 C 
ENDBRANCH  15  18
ENDBRANCH   1  16
TORSDOF 2
ENDMDL
MODEL 6
REMARK VINA RESULT:      -5.8      4.958      7.314
REMARK  Name = 
REMARK  7 active torsions:
REMARK  status: ('A' for Active; 'I' for Inactive)
REMARK    1  A    between atoms: C_1  and  N_2
REMARK    2  A    between atoms: N_2  and  C_3
REMARK    3  A    between atoms: N_2  and  N_4
REMARK    4  A    between atoms: N_5  and  C_6
REMARK    5  A    between atoms: N_12  and  C_13
REMARK    6  A    between atoms: N_16  and  C_17
REMARK    7  A    between atoms: N_18  and  C_19
REMARK                            x       y       z     vdW  Elec       q    Type
REMARK                         _______ _______ _______ _____ _____    ______ ____
ROOT
ATOM      1  C   UNL     1       1.763   6.739  20.409  0.00  0.00    +0.000 A 
ATOM      2  N   UNL     1       1.183   7.504  21.328  0.00  0.00    +0.000 NA
ATOM      3  C   UNL     1       1.089   8.745  20.780  0.00  0.00    +0.000 A 
ATOM      4  C   UNL     1       1.613   8.787  19.524  0.00  0.00    +0.000 A 
ATOM      5  C   UNL     1       1.617   9.975  18.733  0.00  0.00    +0.000 A 
ATOM      6  O   UNL     1       2.086  10.026  17.602  0.00  0.00    +0.000 OA
ATOM      7  N   UNL     1       1.026  11.065  19.378  0.00  0.00    +0.000 N 
ATOM      8  C   UNL     1       0.958  12.328  18.666  0.00  0.00    +0.000 C 
ATOM      9  C   UNL     1       0.479  11.057  20.676  0.00  0.00    +0.000 A 
ATOM     10  O   UNL     1      -0.022  12.076  21.160  0.00  0.00    +0.000 OA
ATOM     11  N   UNL     1       0.530   9.851  21.378  0.00  0.00    +0.000 N 
ATOM     12  C   UNL     1      -0.019   9.765  22.718  0.00  0.00    +0.000 C 
ATOM     13  N   UNL     1       2.066   7.514  19.291  0.00  0.00    +0.000 N 
ATOM     14  C   UNL     1       2.727   7.038  18.100  0.00  0.00    +0.000 C 
ENDROOT
BRANCH   1  16
ATOM     15  N   UNL     1       1.057   4.654  20.471  0.00  0.00    +0.000 NA
ATOM     16  N   UNL     1       2.057   5.404  20.432  0.00  0.00    +0.000 NA
BRANCH  15  18
ATOM     17  C   UNL     1       1.174   2.588  19.243  0.00  0.00    +0.000 C 
ATOM     18  N   UNL     1       1.351   3.311  20.488  0.00  0.00    +0.000 N 
ATOM     19  C   UNL     1       1.869   2.636  21.659  0.00  0.00    +0.000 C 
ENDBRANCH  15  18
ENDBRANCH   1  16
TORSDOF 2
ENDMDL
MODEL 7
REMARK VINA RESULT:      -5.7      3.805      6.444
REMARK  Name = 
REMARK  7 active torsions:
REMARK  status: ('A' for Active; 'I' for Inactive)
REMARK    1  A    between atoms: C_1  and  N_2
REMARK    2  A    between atoms: N_2  and  C_3
REMARK    3  A    between atoms: N_2  and  N_4
REMARK    4  A    between atoms: N_5  and  C_6
REMARK    5  A    between atoms: N_12  and  C_13
REMARK    6  A    between atoms: N_16  and  C_17
REMARK    7  A    between atoms: N_18  and  C_19
REMARK                            x       y       z     vdW  Elec       q    Type
REMARK                         _______ _______ _______ _____ _____    ______ ____
ROOT
ATOM      1  C   UNL     1       2.105   8.431  18.799  0.00  0.00    +0.000 A 
ATOM      2  N   UNL     1       2.958   8.083  17.841  0.00  0.00    +0.000 NA
ATOM      3  C   UNL     1       3.397   6.837  18.162  0.00  0.00    +0.000 A 
ATOM      4  C   UNL     1       2.845   6.387  19.322  0.00  0.00    +0.000 A 
ATOM      5  C   UNL     1       3.136   5.098  19.861  0.00  0.00    +0.000 A 
ATOM      6  O   UNL     1       2.645   4.682  20.905  0.00  0.00    +0.000 OA
ATOM      7  N   UNL     1       4.027   4.363  19.075  0.00  0.00    +0.000 N 
ATOM      8  C   UNL     1       4.388   3.027  19.515  0.00  0.00    +0.000 C 
ATOM      9  C   UNL     1       4.619   4.800  17.874  0.00  0.00    +0.000 A 
ATOM     10  O   UNL     1       5.398   4.073  17.250  0.00  0.00    +0.000 OA
ATOM     11  N   UNL     1       4.282   6.080  17.430  0.00  0.00    +0.000 N 
ATOM     12  C   UNL     1       4.849   6.595  16.198  0.00  0.00    +0.000 C 
ATOM     13  N   UNL     1       2.036   7.410  19.745  0.00  0.00    +0.000 N 
ATOM     14  C   UNL     1       1.236   7.438  20.945  0.00  0.00    +0.000 C 
ENDROOT
BRANCH   1  16
ATOM     15  N   UNL     1       1.841  10.580  18.398  0.00  0.00    +0.000 NA
ATOM     16  N   UNL     1       1.353   9.564  18.939  0.00  0.00    +0.000 NA
BRANCH  15  18
ATOM     17  C   UNL     1       1.791  12.984  18.476  0.00  0.00    +0.000 C 
ATOM     18  N   UNL     1       1.083  11.719  18.533  0.00  0.00    +0.000 N 
ATOM     19  C   UNL     1      -0.358  11.693  18.667  0.00  0.00    +0.000 C 
ENDBRANCH  15  18
ENDBRANCH   1  16
TORSDOF 2
ENDMDL
MODEL 8
REMARK VINA RESULT:      -5.6      3.236      6.209
REMARK  Name = 
REMARK  7 active torsions:
REMARK  status: ('A' for Active; 'I' for Inactive)
REMARK    1  A    between atoms: C_1  and  N_2
REMARK    2  A    between atoms: N_2  and  C_3
REMARK    3  A    between atoms: N_2  and  N_4
REMARK    4  A    between atoms: N_5  and  C_6
REMARK    5  A    between atoms: N_12  and  C_13
REMARK    6  A    between atoms: N_16  and  C_17
REMARK    7  A    between atoms: N_18  and  C_19
REMARK                            x       y       z     vdW  Elec       q    Type
REMARK                         _______ _______ _______ _____ _____    ______ ____
ROOT
ATOM      1  C   UNL     1       2.463   7.553  18.881  0.00  0.00    +0.000 A 
ATOM      2  N   UNL     1       3.318   7.394  17.876  0.00  0.00    +0.000 NA
ATOM      3  C   UNL     1       3.597   6.064  17.827  0.00  0.00    +0.000 A 
ATOM      4  C   UNL     1       2.941   5.371  18.797  0.00  0.00    +0.000 A 
ATOM      5  C   UNL     1       3.059   3.956  18.942  0.00  0.00    +0.000 A 
ATOM      6  O   UNL     1       2.474   3.320  19.812  0.00  0.00    +0.000 OA
ATOM      7  N   UNL     1       3.899   3.375  17.989  0.00  0.00    +0.000 N 
ATOM      8  C   UNL     1       4.086   1.935  18.026  0.00  0.00    +0.000 C 
ATOM      9  C   UNL     1       4.596   4.063  16.976  0.00  0.00    +0.000 A 
ATOM     10  O   UNL     1       5.318   3.457  16.180  0.00  0.00    +0.000 OA
ATOM     11  N   UNL     1       4.427   5.447  16.919  0.00  0.00    +0.000 N 
ATOM     12  C   UNL     1       5.109   6.222  15.899  0.00  0.00    +0.000 C 
ATOM     13  N   UNL     1       2.233   6.320  19.488  0.00  0.00    +0.000 N 
ATOM     14  C   UNL     1       1.383   6.099  20.633  0.00  0.00    +0.000 C 
ENDROOT
BRANCH   1  16
ATOM     15  N   UNL     1       1.395   9.425  18.433  0.00  0.00    +0.000 NA
ATOM     16  N   UNL     1       1.837   8.680  19.335  0.00  0.00    +0.000 NA
BRANCH  15  18
ATOM     17  C   UNL     1      -0.621  10.407  19.307  0.00  0.00    +0.000 C 
ATOM     18  N   UNL     1       0.759  10.557  18.887  0.00  0.00    +0.000 N 
ATOM     19  C   UNL     1       1.426  11.837  19.007  0.00  0.00    +0.000 C 
ENDBRANCH  15  18
ENDBRANCH   1  16
TORSDOF 2
ENDMDL
MODEL 9
REMARK VINA RESULT:      -5.6      4.525      6.645
REMARK  Name = 
REMARK  7 active torsions:
REMARK  status: ('A' for Active; 'I' for Inactive)
REMARK    1  A    between atoms: C_1  and  N_2
REMARK    2  A    between atoms: N_2  and  C_3
REMARK    3  A    between atoms: N_2  and  N_4
REMARK    4  A    between atoms: N_5  and  C_6
REMARK    5  A    between atoms: N_12  and  C_13
REMARK    6  A    between atoms: N_16  and  C_17
REMARK    7  A    between atoms: N_18  and  C_19
REMARK                            x       y       z     vdW  Elec       q    Type
REMARK                         _______ _______ _______ _____ _____    ______ ____
ROOT
ATOM      1  C   UNL     1       2.247   6.651  19.975  0.00  0.00    +0.000 A 
ATOM      2  N   UNL     1       1.466   7.179  20.912  0.00  0.00    +0.000 NA
ATOM      3  C   UNL     1       1.143   8.425  20.474  0.00  0.00    +0.000 A 
ATOM      4  C   UNL     1       1.717   8.706  19.272  0.00  0.00    +0.000 A 
ATOM      5  C   UNL     1       1.515   9.946  18.596  0.00  0.00    +0.000 A 
ATOM      6  O   UNL     1       2.027  10.211  17.514  0.00  0.00    +0.000 OA
ATOM      7  N   UNL     1       0.671  10.818  19.290  0.00  0.00    +0.000 N 
ATOM      8  C   UNL     1       0.378  12.108  18.693  0.00  0.00    +0.000 C 
ATOM      9  C   UNL     1       0.065  10.561  20.535  0.00  0.00    +0.000 A 
ATOM     10  O   UNL     1      -0.667  11.399  21.069  0.00  0.00    +0.000 OA
ATOM     11  N   UNL     1       0.329   9.323  21.125  0.00  0.00    +0.000 N 
ATOM     12  C   UNL     1      -0.264   8.986  22.405  0.00  0.00    +0.000 C 
ATOM     13  N   UNL     1       2.442   7.585  18.960  0.00  0.00    +0.000 N 
ATOM     14  C   UNL     1       3.256   7.383  17.785  0.00  0.00    +0.000 C 
ENDROOT
BRANCH   1  16
ATOM     15  N   UNL     1       2.016   4.491  19.614  0.00  0.00    +0.000 NA
ATOM     16  N   UNL     1       2.815   5.409  19.899  0.00  0.00    +0.000 NA
BRANCH  15  18
ATOM     17  C   UNL     1       1.699   2.139  19.213  0.00  0.00    +0.000 C 
ATOM     18  N   UNL     1       2.586   3.242  19.531  0.00  0.00    +0.000 N 
ATOM     19  C   UNL     1       4.007   3.016  19.690  0.00  0.00    +0.000 C 
ENDBRANCH  15  18
ENDBRANCH   1  16
TORSDOF 2
ENDMDL
