MODEL 1
REMARK VINA RESULT:      -7.4      0.000      0.000
REMARK  Name = 
REMARK  9 active torsions:
REMARK  status: ('A' for Active; 'I' for Inactive)
REMARK    1  A    between atoms: C_1  and  O_2
REMARK    2  A    between atoms: O_2  and  C_3
REMARK    3  A    between atoms: C_6  and  C_7
REMARK    4  A    between atoms: C_15  and  O_16
REMARK    5  A    between atoms: C_17  and  C_18
REMARK    6  A    between atoms: C_23  and  C_24
REMARK    7  A    between atoms: C_23  and  C_25
REMARK    8  A    between atoms: C_26  and  O_27
REMARK    9  A    between atoms: C_30  and  C_31
REMARK                            x       y       z     vdW  Elec       q    Type
REMARK                         _______ _______ _______ _____ _____    ______ ____
ROOT
ATOM      1  C   UNL     1       0.880  10.203  19.142  0.00  0.00    +0.000 A 
ATOM      2  C   UNL     1      -0.364  10.242  19.640  0.00  0.00    +0.000 A 
ATOM      3  C   UNL     1      -1.009  11.517  19.832  0.00  0.00    +0.000 A 
ATOM      4  C   UNL     1      -0.412  12.672  19.437  0.00  0.00    +0.000 A 
ATOM      5  C   UNL     1       0.947  12.613  18.846  0.00  0.00    +0.000 A 
ATOM      6  O   UNL     1       1.547  13.641  18.550  0.00  0.00    +0.000 OA
ATOM      7  O   UNL     1       1.547  11.388  18.748  0.00  0.00    +0.000 OA
ATOM      8  C   UNL     1      -0.927  14.071  19.816  0.00  0.00    +0.000 C 
ATOM      9  C   UNL     1      -2.170  13.919  20.708  0.00  0.00    +0.000 C 
ATOM     10  C   UNL     1      -2.880  15.287  21.466  0.00  0.00    +0.000 C 
ATOM     11  C   UNL     1      -2.691  16.547  20.565  0.00  0.00    +0.000 C 
ATOM     12  C   UNL     1      -4.438  15.174  21.475  0.00  0.00    +0.000 C 
ATOM     13  O   UNL     1      -5.092  15.037  20.408  0.00  0.00    +0.000 OA
ATOM     14  C   UNL     1      -5.226  15.347  22.715  0.00  0.00    +0.000 C 
ATOM     15  C   UNL     1      -4.726  15.679  23.895  0.00  0.00    +0.000 C 
ATOM     16  C   UNL     1      -3.272  15.906  24.196  0.00  0.00    +0.000 C 
ATOM     17  C   UNL     1      -2.968  15.049  25.483  0.00  0.00    +0.000 C 
ATOM     18  C   UNL     1      -3.101  17.363  24.680  0.00  0.00    +0.000 C 
ATOM     19  C   UNL     1      -2.329  15.532  22.959  0.00  0.00    +0.000 C 
ATOM     20  C   UNL     1      -1.654  14.231  23.295  0.00  0.00    +0.000 C 
ATOM     21  C   UNL     1      -2.526  12.973  22.921  0.00  0.00    +0.000 C 
ATOM     22  C   UNL     1      -1.811  12.605  21.651  0.00  0.00    +0.000 C 
ATOM     23  C   UNL     1      -0.423  12.105  22.343  0.00  0.00    +0.000 C 
ATOM     24  O   UNL     1      -2.063  11.478  20.794  0.00  0.00    +0.000 OA
ENDROOT
BRANCH   1  28
ATOM     25  C   UNL     1       3.021   6.520  18.535  0.00  0.00    +0.000 A 
ATOM     26  C   UNL     1       2.396   6.784  19.753  0.00  0.00    +0.000 A 
ATOM     27  C   UNL     1       1.721   7.991  19.961  0.00  0.00    +0.000 A 
ATOM     28  C   UNL     1       1.670   8.968  18.959  0.00  0.00    +0.000 A 
ATOM     29  C   UNL     1       2.339   8.708  17.751  0.00  0.00    +0.000 A 
ATOM     30  C   UNL     1       3.010   7.495  17.540  0.00  0.00    +0.000 A 
BRANCH  25  32
ATOM     31  C   UNL     1       4.830   5.163  19.221  0.00  0.00    +0.000 C 
ATOM     32  O   UNL     1       3.645   5.305  18.448  0.00  0.00    +0.000 OA
ENDBRANCH  25  32
ENDBRANCH   1  28
BRANCH   9  33
ATOM     33  O   UNL     1      -3.183  13.468  19.746  0.00  0.00    +0.000 OA
ATOM     34  H   UNL     1      -2.846  13.554  18.834  0.00  0.00    +0.000 HD
ENDBRANCH   9  33
BRANCH  19  35
ATOM     35  O   UNL     1      -1.277  16.518  22.869  0.00  0.00    +0.000 OA
ATOM     36  H   UNL     1      -0.696  16.441  23.646  0.00  0.00    +0.000 HD
ENDBRANCH  19  35
TORSDOF 4
ENDMDL
MODEL 2
REMARK VINA RESULT:      -7.4      1.738      2.430
REMARK  Name = 
REMARK  9 active torsions:
REMARK  status: ('A' for Active; 'I' for Inactive)
REMARK    1  A    between atoms: C_1  and  O_2
REMARK    2  A    between atoms: O_2  and  C_3
REMARK    3  A    between atoms: C_6  and  C_7
REMARK    4  A    between atoms: C_15  and  O_16
REMARK    5  A    between atoms: C_17  and  C_18
REMARK    6  A    between atoms: C_23  and  C_24
REMARK    7  A    between atoms: C_23  and  C_25
REMARK    8  A    between atoms: C_26  and  O_27
REMARK    9  A    between atoms: C_30  and  C_31
REMARK                            x       y       z     vdW  Elec       q    Type
REMARK                         _______ _______ _______ _____ _____    ______ ____
ROOT
ATOM      1  C   UNL     1       0.901   9.296  19.437  0.00  0.00    +0.000 A 
ATOM      2  C   UNL     1       0.778   9.856  20.649  0.00  0.00    +0.000 A 
ATOM      3  C   UNL     1      -0.215  10.880  20.858  0.00  0.00    +0.000 A 
ATOM      4  C   UNL     1      -1.083  11.226  19.871  0.00  0.00    +0.000 A 
ATOM      5  C   UNL     1      -0.968  10.568  18.547  0.00  0.00    +0.000 A 
ATOM      6  O   UNL     1      -1.684  10.910  17.612  0.00  0.00    +0.000 OA
ATOM      7  O   UNL     1       0.034   9.653  18.376  0.00  0.00    +0.000 OA
ATOM      8  C   UNL     1      -2.005  12.456  19.939  0.00  0.00    +0.000 C 
ATOM      9  C   UNL     1      -1.746  13.199  21.259  0.00  0.00    +0.000 C 
ATOM     10  C   UNL     1      -2.471  14.726  21.565  0.00  0.00    +0.000 C 
ATOM     11  C   UNL     1      -3.865  14.797  20.867  0.00  0.00    +0.000 C 
ATOM     12  C   UNL     1      -2.895  14.853  23.063  0.00  0.00    +0.000 C 
ATOM     13  O   UNL     1      -3.681  14.024  23.594  0.00  0.00    +0.000 OA
ATOM     14  C   UNL     1      -2.499  16.012  23.892  0.00  0.00    +0.000 C 
ATOM     15  C   UNL     1      -1.831  17.068  23.454  0.00  0.00    +0.000 C 
ATOM     16  C   UNL     1      -1.327  17.265  22.053  0.00  0.00    +0.000 C 
ATOM     17  C   UNL     1       0.185  17.683  22.203  0.00  0.00    +0.000 C 
ATOM     18  C   UNL     1      -1.999  18.528  21.472  0.00  0.00    +0.000 C 
ATOM     19  C   UNL     1      -1.529  15.963  21.145  0.00  0.00    +0.000 C 
ATOM     20  C   UNL     1      -0.177  15.325  20.981  0.00  0.00    +0.000 C 
ATOM     21  C   UNL     1       0.193  14.356  22.166  0.00  0.00    +0.000 C 
ATOM     22  C   UNL     1      -0.107  13.061  21.467  0.00  0.00    +0.000 C 
ATOM     23  C   UNL     1       1.134  13.111  20.413  0.00  0.00    +0.000 C 
ATOM     24  O   UNL     1       0.071  11.726  21.972  0.00  0.00    +0.000 OA
ENDROOT
BRANCH   1  28
ATOM     25  C   UNL     1       3.726   6.253  18.307  0.00  0.00    +0.000 A 
ATOM     26  C   UNL     1       3.053   6.178  19.526  0.00  0.00    +0.000 A 
ATOM     27  C   UNL     1       2.153   7.178  19.906  0.00  0.00    +0.000 A 
ATOM     28  C   UNL     1       1.919   8.286  19.081  0.00  0.00    +0.000 A 
ATOM     29  C   UNL     1       2.634   8.372  17.875  0.00  0.00    +0.000 A 
ATOM     30  C   UNL     1       3.531   7.365  17.491  0.00  0.00    +0.000 A 
BRANCH  25  32
ATOM     31  C   UNL     1       5.548   4.940  19.044  0.00  0.00    +0.000 C 
ATOM     32  O   UNL     1       4.576   5.214  18.042  0.00  0.00    +0.000 OA
ENDBRANCH  25  32
ENDBRANCH   1  28
BRANCH   9  33
ATOM     33  O   UNL     1      -2.361  12.300  22.243  0.00  0.00    +0.000 OA
ATOM     34  H   UNL     1      -2.846  11.585  21.789  0.00  0.00    +0.000 HD
ENDBRANCH   9  33
BRANCH  19  35
ATOM     35  O   UNL     1      -1.938  16.382  19.826  0.00  0.00    +0.000 OA
ATOM     36  H   UNL     1      -1.348  15.982  19.163  0.00  0.00    +0.000 HD
ENDBRANCH  19  35
TORSDOF 4
ENDMDL
MODEL 3
REMARK VINA RESULT:      -7.3      1.549      1.984
REMARK  Name = 
REMARK  9 active torsions:
REMARK  status: ('A' for Active; 'I' for Inactive)
REMARK    1  A    between atoms: C_1  and  O_2
REMARK    2  A    between atoms: O_2  and  C_3
REMARK    3  A    between atoms: C_6  and  C_7
REMARK    4  A    between atoms: C_15  and  O_16
REMARK    5  A    between atoms: C_17  and  C_18
REMARK    6  A    between atoms: C_23  and  C_24
REMARK    7  A    between atoms: C_23  and  C_25
REMARK    8  A    between atoms: C_26  and  O_27
REMARK    9  A    between atoms: C_30  and  C_31
REMARK                            x       y       z     vdW  Elec       q    Type
REMARK                         _______ _______ _______ _____ _____    ______ ____
ROOT
ATOM      1  C   UNL     1       0.401   9.788  19.617  0.00  0.00    +0.000 A 
ATOM      2  C   UNL     1       0.097  10.123  20.879  0.00  0.00    +0.000 A 
ATOM      3  C   UNL     1      -0.895  11.140  21.122  0.00  0.00    +0.000 A 
ATOM      4  C   UNL     1      -1.587  11.704  20.097  0.00  0.00    +0.000 A 
ATOM      5  C   UNL     1      -1.273  11.294  18.706  0.00  0.00    +0.000 A 
ATOM      6  O   UNL     1      -1.822  11.837  17.754  0.00  0.00    +0.000 OA
ATOM      7  O   UNL     1      -0.276  10.376  18.522  0.00  0.00    +0.000 OA
ATOM      8  C   UNL     1      -2.481  12.945  20.253  0.00  0.00    +0.000 C 
ATOM      9  C   UNL     1      -2.422  13.420  21.714  0.00  0.00    +0.000 C 
ATOM     10  C   UNL     1      -3.156  14.900  22.187  0.00  0.00    +0.000 C 
ATOM     11  C   UNL     1      -4.418  15.167  21.309  0.00  0.00    +0.000 C 
ATOM     12  C   UNL     1      -3.813  14.770  23.598  0.00  0.00    +0.000 C 
ATOM     13  O   UNL     1      -4.691  13.900  23.836  0.00  0.00    +0.000 OA
ATOM     14  C   UNL     1      -3.531  15.737  24.683  0.00  0.00    +0.000 C 
ATOM     15  C   UNL     1      -2.780  16.820  24.560  0.00  0.00    +0.000 C 
ATOM     16  C   UNL     1      -2.053  17.245  23.316  0.00  0.00    +0.000 C 
ATOM     17  C   UNL     1      -0.577  17.552  23.773  0.00  0.00    +0.000 C 
ATOM     18  C   UNL     1      -2.597  18.626  22.887  0.00  0.00    +0.000 C 
ATOM     19  C   UNL     1      -2.133  16.143  22.159  0.00  0.00    +0.000 C 
ATOM     20  C   UNL     1      -0.786  15.479  22.087  0.00  0.00    +0.000 C 
ATOM     21  C   UNL     1      -0.631  14.292  23.110  0.00  0.00    +0.000 C 
ATOM     22  C   UNL     1      -0.842  13.163  22.141  0.00  0.00    +0.000 C 
ATOM     23  C   UNL     1       0.553  13.344  21.320  0.00  0.00    +0.000 C 
ATOM     24  O   UNL     1      -0.775  11.751  22.406  0.00  0.00    +0.000 OA
ENDROOT
BRANCH   1  28
ATOM     25  C   UNL     1       3.295   6.836  18.420  0.00  0.00    +0.000 A 
ATOM     26  C   UNL     1       2.644   6.734  19.649  0.00  0.00    +0.000 A 
ATOM     27  C   UNL     1       1.722   7.705  20.051  0.00  0.00    +0.000 A 
ATOM     28  C   UNL     1       1.442   8.810  19.238  0.00  0.00    +0.000 A 
ATOM     29  C   UNL     1       2.135   8.926  18.021  0.00  0.00    +0.000 A 
ATOM     30  C   UNL     1       3.055   7.948  17.615  0.00  0.00    +0.000 A 
BRANCH  25  32
ATOM     31  C   UNL     1       4.713   5.141  19.258  0.00  0.00    +0.000 C 
ATOM     32  O   UNL     1       4.170   5.825  18.134  0.00  0.00    +0.000 OA
ENDBRANCH  25  32
ENDBRANCH   1  28
BRANCH   9  33
ATOM     33  O   UNL     1      -3.206  12.388  22.403  0.00  0.00    +0.000 OA
ATOM     34  H   UNL     1      -4.054  12.758  22.713  0.00  0.00    +0.000 HD
ENDBRANCH   9  33
BRANCH  19  35
ATOM     35  O   UNL     1      -2.317  16.817  20.895  0.00  0.00    +0.000 OA
ATOM     36  H   UNL     1      -1.684  16.462  20.245  0.00  0.00    +0.000 HD
ENDBRANCH  19  35
TORSDOF 4
ENDMDL
MODEL 4
REMARK VINA RESULT:      -7.3      1.796      3.412
REMARK  Name = 
REMARK  9 active torsions:
REMARK  status: ('A' for Active; 'I' for Inactive)
REMARK    1  A    between atoms: C_1  and  O_2
REMARK    2  A    between atoms: O_2  and  C_3
REMARK    3  A    between atoms: C_6  and  C_7
REMARK    4  A    between atoms: C_15  and  O_16
REMARK    5  A    between atoms: C_17  and  C_18
REMARK    6  A    between atoms: C_23  and  C_24
REMARK    7  A    between atoms: C_23  and  C_25
REMARK    8  A    between atoms: C_26  and  O_27
REMARK    9  A    between atoms: C_30  and  C_31
REMARK                            x       y       z     vdW  Elec       q    Type
REMARK                         _______ _______ _______ _____ _____    ______ ____
ROOT
ATOM      1  C   UNL     1       1.106   9.221  20.306  0.00  0.00    +0.000 A 
ATOM      2  C   UNL     1       0.982  10.534  20.069  0.00  0.00    +0.000 A 
ATOM      3  C   UNL     1       0.164  11.337  20.943  0.00  0.00    +0.000 A 
ATOM      4  C   UNL     1      -0.414  10.801  22.051  0.00  0.00    +0.000 A 
ATOM      5  C   UNL     1      -0.233   9.355  22.328  0.00  0.00    +0.000 A 
ATOM      6  O   UNL     1      -0.803   8.822  23.274  0.00  0.00    +0.000 OA
ATOM      7  O   UNL     1       0.494   8.620  21.432  0.00  0.00    +0.000 OA
ATOM      8  C   UNL     1      -1.477  11.526  22.893  0.00  0.00    +0.000 C 
ATOM      9  C   UNL     1      -1.768  12.894  22.256  0.00  0.00    +0.000 C 
ATOM     10  C   UNL     1      -3.049  13.880  22.838  0.00  0.00    +0.000 C 
ATOM     11  C   UNL     1      -3.233  13.655  24.371  0.00  0.00    +0.000 C 
ATOM     12  C   UNL     1      -2.647  15.388  22.816  0.00  0.00    +0.000 C 
ATOM     13  O   UNL     1      -1.631  15.805  23.433  0.00  0.00    +0.000 OA
ATOM     14  C   UNL     1      -3.502  16.416  22.180  0.00  0.00    +0.000 C 
ATOM     15  C   UNL     1      -4.692  16.191  21.647  0.00  0.00    +0.000 C 
ATOM     16  C   UNL     1      -5.373  14.856  21.559  0.00  0.00    +0.000 C 
ATOM     17  C   UNL     1      -5.839  14.716  20.060  0.00  0.00    +0.000 C 
ATOM     18  C   UNL     1      -6.700  14.938  22.346  0.00  0.00    +0.000 C 
ATOM     19  C   UNL     1      -4.426  13.657  22.033  0.00  0.00    +0.000 C 
ATOM     20  C   UNL     1      -3.987  12.925  20.795  0.00  0.00    +0.000 C 
ATOM     21  C   UNL     1      -2.717  13.568  20.120  0.00  0.00    +0.000 C 
ATOM     22  C   UNL     1      -1.700  12.586  20.629  0.00  0.00    +0.000 C 
ATOM     23  C   UNL     1      -2.190  11.313  19.738  0.00  0.00    +0.000 C 
ATOM     24  O   UNL     1      -0.292  12.546  20.338  0.00  0.00    +0.000 OA
ENDROOT
BRANCH   1  28
ATOM     25  C   UNL     1       3.471   6.561  17.886  0.00  0.00    +0.000 A 
ATOM     26  C   UNL     1       3.080   7.807  17.396  0.00  0.00    +0.000 A 
ATOM     27  C   UNL     1       2.291   8.663  18.171  0.00  0.00    +0.000 A 
ATOM     28  C   UNL     1       1.861   8.283  19.449  0.00  0.00    +0.000 A 
ATOM     29  C   UNL     1       2.225   7.009  19.916  0.00  0.00    +0.000 A 
ATOM     30  C   UNL     1       3.023   6.154  19.140  0.00  0.00    +0.000 A 
BRANCH  25  32
ATOM     31  C   UNL     1       5.178   6.545  16.251  0.00  0.00    +0.000 C 
ATOM     32  O   UNL     1       4.245   5.815  17.040  0.00  0.00    +0.000 OA
ENDBRANCH  25  32
ENDBRANCH   1  28
BRANCH   9  33
ATOM     33  O   UNL     1      -0.552  13.648  22.582  0.00  0.00    +0.000 OA
ATOM     34  H   UNL     1      -0.487  14.444  22.019  0.00  0.00    +0.000 HD
ENDBRANCH   9  33
BRANCH  19  35
ATOM     35  O   UNL     1      -5.218  12.719  22.794  0.00  0.00    +0.000 OA
ATOM     36  H   UNL     1      -5.979  12.431  22.259  0.00  0.00    +0.000 HD
ENDBRANCH  19  35
TORSDOF 4
ENDMDL
MODEL 5
REMARK VINA RESULT:      -7.2      1.876      3.517
REMARK  Name = 
REMARK  9 active torsions:
REMARK  status: ('A' for Active; 'I' for Inactive)
REMARK    1  A    between atoms: C_1  and  O_2
REMARK    2  A    between atoms: O_2  and  C_3
REMARK    3  A    between atoms: C_6  and  C_7
REMARK    4  A    between atoms: C_15  and  O_16
REMARK    5  A    between atoms: C_17  and  C_18
REMARK    6  A    between atoms: C_23  and  C_24
REMARK    7  A    between atoms: C_23  and  C_25
REMARK    8  A    between atoms: C_26  and  O_27
REMARK    9  A    between atoms: C_30  and  C_31
REMARK                            x       y       z     vdW  Elec       q    Type
REMARK                         _______ _______ _______ _____ _____    ______ ____
ROOT
ATOM      1  C   UNL     1       1.793   8.635  19.555  0.00  0.00    +0.000 A 
ATOM      2  C   UNL     1       1.497   9.851  19.075  0.00  0.00    +0.000 A 
ATOM      3  C   UNL     1       0.812  10.798  19.919  0.00  0.00    +0.000 A 
ATOM      4  C   UNL     1       0.538  10.509  21.218  0.00  0.00    +0.000 A 
ATOM      5  C   UNL     1       0.910   9.176  21.753  0.00  0.00    +0.000 A 
ATOM      6  O   UNL     1       0.610   8.853  22.897  0.00  0.00    +0.000 OA
ATOM      7  O   UNL     1       1.495   8.286  20.894  0.00  0.00    +0.000 OA
ATOM      8  C   UNL     1      -0.384  11.362  22.106  0.00  0.00    +0.000 C 
ATOM      9  C   UNL     1      -0.933  12.531  21.272  0.00  0.00    +0.000 C 
ATOM     10  C   UNL     1      -2.148  13.568  21.906  0.00  0.00    +0.000 C 
ATOM     11  C   UNL     1      -1.976  13.698  23.451  0.00  0.00    +0.000 C 
ATOM     12  C   UNL     1      -1.904  15.046  21.466  0.00  0.00    +0.000 C 
ATOM     13  O   UNL     1      -0.825  15.639  21.728  0.00  0.00    +0.000 OA
ATOM     14  C   UNL     1      -2.969  15.859  20.837  0.00  0.00    +0.000 C 
ATOM     15  C   UNL     1      -4.219  15.465  20.654  0.00  0.00    +0.000 C 
ATOM     16  C   UNL     1      -4.773  14.118  21.015  0.00  0.00    +0.000 C 
ATOM     17  C   UNL     1      -5.534  13.614  19.731  0.00  0.00    +0.000 C 
ATOM     18  C   UNL     1      -5.902  14.322  22.050  0.00  0.00    +0.000 C 
ATOM     19  C   UNL     1      -3.638  13.104  21.507  0.00  0.00    +0.000 C 
ATOM     20  C   UNL     1      -3.406  12.125  20.389  0.00  0.00    +0.000 C 
ATOM     21  C   UNL     1      -2.377  12.649  19.318  0.00  0.00    +0.000 C 
ATOM     22  C   UNL     1      -1.186  11.857  19.780  0.00  0.00    +0.000 C 
ATOM     23  C   UNL     1      -1.732  10.392  19.322  0.00  0.00    +0.000 C 
ATOM     24  O   UNL     1       0.124  11.812  19.188  0.00  0.00    +0.000 OA
ENDROOT
BRANCH   1  28
ATOM     25  C   UNL     1       3.805   5.501  17.398  0.00  0.00    +0.000 A 
ATOM     26  C   UNL     1       3.990   6.837  17.045  0.00  0.00    +0.000 A 
ATOM     27  C   UNL     1       3.318   7.856  17.728  0.00  0.00    +0.000 A 
ATOM     28  C   UNL     1       2.432   7.558  18.771  0.00  0.00    +0.000 A 
ATOM     29  C   UNL     1       2.220   6.206  19.090  0.00  0.00    +0.000 A 
ATOM     30  C   UNL     1       2.900   5.185  18.409  0.00  0.00    +0.000 A 
BRANCH  25  32
ATOM     31  C   UNL     1       5.420   5.148  15.710  0.00  0.00    +0.000 C 
ATOM     32  O   UNL     1       4.519   4.596  16.663  0.00  0.00    +0.000 OA
ENDBRANCH  25  32
ENDBRANCH   1  28
BRANCH   9  33
ATOM     33  O   UNL     1       0.248  13.393  21.138  0.00  0.00    +0.000 OA
ATOM     34  H   UNL     1      -0.025  14.320  20.998  0.00  0.00    +0.000 HD
ENDBRANCH   9  33
BRANCH  19  35
ATOM     35  O   UNL     1      -4.156  12.335  22.614  0.00  0.00    +0.000 OA
ATOM     36  H   UNL     1      -4.769  12.886  23.131  0.00  0.00    +0.000 HD
ENDBRANCH  19  35
TORSDOF 4
ENDMDL
MODEL 6
REMARK VINA RESULT:      -7.2      1.838      3.363
REMARK  Name = 
REMARK  9 active torsions:
REMARK  status: ('A' for Active; 'I' for Inactive)
REMARK    1  A    between atoms: C_1  and  O_2
REMARK    2  A    between atoms: O_2  and  C_3
REMARK    3  A    between atoms: C_6  and  C_7
REMARK    4  A    between atoms: C_15  and  O_16
REMARK    5  A    between atoms: C_17  and  C_18
REMARK    6  A    between atoms: C_23  and  C_24
REMARK    7  A    between atoms: C_23  and  C_25
REMARK    8  A    between atoms: C_26  and  O_27
REMARK    9  A    between atoms: C_30  and  C_31
REMARK                            x       y       z     vdW  Elec       q    Type
REMARK                         _______ _______ _______ _____ _____    ______ ____
ROOT
ATOM      1  C   UNL     1       1.474   8.849  20.054  0.00  0.00    +0.000 A 
ATOM      2  C   UNL     1       1.241  10.085  19.592  0.00  0.00    +0.000 A 
ATOM      3  C   UNL     1       0.467  11.004  20.387  0.00  0.00    +0.000 A 
ATOM      4  C   UNL     1       0.042  10.667  21.634  0.00  0.00    +0.000 A 
ATOM      5  C   UNL     1       0.343   9.311  22.154  0.00  0.00    +0.000 A 
ATOM      6  O   UNL     1      -0.091   8.946  23.242  0.00  0.00    +0.000 OA
ATOM      7  O   UNL     1       1.020   8.450  21.335  0.00  0.00    +0.000 OA
ATOM      8  C   UNL     1      -0.974  11.493  22.441  0.00  0.00    +0.000 C 
ATOM      9  C   UNL     1      -1.417  12.699  21.597  0.00  0.00    +0.000 C 
ATOM     10  C   UNL     1      -2.693  13.721  22.126  0.00  0.00    +0.000 C 
ATOM     11  C   UNL     1      -2.703  13.789  23.684  0.00  0.00    +0.000 C 
ATOM     12  C   UNL     1      -2.394  15.213  21.777  0.00  0.00    +0.000 C 
ATOM     13  O   UNL     1      -1.349  15.786  22.186  0.00  0.00    +0.000 OA
ATOM     14  C   UNL     1      -3.374  16.060  21.061  0.00  0.00    +0.000 C 
ATOM     15  C   UNL     1      -4.596  15.685  20.717  0.00  0.00    +0.000 C 
ATOM     16  C   UNL     1      -5.194  14.329  20.958  0.00  0.00    +0.000 C 
ATOM     17  C   UNL     1      -5.802  13.882  19.574  0.00  0.00    +0.000 C 
ATOM     18  C   UNL     1      -6.436  14.502  21.861  0.00  0.00    +0.000 C 
ATOM     19  C   UNL     1      -4.128  13.286  21.538  0.00  0.00    +0.000 C 
ATOM     20  C   UNL     1      -3.771  12.350  20.416  0.00  0.00    +0.000 C 
ATOM     21  C   UNL     1      -2.623  12.906  19.494  0.00  0.00    +0.000 C 
ATOM     22  C   UNL     1      -1.497  12.087  20.059  0.00  0.00    +0.000 C 
ATOM     23  C   UNL     1      -1.992  10.645  19.483  0.00  0.00    +0.000 C 
ATOM     24  O   UNL     1      -0.127  12.053  19.623  0.00  0.00    +0.000 OA
ENDROOT
BRANCH   1  28
ATOM     25  C   UNL     1       3.410   5.746  17.786  0.00  0.00    +0.000 A 
ATOM     26  C   UNL     1       2.848   5.469  19.031  0.00  0.00    +0.000 A 
ATOM     27  C   UNL     1       2.240   6.480  19.781  0.00  0.00    +0.000 A 
ATOM     28  C   UNL     1       2.196   7.798  19.308  0.00  0.00    +0.000 A 
ATOM     29  C   UNL     1       2.802   8.075  18.071  0.00  0.00    +0.000 A 
ATOM     30  C   UNL     1       3.406   7.058  17.316  0.00  0.00    +0.000 A 
BRANCH  25  32
ATOM     31  C   UNL     1       3.612   3.396  17.650  0.00  0.00    +0.000 C 
ATOM     32  O   UNL     1       3.971   4.677  17.144  0.00  0.00    +0.000 OA
ENDBRANCH  25  32
ENDBRANCH   1  28
BRANCH   9  33
ATOM     33  O   UNL     1      -0.225  13.555  21.635  0.00  0.00    +0.000 OA
ATOM     34  H   UNL     1       0.533  13.098  21.223  0.00  0.00    +0.000 HD
ENDBRANCH   9  33
BRANCH  19  35
ATOM     35  O   UNL     1      -4.775  12.479  22.544  0.00  0.00    +0.000 OA
ATOM     36  H   UNL     1      -5.165  11.692  22.125  0.00  0.00    +0.000 HD
ENDBRANCH  19  35
TORSDOF 4
ENDMDL
MODEL 7
REMARK VINA RESULT:      -7.1      1.968      3.129
REMARK  Name = 
REMARK  9 active torsions:
REMARK  status: ('A' for Active; 'I' for Inactive)
REMARK    1  A    between atoms: C_1  and  O_2
REMARK    2  A    between atoms: O_2  and  C_3
REMARK    3  A    between atoms: C_6  and  C_7
REMARK    4  A    between atoms: C_15  and  O_16
REMARK    5  A    between atoms: C_17  and  C_18
REMARK    6  A    between atoms: C_23  and  C_24
REMARK    7  A    between atoms: C_23  and  C_25
REMARK    8  A    between atoms: C_26  and  O_27
REMARK    9  A    between atoms: C_30  and  C_31
REMARK                            x       y       z     vdW  Elec       q    Type
REMARK                         _______ _______ _______ _____ _____    ______ ____
ROOT
ATOM      1  C   UNL     1       1.430   8.777  19.015  0.00  0.00    +0.000 A 
ATOM      2  C   UNL     1       1.454   9.393  20.206  0.00  0.00    +0.000 A 
ATOM      3  C   UNL     1       0.489  10.425  20.488  0.00  0.00    +0.000 A 
ATOM      4  C   UNL     1      -0.497  10.725  19.601  0.00  0.00    +0.000 A 
ATOM      5  C   UNL     1      -0.541  10.006  18.304  0.00  0.00    +0.000 A 
ATOM      6  O   UNL     1      -1.369  10.304  17.450  0.00  0.00    +0.000 OA
ATOM      7  O   UNL     1       0.437   9.084  18.054  0.00  0.00    +0.000 OA
ATOM      8  C   UNL     1      -1.410  11.957  19.725  0.00  0.00    +0.000 C 
ATOM      9  C   UNL     1      -0.995  12.760  20.968  0.00  0.00    +0.000 C 
ATOM     10  C   UNL     1      -1.686  14.300  21.291  0.00  0.00    +0.000 C 
ATOM     11  C   UNL     1      -3.155  14.338  20.767  0.00  0.00    +0.000 C 
ATOM     12  C   UNL     1      -1.923  14.495  22.822  0.00  0.00    +0.000 C 
ATOM     13  O   UNL     1      -2.633  13.692  23.483  0.00  0.00    +0.000 OA
ATOM     14  C   UNL     1      -1.435  15.692  23.541  0.00  0.00    +0.000 C 
ATOM     15  C   UNL     1      -0.833  16.726  22.976  0.00  0.00    +0.000 C 
ATOM     16  C   UNL     1      -0.506  16.858  21.517  0.00  0.00    +0.000 C 
ATOM     17  C   UNL     1       1.011  17.283  21.459  0.00  0.00    +0.000 C 
ATOM     18  C   UNL     1      -1.251  18.093  20.964  0.00  0.00    +0.000 C 
ATOM     19  C   UNL     1      -0.810  15.516  20.701  0.00  0.00    +0.000 C 
ATOM     20  C   UNL     1       0.515  14.871  20.401  0.00  0.00    +0.000 C 
ATOM     21  C   UNL     1       1.034  13.958  21.575  0.00  0.00    +0.000 C 
ATOM     22  C   UNL     1       0.657  12.631  20.978  0.00  0.00    +0.000 C 
ATOM     23  C   UNL     1       1.759  12.634  19.778  0.00  0.00    +0.000 C 
ATOM     24  O   UNL     1       0.904  11.321  21.518  0.00  0.00    +0.000 OA
ENDROOT
BRANCH   1  28
ATOM     25  C   UNL     1       4.397   5.878  17.868  0.00  0.00    +0.000 A 
ATOM     26  C   UNL     1       4.191   7.024  17.101  0.00  0.00    +0.000 A 
ATOM     27  C   UNL     1       3.211   7.955  17.458  0.00  0.00    +0.000 A 
ATOM     28  C   UNL     1       2.402   7.751  18.583  0.00  0.00    +0.000 A 
ATOM     29  C   UNL     1       2.589   6.573  19.325  0.00  0.00    +0.000 A 
ATOM     30  C   UNL     1       3.578   5.643  18.970  0.00  0.00    +0.000 A 
BRANCH  25  32
ATOM     31  C   UNL     1       5.128   4.381  16.192  0.00  0.00    +0.000 C 
ATOM     32  O   UNL     1       5.386   5.044  17.424  0.00  0.00    +0.000 OA
ENDBRANCH  25  32
ENDBRANCH   1  28
BRANCH   9  33
ATOM     33  O   UNL     1      -1.479  11.907  22.060  0.00  0.00    +0.000 OA
ATOM     34  H   UNL     1      -1.003  12.115  22.887  0.00  0.00    +0.000 HD
ENDBRANCH   9  33
BRANCH  19  35
ATOM     35  O   UNL     1      -1.381  15.873  19.424  0.00  0.00    +0.000 OA
ATOM     36  H   UNL     1      -1.170  15.182  18.771  0.00  0.00    +0.000 HD
ENDBRANCH  19  35
TORSDOF 4
ENDMDL
MODEL 8
REMARK VINA RESULT:      -7.1      0.667      1.060
REMARK  Name = 
REMARK  9 active torsions:
REMARK  status: ('A' for Active; 'I' for Inactive)
REMARK    1  A    between atoms: C_1  and  O_2
REMARK    2  A    between atoms: O_2  and  C_3
REMARK    3  A    between atoms: C_6  and  C_7
REMARK    4  A    between atoms: C_15  and  O_16
REMARK    5  A    between atoms: C_17  and  C_18
REMARK    6  A    between atoms: C_23  and  C_24
REMARK    7  A    between atoms: C_23  and  C_25
REMARK    8  A    between atoms: C_26  and  O_27
REMARK    9  A    between atoms: C_30  and  C_31
REMARK                            x       y       z     vdW  Elec       q    Type
REMARK                         _______ _______ _______ _____ _____    ______ ____
ROOT
ATOM      1  C   UNL     1       0.529  10.674  19.277  0.00  0.00    +0.000 A 
ATOM      2  C   UNL     1      -0.694  10.766  19.818  0.00  0.00    +0.000 A 
ATOM      3  C   UNL     1      -1.274  12.067  20.038  0.00  0.00    +0.000 A 
ATOM      4  C   UNL     1      -0.639  13.197  19.626  0.00  0.00    +0.000 A 
ATOM      5  C   UNL     1       0.694  13.080  18.987  0.00  0.00    +0.000 A 
ATOM      6  O   UNL     1       1.329  14.082  18.674  0.00  0.00    +0.000 OA
ATOM      7  O   UNL     1       1.235  11.830  18.864  0.00  0.00    +0.000 OA
ATOM      8  C   UNL     1      -1.077  14.615  20.028  0.00  0.00    +0.000 C 
ATOM      9  C   UNL     1      -2.294  14.514  20.961  0.00  0.00    +0.000 C 
ATOM     10  C   UNL     1      -2.916  15.909  21.749  0.00  0.00    +0.000 C 
ATOM     11  C   UNL     1      -2.702  17.163  20.846  0.00  0.00    +0.000 C 
ATOM     12  C   UNL     1      -4.476  15.865  21.812  0.00  0.00    +0.000 C 
ATOM     13  O   UNL     1      -5.172  15.764  20.768  0.00  0.00    +0.000 OA
ATOM     14  C   UNL     1      -5.212  16.067  23.080  0.00  0.00    +0.000 C 
ATOM     15  C   UNL     1      -4.656  16.371  24.242  0.00  0.00    +0.000 C 
ATOM     16  C   UNL     1      -3.185  16.530  24.493  0.00  0.00    +0.000 C 
ATOM     17  C   UNL     1      -2.875  15.654  25.766  0.00  0.00    +0.000 C 
ATOM     18  C   UNL     1      -2.931  17.976  24.976  0.00  0.00    +0.000 C 
ATOM     19  C   UNL     1      -2.302  16.122  23.223  0.00  0.00    +0.000 C 
ATOM     20  C   UNL     1      -1.676  14.790  23.530  0.00  0.00    +0.000 C 
ATOM     21  C   UNL     1      -2.615  13.574  23.182  0.00  0.00    +0.000 C 
ATOM     22  C   UNL     1      -1.962  13.181  21.887  0.00  0.00    +0.000 C 
ATOM     23  C   UNL     1      -0.575  12.615  22.529  0.00  0.00    +0.000 C 
ATOM     24  O   UNL     1      -2.294  12.070  21.036  0.00  0.00    +0.000 OA
ENDROOT
BRANCH   1  28
ATOM     25  C   UNL     1       2.809   7.067  18.715  0.00  0.00    +0.000 A 
ATOM     26  C   UNL     1       2.655   7.979  17.671  0.00  0.00    +0.000 A 
ATOM     27  C   UNL     1       1.894   9.139  17.844  0.00  0.00    +0.000 A 
ATOM     28  C   UNL     1       1.256   9.405  19.062  0.00  0.00    +0.000 A 
ATOM     29  C   UNL     1       1.383   8.460  20.093  0.00  0.00    +0.000 A 
ATOM     30  C   UNL     1       2.152   7.299  19.922  0.00  0.00    +0.000 A 
BRANCH  25  32
ATOM     31  C   UNL     1       3.848   5.105  19.524  0.00  0.00    +0.000 C 
ATOM     32  O   UNL     1       3.579   5.973  18.430  0.00  0.00    +0.000 OA
ENDBRANCH  25  32
ENDBRANCH   1  28
BRANCH   9  33
ATOM     33  O   UNL     1      -3.360  14.114  20.034  0.00  0.00    +0.000 OA
ATOM     34  H   UNL     1      -2.983  13.624  19.278  0.00  0.00    +0.000 HD
ENDBRANCH   9  33
BRANCH  19  35
ATOM     35  O   UNL     1      -1.212  17.060  23.100  0.00  0.00    +0.000 OA
ATOM     36  H   UNL     1      -1.567  17.965  23.060  0.00  0.00    +0.000 HD
ENDBRANCH  19  35
TORSDOF 4
ENDMDL
MODEL 9
REMARK VINA RESULT:      -6.9      1.183      1.338
REMARK  Name = 
REMARK  9 active torsions:
REMARK  status: ('A' for Active; 'I' for Inactive)
REMARK    1  A    between atoms: C_1  and  O_2
REMARK    2  A    between atoms: O_2  and  C_3
REMARK    3  A    between atoms: C_6  and  C_7
REMARK    4  A    between atoms: C_15  and  O_16
REMARK    5  A    between atoms: C_17  and  C_18
REMARK    6  A    between atoms: C_23  and  C_24
REMARK    7  A    between atoms: C_23  and  C_25
REMARK    8  A    between atoms: C_26  and  O_27
REMARK    9  A    between atoms: C_30  and  C_31
REMARK                            x       y       z     vdW  Elec       q    Type
REMARK                         _______ _______ _______ _____ _____    ______ ____
ROOT
ATOM      1  C   UNL     1       0.073  10.676  19.599  0.00  0.00    +0.000 A 
ATOM      2  C   UNL     1      -0.871  10.716  20.549  0.00  0.00    +0.000 A 
ATOM      3  C   UNL     1      -1.665  11.908  20.709  0.00  0.00    +0.000 A 
ATOM      4  C   UNL     1      -1.530  12.960  19.859  0.00  0.00    +0.000 A 
ATOM      5  C   UNL     1      -0.512  12.888  18.782  0.00  0.00    +0.000 A 
ATOM      6  O   UNL     1      -0.309  13.848  18.046  0.00  0.00    +0.000 OA
ATOM      7  O   UNL     1       0.265  11.764  18.714  0.00  0.00    +0.000 OA
ATOM      8  C   UNL     1      -2.165  14.340  20.101  0.00  0.00    +0.000 C 
ATOM      9  C   UNL     1      -2.920  14.311  21.440  0.00  0.00    +0.000 C 
ATOM     10  C   UNL     1      -3.583  15.750  22.106  0.00  0.00    +0.000 C 
ATOM     11  C   UNL     1      -4.027  16.707  20.957  0.00  0.00    +0.000 C 
ATOM     12  C   UNL     1      -4.958  15.466  22.789  0.00  0.00    +0.000 C 
ATOM     13  O   UNL     1      -5.914  14.951  22.151  0.00  0.00    +0.000 OA
ATOM     14  C   UNL     1      -5.246  15.899  24.174  0.00  0.00    +0.000 C 
ATOM     15  C   UNL     1      -4.431  16.615  24.933  0.00  0.00    +0.000 C 
ATOM     16  C   UNL     1      -3.059  17.084  24.542  0.00  0.00    +0.000 C 
ATOM     17  C   UNL     1      -2.116  16.679  25.738  0.00  0.00    +0.000 C 
ATOM     18  C   UNL     1      -3.049  18.629  24.578  0.00  0.00    +0.000 C 
ATOM     19  C   UNL     1      -2.585  16.479  23.139  0.00  0.00    +0.000 C 
ATOM     20  C   UNL     1      -1.563  15.417  23.438  0.00  0.00    +0.000 C 
ATOM     21  C   UNL     1      -2.208  14.014  23.747  0.00  0.00    +0.000 C 
ATOM     22  C   UNL     1      -1.953  13.378  22.410  0.00  0.00    +0.000 C 
ATOM     23  C   UNL     1      -0.334  13.263  22.550  0.00  0.00    +0.000 C 
ATOM     24  O   UNL     1      -2.248  12.029  22.006  0.00  0.00    +0.000 OA
ENDROOT
BRANCH   1  28
ATOM     25  C   UNL     1       2.596   7.262  18.895  0.00  0.00    +0.000 A 
ATOM     26  C   UNL     1       2.030   7.479  20.151  0.00  0.00    +0.000 A 
ATOM     27  C   UNL     1       1.230   8.600  20.389  0.00  0.00    +0.000 A 
ATOM     28  C   UNL     1       0.992   9.540  19.378  0.00  0.00    +0.000 A 
ATOM     29  C   UNL     1       1.601   9.335  18.129  0.00  0.00    +0.000 A 
ATOM     30  C   UNL     1       2.398   8.205  17.889  0.00  0.00    +0.000 A 
BRANCH  25  32
ATOM     31  C   UNL     1       2.842   5.128  17.909  0.00  0.00    +0.000 C 
ATOM     32  O   UNL     1       3.354   6.129  18.781  0.00  0.00    +0.000 OA
ENDBRANCH  25  32
ENDBRANCH   1  28
BRANCH   9  33
ATOM     33  O   UNL     1      -4.090  13.488  21.114  0.00  0.00    +0.000 OA
ATOM     34  H   UNL     1      -4.794  13.622  21.778  0.00  0.00    +0.000 HD
ENDBRANCH   9  33
BRANCH  19  35
ATOM     35  O   UNL     1      -1.890  17.510  22.405  0.00  0.00    +0.000 OA
ATOM     36  H   UNL     1      -1.323  17.098  21.729  0.00  0.00    +0.000 HD
ENDBRANCH  19  35
TORSDOF 4
ENDMDL
