MODEL 1
REMARK VINA RESULT:      -8.0      0.000      0.000
REMARK  Name = 
REMARK  12 active torsions:
REMARK  status: ('A' for Active; 'I' for Inactive)
REMARK    1  A    between atoms: C_4  and  C_5
REMARK    2  A    between atoms: C_5  and  C_6
REMARK    3  A    between atoms: C_6  and  C_7
REMARK    4  A    between atoms: C_6  and  C_8
REMARK    5  A    between atoms: C_13  and  C_14
REMARK    6  A    between atoms: C_17  and  O_18
REMARK    7  A    between atoms: C_19  and  C_20
REMARK    8  A    between atoms: C_20  and  C_21
REMARK    9  A    between atoms: C_21  and  C_22
REMARK   10  A    between atoms: C_22  and  O_23
REMARK   11  A    between atoms: C_24  and  O_25
REMARK   12  A    between atoms: C_31  and  C_32
REMARK                            x       y       z     vdW  Elec       q    Type
REMARK                         _______ _______ _______ _____ _____    ______ ____
ROOT
ATOM      1  C   UNL     1       4.475   5.542  17.704  0.00  0.00    +0.000 C 
ATOM      2  C   UNL     1       4.758   6.518  16.533  0.00  0.00    +0.000 C 
ATOM      3  C   UNL     1       3.806   7.706  16.716  0.00  0.00    +0.000 C 
ATOM      4  C   UNL     1       3.339   7.591  18.171  0.00  0.00    +0.000 C 
ATOM      5  C   UNL     1       2.124   8.335  18.678  0.00  0.00    +0.000 C 
ATOM      6  C   UNL     1       1.396   9.132  17.882  0.00  0.00    +0.000 C 
ATOM      7  C   UNL     1       1.794   8.002  20.131  0.00  0.00    +0.000 C 
ATOM      8  C   UNL     1       1.848   6.499  20.472  0.00  0.00    +0.000 C 
ATOM      9  C   UNL     1       3.046   5.772  19.850  0.00  0.00    +0.000 C 
ATOM     10  C   UNL     1       3.148   6.061  18.339  0.00  0.00    +0.000 C 
ATOM     11  C   UNL     1       1.857   5.579  17.631  0.00  0.00    +0.000 C 
ENDROOT
BRANCH   6  12
ATOM     12  C   UNL     1       0.205   9.846  18.270  0.00  0.00    +0.000 C 
ATOM     13  C   UNL     1       0.161  11.033  18.909  0.00  0.00    +0.000 C 
ATOM     14  C   UNL     1      -1.180  11.580  19.360  0.00  0.00    +0.000 C 
ATOM     15  C   UNL     1      -1.150  12.112  20.802  0.00  0.00    +0.000 C 
ATOM     16  C   UNL     1       0.044  13.052  21.071  0.00  0.00    +0.000 C 
ATOM     17  C   UNL     1       1.354  12.321  20.695  0.00  0.00    +0.000 C 
ATOM     18  C   UNL     1       1.334  11.853  19.247  0.00  0.00    +0.000 C 
ATOM     19  C   UNL     1       2.266  12.172  18.333  0.00  0.00    +0.000 C 
BRANCH  15  20
ATOM     20  O   UNL     1      -1.116  11.016  21.727  0.00  0.00    +0.000 OA
ATOM     21  H   UNL     1      -0.937  10.197  21.238  0.00  0.00    +0.000 HD
ENDBRANCH  15  20
BRANCH  17  22
ATOM     22  O   UNL     1       2.482  13.147  20.985  0.00  0.00    +0.000 OA
ATOM     23  H   UNL     1       2.773  13.556  20.155  0.00  0.00    +0.000 HD
ENDBRANCH  17  22
BRANCH  16  24
ATOM     24  C   UNL     1      -0.082  14.419  20.343  0.00  0.00    +0.000 C 
BRANCH  24  25
ATOM     25  C   UNL     1      -0.299  15.640  21.239  0.00  0.00    +0.000 C 
BRANCH  25  26
ATOM     26  C   UNL     1       0.235  15.459  22.654  0.00  0.00    +0.000 C 
BRANCH  26  27
ATOM     27  O   UNL     1       1.654  15.539  22.640  0.00  0.00    +0.000 OA
ATOM     28  H   UNL     1       1.937  15.613  21.712  0.00  0.00    +0.000 HD
ENDBRANCH  26  27
ENDBRANCH  25  26
ENDBRANCH  24  25
ENDBRANCH  16  24
ENDBRANCH   6  12
BRANCH   1  29
ATOM     29  C   UNL     1       4.627   4.023  17.385  0.00  0.00    +0.000 C 
ATOM     30  C   UNL     1       5.433   3.855  16.086  0.00  0.00    +0.000 C 
BRANCH  29  31
ATOM     31  C   UNL     1       3.289   3.265  17.264  0.00  0.00    +0.000 C 
BRANCH  31  35
ATOM     32  C   UNL     1       1.417   2.473  21.634  0.00  0.00    +0.000 C 
ATOM     33  C   UNL     1       2.181   2.440  20.537  0.00  0.00    +0.000 C 
ATOM     34  C   UNL     1       1.759   2.717  19.151  0.00  0.00    +0.000 C 
ATOM     35  C   UNL     1       2.955   2.229  18.340  0.00  0.00    +0.000 C 
ATOM     36  O   UNL     1       4.054   2.102  19.255  0.00  0.00    +0.000 OA
ATOM     37  C   UNL     1       3.628   2.149  20.546  0.00  0.00    +0.000 C 
ATOM     38  O   UNL     1       4.327   2.004  21.531  0.00  0.00    +0.000 OA
ENDBRANCH  31  35
ENDBRANCH  29  31
ENDBRANCH   1  29
TORSDOF 10
ENDMDL
MODEL 2
REMARK VINA RESULT:      -7.8      2.089      9.619
REMARK  Name = 
REMARK  12 active torsions:
REMARK  status: ('A' for Active; 'I' for Inactive)
REMARK    1  A    between atoms: C_4  and  C_5
REMARK    2  A    between atoms: C_5  and  C_6
REMARK    3  A    between atoms: C_6  and  C_7
REMARK    4  A    between atoms: C_6  and  C_8
REMARK    5  A    between atoms: C_13  and  C_14
REMARK    6  A    between atoms: C_17  and  O_18
REMARK    7  A    between atoms: C_19  and  C_20
REMARK    8  A    between atoms: C_20  and  C_21
REMARK    9  A    between atoms: C_21  and  C_22
REMARK   10  A    between atoms: C_22  and  O_23
REMARK   11  A    between atoms: C_24  and  O_25
REMARK   12  A    between atoms: C_31  and  C_32
REMARK                            x       y       z     vdW  Elec       q    Type
REMARK                         _______ _______ _______ _____ _____    ______ ____
ROOT
ATOM      1  C   UNL     1      -0.876  12.357  19.997  0.00  0.00    +0.000 C 
ATOM      2  C   UNL     1      -0.620  11.821  18.565  0.00  0.00    +0.000 C 
ATOM      3  C   UNL     1      -0.116  10.381  18.722  0.00  0.00    +0.000 C 
ATOM      4  C   UNL     1      -0.506  10.002  20.155  0.00  0.00    +0.000 C 
ATOM      5  C   UNL     1       0.106   8.811  20.857  0.00  0.00    +0.000 C 
ATOM      6  C   UNL     1       1.019   8.027  20.263  0.00  0.00    +0.000 C 
ATOM      7  C   UNL     1      -0.362   8.675  22.303  0.00  0.00    +0.000 C 
ATOM      8  C   UNL     1      -0.364   9.994  23.102  0.00  0.00    +0.000 C 
ATOM      9  C   UNL     1      -0.903  11.191  22.309  0.00  0.00    +0.000 C 
ATOM     10  C   UNL     1      -0.207  11.306  20.938  0.00  0.00    +0.000 C 
ATOM     11  C   UNL     1       1.316  11.497  21.143  0.00  0.00    +0.000 C 
ENDROOT
BRANCH   6  12
ATOM     12  C   UNL     1       1.681   6.899  20.869  0.00  0.00    +0.000 C 
ATOM     13  C   UNL     1       2.104   5.788  20.232  0.00  0.00    +0.000 C 
ATOM     14  C   UNL     1       2.663   4.638  21.046  0.00  0.00    +0.000 C 
ATOM     15  C   UNL     1       2.099   3.274  20.615  0.00  0.00    +0.000 C 
ATOM     16  C   UNL     1       2.152   3.058  19.089  0.00  0.00    +0.000 C 
ATOM     17  C   UNL     1       1.429   4.233  18.389  0.00  0.00    +0.000 C 
ATOM     18  C   UNL     1       2.037   5.571  18.779  0.00  0.00    +0.000 C 
ATOM     19  C   UNL     1       2.509   6.475  17.903  0.00  0.00    +0.000 C 
BRANCH  15  20
ATOM     20  O   UNL     1       0.747   3.138  21.073  0.00  0.00    +0.000 OA
ATOM     21  H   UNL     1       0.447   3.990  21.428  0.00  0.00    +0.000 HD
ENDBRANCH  15  20
BRANCH  17  22
ATOM     22  O   UNL     1       1.413   4.032  16.975  0.00  0.00    +0.000 OA
ATOM     23  H   UNL     1       2.301   3.750  16.705  0.00  0.00    +0.000 HD
ENDBRANCH  17  22
BRANCH  16  24
ATOM     24  C   UNL     1       3.597   2.869  18.550  0.00  0.00    +0.000 C 
BRANCH  24  25
ATOM     25  C   UNL     1       4.722   3.383  19.450  0.00  0.00    +0.000 C 
BRANCH  25  26
ATOM     26  C   UNL     1       5.575   4.466  18.802  0.00  0.00    +0.000 C 
BRANCH  26  27
ATOM     27  O   UNL     1       6.514   4.961  19.746  0.00  0.00    +0.000 OA
ATOM     28  H   UNL     1       6.914   4.195  20.194  0.00  0.00    +0.000 HD
ENDBRANCH  26  27
ENDBRANCH  25  26
ENDBRANCH  24  25
ENDBRANCH  16  24
ENDBRANCH   6  12
BRANCH   1  29
ATOM     29  C   UNL     1      -0.597  13.874  20.225  0.00  0.00    +0.000 C 
ATOM     30  C   UNL     1      -1.904  14.574  20.636  0.00  0.00    +0.000 C 
BRANCH  29  31
ATOM     31  C   UNL     1       0.012  14.595  19.004  0.00  0.00    +0.000 C 
BRANCH  31  35
ATOM     32  C   UNL     1       4.770  14.578  18.231  0.00  0.00    +0.000 C 
ATOM     33  C   UNL     1       3.555  14.718  18.773  0.00  0.00    +0.000 C 
ATOM     34  C   UNL     1       2.287  14.968  18.062  0.00  0.00    +0.000 C 
ATOM     35  C   UNL     1       1.339  15.332  19.201  0.00  0.00    +0.000 C 
ATOM     36  O   UNL     1       1.965  14.899  20.417  0.00  0.00    +0.000 OA
ATOM     37  C   UNL     1       3.277  14.602  20.218  0.00  0.00    +0.000 C 
ATOM     38  O   UNL     1       4.070  14.271  21.079  0.00  0.00    +0.000 OA
ENDBRANCH  31  35
ENDBRANCH  29  31
ENDBRANCH   1  29
TORSDOF 10
ENDMDL
MODEL 3
REMARK VINA RESULT:      -7.7      3.295      5.466
REMARK  Name = 
REMARK  12 active torsions:
REMARK  status: ('A' for Active; 'I' for Inactive)
REMARK    1  A    between atoms: C_4  and  C_5
REMARK    2  A    between atoms: C_5  and  C_6
REMARK    3  A    between atoms: C_6  and  C_7
REMARK    4  A    between atoms: C_6  and  C_8
REMARK    5  A    between atoms: C_13  and  C_14
REMARK    6  A    between atoms: C_17  and  O_18
REMARK    7  A    between atoms: C_19  and  C_20
REMARK    8  A    between atoms: C_20  and  C_21
REMARK    9  A    between atoms: C_21  and  C_22
REMARK   10  A    between atoms: C_22  and  O_23
REMARK   11  A    between atoms: C_24  and  O_25
REMARK   12  A    between atoms: C_31  and  C_32
REMARK                            x       y       z     vdW  Elec       q    Type
REMARK                         _______ _______ _______ _____ _____    ______ ____
ROOT
ATOM      1  C   UNL     1       1.115   8.618  19.859  0.00  0.00    +0.000 C 
ATOM      2  C   UNL     1       1.297   8.600  21.399  0.00  0.00    +0.000 C 
ATOM      3  C   UNL     1       0.507   9.796  21.945  0.00  0.00    +0.000 C 
ATOM      4  C   UNL     1      -0.428  10.184  20.794  0.00  0.00    +0.000 C 
ATOM      5  C   UNL     1      -1.128  11.523  20.756  0.00  0.00    +0.000 C 
ATOM      6  C   UNL     1      -0.967  12.437  21.724  0.00  0.00    +0.000 C 
ATOM      7  C   UNL     1      -1.936  11.729  19.477  0.00  0.00    +0.000 C 
ATOM      8  C   UNL     1      -1.203  11.319  18.184  0.00  0.00    +0.000 C 
ATOM      9  C   UNL     1      -0.427  10.003  18.308  0.00  0.00    +0.000 C 
ATOM     10  C   UNL     1       0.484  10.012  19.552  0.00  0.00    +0.000 C 
ATOM     11  C   UNL     1       1.502  11.174  19.441  0.00  0.00    +0.000 C 
ENDROOT
BRANCH   6  12
ATOM     12  C   UNL     1      -1.563  13.751  21.749  0.00  0.00    +0.000 C 
ATOM     13  C   UNL     1      -2.812  14.050  22.158  0.00  0.00    +0.000 C 
ATOM     14  C   UNL     1      -3.324  15.468  21.992  0.00  0.00    +0.000 C 
ATOM     15  C   UNL     1      -4.744  15.523  21.406  0.00  0.00    +0.000 C 
ATOM     16  C   UNL     1      -5.726  14.572  22.122  0.00  0.00    +0.000 C 
ATOM     17  C   UNL     1      -5.145  13.138  22.100  0.00  0.00    +0.000 C 
ATOM     18  C   UNL     1      -3.764  13.090  22.737  0.00  0.00    +0.000 C 
ATOM     19  C   UNL     1      -3.427  12.281  23.756  0.00  0.00    +0.000 C 
BRANCH  15  20
ATOM     20  O   UNL     1      -4.708  15.212  20.007  0.00  0.00    +0.000 OA
ATOM     21  H   UNL     1      -5.543  14.783  19.758  0.00  0.00    +0.000 HD
ENDBRANCH  15  20
BRANCH  17  22
ATOM     22  O   UNL     1      -6.058  12.225  22.707  0.00  0.00    +0.000 OA
ATOM     23  H   UNL     1      -5.902  11.348  22.323  0.00  0.00    +0.000 HD
ENDBRANCH  17  22
BRANCH  16  24
ATOM     24  C   UNL     1      -6.075  15.030  23.565  0.00  0.00    +0.000 C 
BRANCH  24  25
ATOM     25  C   UNL     1      -6.327  16.527  23.753  0.00  0.00    +0.000 C 
BRANCH  25  26
ATOM     26  C   UNL     1      -5.296  17.213  24.639  0.00  0.00    +0.000 C 
BRANCH  26  27
ATOM     27  O   UNL     1      -4.422  16.238  25.192  0.00  0.00    +0.000 OA
ATOM     28  H   UNL     1      -4.208  15.600  24.489  0.00  0.00    +0.000 HD
ENDBRANCH  26  27
ENDBRANCH  25  26
ENDBRANCH  24  25
ENDBRANCH  16  24
ENDBRANCH   6  12
BRANCH   1  29
ATOM     29  C   UNL     1       2.333   8.127  19.017  0.00  0.00    +0.000 C 
ATOM     30  C   UNL     1       1.944   8.107  17.529  0.00  0.00    +0.000 C 
BRANCH  29  31
ATOM     31  C   UNL     1       2.869   6.741  19.430  0.00  0.00    +0.000 C 
BRANCH  31  35
ATOM     32  C   UNL     1       1.538   2.603  21.511  0.00  0.00    +0.000 C 
ATOM     33  C   UNL     1       1.826   3.562  20.626  0.00  0.00    +0.000 C 
ATOM     34  C   UNL     1       1.746   5.021  20.836  0.00  0.00    +0.000 C 
ATOM     35  C   UNL     1       1.890   5.565  19.419  0.00  0.00    +0.000 C 
ATOM     36  O   UNL     1       2.414   4.498  18.615  0.00  0.00    +0.000 OA
ATOM     37  C   UNL     1       2.326   3.305  19.261  0.00  0.00    +0.000 C 
ATOM     38  O   UNL     1       2.633   2.222  18.800  0.00  0.00    +0.000 OA
ENDBRANCH  31  35
ENDBRANCH  29  31
ENDBRANCH   1  29
TORSDOF 10
ENDMDL
MODEL 4
REMARK VINA RESULT:      -7.6      2.313     10.132
REMARK  Name = 
REMARK  12 active torsions:
REMARK  status: ('A' for Active; 'I' for Inactive)
REMARK    1  A    between atoms: C_4  and  C_5
REMARK    2  A    between atoms: C_5  and  C_6
REMARK    3  A    between atoms: C_6  and  C_7
REMARK    4  A    between atoms: C_6  and  C_8
REMARK    5  A    between atoms: C_13  and  C_14
REMARK    6  A    between atoms: C_17  and  O_18
REMARK    7  A    between atoms: C_19  and  C_20
REMARK    8  A    between atoms: C_20  and  C_21
REMARK    9  A    between atoms: C_21  and  C_22
REMARK   10  A    between atoms: C_22  and  O_23
REMARK   11  A    between atoms: C_24  and  O_25
REMARK   12  A    between atoms: C_31  and  C_32
REMARK                            x       y       z     vdW  Elec       q    Type
REMARK                         _______ _______ _______ _____ _____    ______ ____
ROOT
ATOM      1  C   UNL     1      -0.876  12.278  19.937  0.00  0.00    +0.000 C 
ATOM      2  C   UNL     1      -0.634  11.718  18.511  0.00  0.00    +0.000 C 
ATOM      3  C   UNL     1      -0.135  10.278  18.687  0.00  0.00    +0.000 C 
ATOM      4  C   UNL     1      -0.513   9.924  20.129  0.00  0.00    +0.000 C 
ATOM      5  C   UNL     1       0.100   8.742  20.845  0.00  0.00    +0.000 C 
ATOM      6  C   UNL     1       1.004   7.945  20.256  0.00  0.00    +0.000 C 
ATOM      7  C   UNL     1      -0.356   8.632  22.298  0.00  0.00    +0.000 C 
ATOM      8  C   UNL     1      -0.345   9.964  23.075  0.00  0.00    +0.000 C 
ATOM      9  C   UNL     1      -0.885  11.150  22.267  0.00  0.00    +0.000 C 
ATOM     10  C   UNL     1      -0.202  11.239  20.888  0.00  0.00    +0.000 C 
ATOM     11  C   UNL     1       1.324  11.427  21.077  0.00  0.00    +0.000 C 
ENDROOT
BRANCH   6  12
ATOM     12  C   UNL     1       1.667   6.824  20.874  0.00  0.00    +0.000 C 
ATOM     13  C   UNL     1       2.085   5.703  20.250  0.00  0.00    +0.000 C 
ATOM     14  C   UNL     1       2.646   4.563  21.078  0.00  0.00    +0.000 C 
ATOM     15  C   UNL     1       2.078   3.195  20.667  0.00  0.00    +0.000 C 
ATOM     16  C   UNL     1       2.124   2.958  19.144  0.00  0.00    +0.000 C 
ATOM     17  C   UNL     1       1.399   4.124  18.431  0.00  0.00    +0.000 C 
ATOM     18  C   UNL     1       2.012   5.467  18.801  0.00  0.00    +0.000 C 
ATOM     19  C   UNL     1       2.481   6.358  17.911  0.00  0.00    +0.000 C 
BRANCH  15  20
ATOM     20  O   UNL     1       0.727   3.067  21.133  0.00  0.00    +0.000 OA
ATOM     21  H   UNL     1       0.162   3.675  20.630  0.00  0.00    +0.000 HD
ENDBRANCH  15  20
BRANCH  17  22
ATOM     22  O   UNL     1       1.377   3.905  17.021  0.00  0.00    +0.000 OA
ATOM     23  H   UNL     1       2.250   4.140  16.669  0.00  0.00    +0.000 HD
ENDBRANCH  17  22
BRANCH  16  24
ATOM     24  C   UNL     1       3.566   2.759  18.602  0.00  0.00    +0.000 C 
BRANCH  24  25
ATOM     25  C   UNL     1       4.695   3.300  19.481  0.00  0.00    +0.000 C 
BRANCH  25  26
ATOM     26  C   UNL     1       5.562   4.343  18.786  0.00  0.00    +0.000 C 
BRANCH  26  27
ATOM     27  O   UNL     1       5.779   3.956  17.436  0.00  0.00    +0.000 OA
ATOM     28  H   UNL     1       6.318   4.647  17.014  0.00  0.00    +0.000 HD
ENDBRANCH  26  27
ENDBRANCH  25  26
ENDBRANCH  24  25
ENDBRANCH  16  24
ENDBRANCH   6  12
BRANCH   1  29
ATOM     29  C   UNL     1      -0.588  13.797  20.137  0.00  0.00    +0.000 C 
ATOM     30  C   UNL     1      -1.851  14.484  20.685  0.00  0.00    +0.000 C 
BRANCH  29  31
ATOM     31  C   UNL     1      -0.117  14.525  18.861  0.00  0.00    +0.000 C 
BRANCH  31  35
ATOM     32  C   UNL     1       3.372  16.615  21.446  0.00  0.00    +0.000 C 
ATOM     33  C   UNL     1       2.517  16.280  20.474  0.00  0.00    +0.000 C 
ATOM     34  C   UNL     1       1.909  14.956  20.243  0.00  0.00    +0.000 C 
ATOM     35  C   UNL     1       1.295  15.115  18.856  0.00  0.00    +0.000 C 
ATOM     36  O   UNL     1       1.237  16.523  18.585  0.00  0.00    +0.000 OA
ATOM     37  C   UNL     1       1.997  17.225  19.468  0.00  0.00    +0.000 C 
ATOM     38  O   UNL     1       2.187  18.427  19.444  0.00  0.00    +0.000 OA
ENDBRANCH  31  35
ENDBRANCH  29  31
ENDBRANCH   1  29
TORSDOF 10
ENDMDL
MODEL 5
REMARK VINA RESULT:      -7.6      2.334     10.153
REMARK  Name = 
REMARK  12 active torsions:
REMARK  status: ('A' for Active; 'I' for Inactive)
REMARK    1  A    between atoms: C_4  and  C_5
REMARK    2  A    between atoms: C_5  and  C_6
REMARK    3  A    between atoms: C_6  and  C_7
REMARK    4  A    between atoms: C_6  and  C_8
REMARK    5  A    between atoms: C_13  and  C_14
REMARK    6  A    between atoms: C_17  and  O_18
REMARK    7  A    between atoms: C_19  and  C_20
REMARK    8  A    between atoms: C_20  and  C_21
REMARK    9  A    between atoms: C_21  and  C_22
REMARK   10  A    between atoms: C_22  and  O_23
REMARK   11  A    between atoms: C_24  and  O_25
REMARK   12  A    between atoms: C_31  and  C_32
REMARK                            x       y       z     vdW  Elec       q    Type
REMARK                         _______ _______ _______ _____ _____    ______ ____
ROOT
ATOM      1  C   UNL     1      -0.770  12.267  19.971  0.00  0.00    +0.000 C 
ATOM      2  C   UNL     1      -0.487  11.708  18.553  0.00  0.00    +0.000 C 
ATOM      3  C   UNL     1      -0.027  10.257  18.740  0.00  0.00    +0.000 C 
ATOM      4  C   UNL     1      -0.467   9.905  20.165  0.00  0.00    +0.000 C 
ATOM      5  C   UNL     1       0.092   8.706  20.897  0.00  0.00    +0.000 C 
ATOM      6  C   UNL     1       1.000   7.892  20.338  0.00  0.00    +0.000 C 
ATOM      7  C   UNL     1      -0.420   8.600  22.331  0.00  0.00    +0.000 C 
ATOM      8  C   UNL     1      -0.409   9.928  23.115  0.00  0.00    +0.000 C 
ATOM      9  C   UNL     1      -0.893  11.130  22.294  0.00  0.00    +0.000 C 
ATOM     10  C   UNL     1      -0.156  11.210  20.942  0.00  0.00    +0.000 C 
ATOM     11  C   UNL     1       1.366  11.363  21.189  0.00  0.00    +0.000 C 
ENDROOT
BRANCH   6  12
ATOM     12  C   UNL     1       1.614   6.753  20.975  0.00  0.00    +0.000 C 
ATOM     13  C   UNL     1       2.044   5.633  20.360  0.00  0.00    +0.000 C 
ATOM     14  C   UNL     1       2.546   4.475  21.201  0.00  0.00    +0.000 C 
ATOM     15  C   UNL     1       1.977   3.121  20.748  0.00  0.00    +0.000 C 
ATOM     16  C   UNL     1       2.093   2.899  19.226  0.00  0.00    +0.000 C 
ATOM     17  C   UNL     1       1.423   4.085  18.492  0.00  0.00    +0.000 C 
ATOM     18  C   UNL     1       2.038   5.413  18.906  0.00  0.00    +0.000 C 
ATOM     19  C   UNL     1       2.564   6.306  18.050  0.00  0.00    +0.000 C 
BRANCH  15  20
ATOM     20  O   UNL     1       0.604   3.010  21.146  0.00  0.00    +0.000 OA
ATOM     21  H   UNL     1       0.540   2.386  21.886  0.00  0.00    +0.000 HD
ENDBRANCH  15  20
BRANCH  17  22
ATOM     22  O   UNL     1       1.466   3.881  17.080  0.00  0.00    +0.000 OA
ATOM     23  H   UNL     1       1.090   3.006  16.894  0.00  0.00    +0.000 HD
ENDBRANCH  17  22
BRANCH  16  24
ATOM     24  C   UNL     1       3.557   2.683  18.752  0.00  0.00    +0.000 C 
BRANCH  24  25
ATOM     25  C   UNL     1       4.620   2.647  19.851  0.00  0.00    +0.000 C 
BRANCH  25  26
ATOM     26  C   UNL     1       4.965   1.239  20.319  0.00  0.00    +0.000 C 
BRANCH  26  27
ATOM     27  O   UNL     1       5.587   1.302  21.596  0.00  0.00    +0.000 OA
ATOM     28  H   UNL     1       4.883   1.376  22.263  0.00  0.00    +0.000 HD
ENDBRANCH  26  27
ENDBRANCH  25  26
ENDBRANCH  24  25
ENDBRANCH  16  24
ENDBRANCH   6  12
BRANCH   1  29
ATOM     29  C   UNL     1      -0.456  13.779  20.190  0.00  0.00    +0.000 C 
ATOM     30  C   UNL     1      -1.770  14.536  20.450  0.00  0.00    +0.000 C 
BRANCH  29  31
ATOM     31  C   UNL     1       0.299  14.443  19.020  0.00  0.00    +0.000 C 
BRANCH  31  35
ATOM     32  C   UNL     1       4.046  16.756  20.980  0.00  0.00    +0.000 C 
ATOM     33  C   UNL     1       3.226  16.118  20.139  0.00  0.00    +0.000 C 
ATOM     34  C   UNL     1       2.195  15.121  20.485  0.00  0.00    +0.000 C 
ATOM     35  C   UNL     1       1.823  14.547  19.122  0.00  0.00    +0.000 C 
ATOM     36  O   UNL     1       2.319  15.463  18.135  0.00  0.00    +0.000 OA
ATOM     37  C   UNL     1       3.195  16.348  18.681  0.00  0.00    +0.000 C 
ATOM     38  O   UNL     1       3.820  17.197  18.074  0.00  0.00    +0.000 OA
ENDBRANCH  31  35
ENDBRANCH  29  31
ENDBRANCH   1  29
TORSDOF 10
ENDMDL
MODEL 6
REMARK VINA RESULT:      -7.6      3.391      5.689
REMARK  Name = 
REMARK  12 active torsions:
REMARK  status: ('A' for Active; 'I' for Inactive)
REMARK    1  A    between atoms: C_4  and  C_5
REMARK    2  A    between atoms: C_5  and  C_6
REMARK    3  A    between atoms: C_6  and  C_7
REMARK    4  A    between atoms: C_6  and  C_8
REMARK    5  A    between atoms: C_13  and  C_14
REMARK    6  A    between atoms: C_17  and  O_18
REMARK    7  A    between atoms: C_19  and  C_20
REMARK    8  A    between atoms: C_20  and  C_21
REMARK    9  A    between atoms: C_21  and  C_22
REMARK   10  A    between atoms: C_22  and  O_23
REMARK   11  A    between atoms: C_24  and  O_25
REMARK   12  A    between atoms: C_31  and  C_32
REMARK                            x       y       z     vdW  Elec       q    Type
REMARK                         _______ _______ _______ _____ _____    ______ ____
ROOT
ATOM      1  C   UNL     1       1.006   8.719  19.885  0.00  0.00    +0.000 C 
ATOM      2  C   UNL     1       1.157   8.715  21.428  0.00  0.00    +0.000 C 
ATOM      3  C   UNL     1       0.346   9.909  21.949  0.00  0.00    +0.000 C 
ATOM      4  C   UNL     1      -0.568  10.281  20.776  0.00  0.00    +0.000 C 
ATOM      5  C   UNL     1      -1.277  11.614  20.712  0.00  0.00    +0.000 C 
ATOM      6  C   UNL     1      -1.143  12.538  21.676  0.00  0.00    +0.000 C 
ATOM      7  C   UNL     1      -2.060  11.804  19.415  0.00  0.00    +0.000 C 
ATOM      8  C   UNL     1      -1.298  11.390  18.141  0.00  0.00    +0.000 C 
ATOM      9  C   UNL     1      -0.514  10.080  18.292  0.00  0.00    +0.000 C 
ATOM     10  C   UNL     1       0.371  10.106  19.554  0.00  0.00    +0.000 C 
ATOM     11  C   UNL     1       1.382  11.275  19.455  0.00  0.00    +0.000 C 
ENDROOT
BRANCH   6  12
ATOM     12  C   UNL     1      -1.749  13.846  21.678  0.00  0.00    +0.000 C 
ATOM     13  C   UNL     1      -2.983  14.151  22.127  0.00  0.00    +0.000 C 
ATOM     14  C   UNL     1      -3.514  15.558  21.931  0.00  0.00    +0.000 C 
ATOM     15  C   UNL     1      -4.957  15.581  21.401  0.00  0.00    +0.000 C 
ATOM     16  C   UNL     1      -5.901  14.650  22.189  0.00  0.00    +0.000 C 
ATOM     17  C   UNL     1      -5.308  13.221  22.195  0.00  0.00    +0.000 C 
ATOM     18  C   UNL     1      -3.902  13.205  22.777  0.00  0.00    +0.000 C 
ATOM     19  C   UNL     1      -3.517  12.436  23.810  0.00  0.00    +0.000 C 
BRANCH  15  20
ATOM     20  O   UNL     1      -4.974  15.220  20.014  0.00  0.00    +0.000 OA
ATOM     21  H   UNL     1      -4.097  14.889  19.763  0.00  0.00    +0.000 HD
ENDBRANCH  15  20
BRANCH  17  22
ATOM     22  O   UNL     1      -6.188  12.323  22.871  0.00  0.00    +0.000 OA
ATOM     23  H   UNL     1      -6.689  12.834  23.526  0.00  0.00    +0.000 HD
ENDBRANCH  17  22
BRANCH  16  24
ATOM     24  C   UNL     1      -6.195  15.157  23.629  0.00  0.00    +0.000 C 
BRANCH  24  25
ATOM     25  C   UNL     1      -6.131  16.671  23.834  0.00  0.00    +0.000 C 
BRANCH  25  26
ATOM     26  C   UNL     1      -5.107  17.102  24.876  0.00  0.00    +0.000 C 
BRANCH  26  27
ATOM     27  O   UNL     1      -4.245  16.012  25.174  0.00  0.00    +0.000 OA
ATOM     28  H   UNL     1      -3.774  16.225  25.998  0.00  0.00    +0.000 HD
ENDBRANCH  26  27
ENDBRANCH  25  26
ENDBRANCH  24  25
ENDBRANCH  16  24
ENDBRANCH   6  12
BRANCH   1  29
ATOM     29  C   UNL     1       2.244   8.231  19.072  0.00  0.00    +0.000 C 
ATOM     30  C   UNL     1       2.011   8.511  17.577  0.00  0.00    +0.000 C 
BRANCH  29  31
ATOM     31  C   UNL     1       2.583   6.740  19.271  0.00  0.00    +0.000 C 
BRANCH  31  35
ATOM     32  C   UNL     1       2.489   2.180  17.713  0.00  0.00    +0.000 C 
ATOM     33  C   UNL     1       2.700   3.495  17.828  0.00  0.00    +0.000 C 
ATOM     34  C   UNL     1       1.857   4.472  18.544  0.00  0.00    +0.000 C 
ATOM     35  C   UNL     1       2.425   5.805  18.069  0.00  0.00    +0.000 C 
ATOM     36  O   UNL     1       3.709   5.529  17.492  0.00  0.00    +0.000 OA
ATOM     37  C   UNL     1       3.873   4.196  17.272  0.00  0.00    +0.000 C 
ATOM     38  O   UNL     1       4.834   3.677  16.735  0.00  0.00    +0.000 OA
ENDBRANCH  31  35
ENDBRANCH  29  31
ENDBRANCH   1  29
TORSDOF 10
ENDMDL
MODEL 7
REMARK VINA RESULT:      -7.6      2.298      3.894
REMARK  Name = 
REMARK  12 active torsions:
REMARK  status: ('A' for Active; 'I' for Inactive)
REMARK    1  A    between atoms: C_4  and  C_5
REMARK    2  A    between atoms: C_5  and  C_6
REMARK    3  A    between atoms: C_6  and  C_7
REMARK    4  A    between atoms: C_6  and  C_8
REMARK    5  A    between atoms: C_13  and  C_14
REMARK    6  A    between atoms: C_17  and  O_18
REMARK    7  A    between atoms: C_19  and  C_20
REMARK    8  A    between atoms: C_20  and  C_21
REMARK    9  A    between atoms: C_21  and  C_22
REMARK   10  A    between atoms: C_22  and  O_23
REMARK   11  A    between atoms: C_24  and  O_25
REMARK   12  A    between atoms: C_31  and  C_32
REMARK                            x       y       z     vdW  Elec       q    Type
REMARK                         _______ _______ _______ _____ _____    ______ ____
ROOT
ATOM      1  C   UNL     1       4.099   5.419  17.864  0.00  0.00    +0.000 C 
ATOM      2  C   UNL     1       4.495   6.671  17.039  0.00  0.00    +0.000 C 
ATOM      3  C   UNL     1       3.624   7.824  17.553  0.00  0.00    +0.000 C 
ATOM      4  C   UNL     1       3.095   7.323  18.901  0.00  0.00    +0.000 C 
ATOM      5  C   UNL     1       1.919   7.978  19.588  0.00  0.00    +0.000 C 
ATOM      6  C   UNL     1       1.279   9.030  19.054  0.00  0.00    +0.000 C 
ATOM      7  C   UNL     1       1.511   7.260  20.871  0.00  0.00    +0.000 C 
ATOM      8  C   UNL     1       1.444   5.724  20.752  0.00  0.00    +0.000 C 
ATOM      9  C   UNL     1       2.610   5.119  19.960  0.00  0.00    +0.000 C 
ATOM     10  C   UNL     1       2.789   5.832  18.605  0.00  0.00    +0.000 C 
ATOM     11  C   UNL     1       1.495   5.684  17.766  0.00  0.00    +0.000 C 
ENDROOT
BRANCH   6  12
ATOM     12  C   UNL     1       0.128   9.690  19.618  0.00  0.00    +0.000 C 
ATOM     13  C   UNL     1       0.046  10.992  19.960  0.00  0.00    +0.000 C 
ATOM     14  C   UNL     1      -1.199  11.493  20.667  0.00  0.00    +0.000 C 
ATOM     15  C   UNL     1      -0.878  12.387  21.875  0.00  0.00    +0.000 C 
ATOM     16  C   UNL     1       0.155  13.486  21.552  0.00  0.00    +0.000 C 
ATOM     17  C   UNL     1       1.426  12.826  20.965  0.00  0.00    +0.000 C 
ATOM     18  C   UNL     1       1.100  11.992  19.735  0.00  0.00    +0.000 C 
ATOM     19  C   UNL     1       1.680  12.155  18.533  0.00  0.00    +0.000 C 
BRANCH  15  20
ATOM     20  O   UNL     1      -0.401  11.585  22.964  0.00  0.00    +0.000 OA
ATOM     21  H   UNL     1       0.477  11.237  22.738  0.00  0.00    +0.000 HD
ENDBRANCH  15  20
BRANCH  17  22
ATOM     22  O   UNL     1       2.423  13.814  20.707  0.00  0.00    +0.000 OA
ATOM     23  H   UNL     1       2.165  14.294  19.905  0.00  0.00    +0.000 HD
ENDBRANCH  17  22
BRANCH  16  24
ATOM     24  C   UNL     1      -0.404  14.591  20.613  0.00  0.00    +0.000 C 
BRANCH  24  25
ATOM     25  C   UNL     1      -0.453  16.005  21.195  0.00  0.00    +0.000 C 
BRANCH  25  26
ATOM     26  C   UNL     1       0.693  16.894  20.730  0.00  0.00    +0.000 C 
BRANCH  26  27
ATOM     27  O   UNL     1       1.330  16.300  19.607  0.00  0.00    +0.000 OA
ATOM     28  H   UNL     1       1.865  16.987  19.173  0.00  0.00    +0.000 HD
ENDBRANCH  26  27
ENDBRANCH  25  26
ENDBRANCH  24  25
ENDBRANCH  16  24
ENDBRANCH   6  12
BRANCH   1  29
ATOM     29  C   UNL     1       4.154   4.054  17.111  0.00  0.00    +0.000 C 
ATOM     30  C   UNL     1       4.016   2.909  18.129  0.00  0.00    +0.000 C 
BRANCH  29  31
ATOM     31  C   UNL     1       5.431   3.847  16.271  0.00  0.00    +0.000 C 
BRANCH  31  35
ATOM     32  C   UNL     1       6.999   3.745  11.714  0.00  0.00    +0.000 C 
ATOM     33  C   UNL     1       6.682   4.123  12.957  0.00  0.00    +0.000 C 
ATOM     34  C   UNL     1       5.594   3.591  13.799  0.00  0.00    +0.000 C 
ATOM     35  C   UNL     1       5.540   4.599  14.942  0.00  0.00    +0.000 C 
ATOM     36  O   UNL     1       6.767   5.342  14.900  0.00  0.00    +0.000 OA
ATOM     37  C   UNL     1       7.423   5.143  13.724  0.00  0.00    +0.000 C 
ATOM     38  O   UNL     1       8.455   5.691  13.384  0.00  0.00    +0.000 OA
ENDBRANCH  31  35
ENDBRANCH  29  31
ENDBRANCH   1  29
TORSDOF 10
ENDMDL
MODEL 8
REMARK VINA RESULT:      -7.6      2.323      9.935
REMARK  Name = 
REMARK  12 active torsions:
REMARK  status: ('A' for Active; 'I' for Inactive)
REMARK    1  A    between atoms: C_4  and  C_5
REMARK    2  A    between atoms: C_5  and  C_6
REMARK    3  A    between atoms: C_6  and  C_7
REMARK    4  A    between atoms: C_6  and  C_8
REMARK    5  A    between atoms: C_13  and  C_14
REMARK    6  A    between atoms: C_17  and  O_18
REMARK    7  A    between atoms: C_19  and  C_20
REMARK    8  A    between atoms: C_20  and  C_21
REMARK    9  A    between atoms: C_21  and  C_22
REMARK   10  A    between atoms: C_22  and  O_23
REMARK   11  A    between atoms: C_24  and  O_25
REMARK   12  A    between atoms: C_31  and  C_32
REMARK                            x       y       z     vdW  Elec       q    Type
REMARK                         _______ _______ _______ _____ _____    ______ ____
ROOT
ATOM      1  C   UNL     1      -1.118  12.243  20.203  0.00  0.00    +0.000 C 
ATOM      2  C   UNL     1      -0.912  11.734  18.753  0.00  0.00    +0.000 C 
ATOM      3  C   UNL     1      -0.373  10.302  18.866  0.00  0.00    +0.000 C 
ATOM      4  C   UNL     1      -0.695   9.893  20.308  0.00  0.00    +0.000 C 
ATOM      5  C   UNL     1      -0.029   8.706  20.965  0.00  0.00    +0.000 C 
ATOM      6  C   UNL     1       0.873   7.950  20.321  0.00  0.00    +0.000 C 
ATOM      7  C   UNL     1      -0.433   8.539  22.428  0.00  0.00    +0.000 C 
ATOM      8  C   UNL     1      -0.428   9.846  23.246  0.00  0.00    +0.000 C 
ATOM      9  C   UNL     1      -1.023  11.043  22.495  0.00  0.00    +0.000 C 
ATOM     10  C   UNL     1      -0.389  11.192  21.098  0.00  0.00    +0.000 C 
ATOM     11  C   UNL     1       1.138  11.412  21.242  0.00  0.00    +0.000 C 
ENDROOT
BRANCH   6  12
ATOM     12  C   UNL     1       1.583   6.827  20.882  0.00  0.00    +0.000 C 
ATOM     13  C   UNL     1       1.999   5.734  20.211  0.00  0.00    +0.000 C 
ATOM     14  C   UNL     1       2.616   4.583  20.983  0.00  0.00    +0.000 C 
ATOM     15  C   UNL     1       2.060   3.215  20.556  0.00  0.00    +0.000 C 
ATOM     16  C   UNL     1       2.052   3.021  19.025  0.00  0.00    +0.000 C 
ATOM     17  C   UNL     1       1.276   4.191  18.374  0.00  0.00    +0.000 C 
ATOM     18  C   UNL     1       1.874   5.536  18.759  0.00  0.00    +0.000 C 
ATOM     19  C   UNL     1       2.290   6.461  17.877  0.00  0.00    +0.000 C 
BRANCH  15  20
ATOM     20  O   UNL     1       0.732   3.044  21.069  0.00  0.00    +0.000 OA
ATOM     21  H   UNL     1       0.654   2.155  21.450  0.00  0.00    +0.000 HD
ENDBRANCH  15  20
BRANCH  17  22
ATOM     22  O   UNL     1       1.204   4.011  16.960  0.00  0.00    +0.000 OA
ATOM     23  H   UNL     1       1.747   4.698  16.544  0.00  0.00    +0.000 HD
ENDBRANCH  17  22
BRANCH  16  24
ATOM     24  C   UNL     1       3.476   2.870  18.422  0.00  0.00    +0.000 C 
BRANCH  24  25
ATOM     25  C   UNL     1       4.630   3.373  19.291  0.00  0.00    +0.000 C 
BRANCH  25  26
ATOM     26  C   UNL     1       5.438   4.490  18.643  0.00  0.00    +0.000 C 
BRANCH  26  27
ATOM     27  O   UNL     1       6.779   4.059  18.454  0.00  0.00    +0.000 OA
ATOM     28  H   UNL     1       7.095   3.699  19.300  0.00  0.00    +0.000 HD
ENDBRANCH  26  27
ENDBRANCH  25  26
ENDBRANCH  24  25
ENDBRANCH  16  24
ENDBRANCH   6  12
BRANCH   1  29
ATOM     29  C   UNL     1      -0.860  13.762  20.442  0.00  0.00    +0.000 C 
ATOM     30  C   UNL     1      -2.179  14.443  20.846  0.00  0.00    +0.000 C 
BRANCH  29  31
ATOM     31  C   UNL     1      -0.250  14.497  19.231  0.00  0.00    +0.000 C 
BRANCH  31  35
ATOM     32  C   UNL     1       3.223  17.161  17.214  0.00  0.00    +0.000 C 
ATOM     33  C   UNL     1       2.549  16.269  17.946  0.00  0.00    +0.000 C 
ATOM     34  C   UNL     1       1.164  16.389  18.441  0.00  0.00    +0.000 C 
ATOM     35  C   UNL     1       1.072  15.240  19.440  0.00  0.00    +0.000 C 
ATOM     36  O   UNL     1       2.175  14.362  19.167  0.00  0.00    +0.000 OA
ATOM     37  C   UNL     1       3.090  14.959  18.357  0.00  0.00    +0.000 C 
ATOM     38  O   UNL     1       4.153  14.479  18.011  0.00  0.00    +0.000 OA
ENDBRANCH  31  35
ENDBRANCH  29  31
ENDBRANCH   1  29
TORSDOF 10
ENDMDL
MODEL 9
REMARK VINA RESULT:      -7.5      2.987      5.044
REMARK  Name = 
REMARK  12 active torsions:
REMARK  status: ('A' for Active; 'I' for Inactive)
REMARK    1  A    between atoms: C_4  and  C_5
REMARK    2  A    between atoms: C_5  and  C_6
REMARK    3  A    between atoms: C_6  and  C_7
REMARK    4  A    between atoms: C_6  and  C_8
REMARK    5  A    between atoms: C_13  and  C_14
REMARK    6  A    between atoms: C_17  and  O_18
REMARK    7  A    between atoms: C_19  and  C_20
REMARK    8  A    between atoms: C_20  and  C_21
REMARK    9  A    between atoms: C_21  and  C_22
REMARK   10  A    between atoms: C_22  and  O_23
REMARK   11  A    between atoms: C_24  and  O_25
REMARK   12  A    between atoms: C_31  and  C_32
REMARK                            x       y       z     vdW  Elec       q    Type
REMARK                         _______ _______ _______ _____ _____    ______ ____
ROOT
ATOM      1  C   UNL     1       6.209   4.300  17.291  0.00  0.00    +0.000 C 
ATOM      2  C   UNL     1       7.001   5.198  18.276  0.00  0.00    +0.000 C 
ATOM      3  C   UNL     1       5.973   5.789  19.249  0.00  0.00    +0.000 C 
ATOM      4  C   UNL     1       4.737   4.900  19.075  0.00  0.00    +0.000 C 
ATOM      5  C   UNL     1       3.374   5.329  19.567  0.00  0.00    +0.000 C 
ATOM      6  C   UNL     1       3.176   6.506  20.180  0.00  0.00    +0.000 C 
ATOM      7  C   UNL     1       2.277   4.329  19.208  0.00  0.00    +0.000 C 
ATOM      8  C   UNL     1       2.332   3.812  17.757  0.00  0.00    +0.000 C 
ATOM      9  C   UNL     1       3.751   3.486  17.275  0.00  0.00    +0.000 C 
ATOM     10  C   UNL     1       4.712   4.662  17.543  0.00  0.00    +0.000 C 
ATOM     11  C   UNL     1       4.213   5.921  16.791  0.00  0.00    +0.000 C 
ENDROOT
BRANCH   6  12
ATOM     12  C   UNL     1       1.908   7.010  20.645  0.00  0.00    +0.000 C 
ATOM     13  C   UNL     1       1.236   8.063  20.138  0.00  0.00    +0.000 C 
ATOM     14  C   UNL     1      -0.023   8.541  20.834  0.00  0.00    +0.000 C 
ATOM     15  C   UNL     1      -0.066  10.068  21.005  0.00  0.00    +0.000 C 
ATOM     16  C   UNL     1       0.269  10.827  19.704  0.00  0.00    +0.000 C 
ATOM     17  C   UNL     1       1.639  10.341  19.176  0.00  0.00    +0.000 C 
ATOM     18  C   UNL     1       1.646   8.835  18.955  0.00  0.00    +0.000 C 
ATOM     19  C   UNL     1       1.959   8.240  17.791  0.00  0.00    +0.000 C 
BRANCH  15  20
ATOM     20  O   UNL     1       0.840  10.470  22.042  0.00  0.00    +0.000 OA
ATOM     21  H   UNL     1       0.349  10.977  22.709  0.00  0.00    +0.000 HD
ENDBRANCH  15  20
BRANCH  17  22
ATOM     22  O   UNL     1       2.002  11.066  18.001  0.00  0.00    +0.000 OA
ATOM     23  H   UNL     1       1.650  10.586  17.235  0.00  0.00    +0.000 HD
ENDBRANCH  17  22
BRANCH  16  24
ATOM     24  C   UNL     1      -0.842  10.704  18.624  0.00  0.00    +0.000 C 
BRANCH  24  25
ATOM     25  C   UNL     1      -1.393  12.020  18.074  0.00  0.00    +0.000 C 
BRANCH  25  26
ATOM     26  C   UNL     1      -1.340  13.168  19.074  0.00  0.00    +0.000 C 
BRANCH  26  27
ATOM     27  O   UNL     1      -0.670  14.276  18.489  0.00  0.00    +0.000 OA
ATOM     28  H   UNL     1      -0.567  14.955  19.178  0.00  0.00    +0.000 HD
ENDBRANCH  26  27
ENDBRANCH  25  26
ENDBRANCH  24  25
ENDBRANCH  16  24
ENDBRANCH   6  12
BRANCH   1  29
ATOM     29  C   UNL     1       6.746   4.244  15.828  0.00  0.00    +0.000 C 
ATOM     30  C   UNL     1       6.936   5.677  15.302  0.00  0.00    +0.000 C 
BRANCH  29  31
ATOM     31  C   UNL     1       5.847   3.453  14.855  0.00  0.00    +0.000 C 
BRANCH  31  35
ATOM     32  C   UNL     1       3.686   3.357  10.548  0.00  0.00    +0.000 C 
ATOM     33  C   UNL     1       4.578   3.281  11.541  0.00  0.00    +0.000 C 
ATOM     34  C   UNL     1       4.577   4.052  12.799  0.00  0.00    +0.000 C 
ATOM     35  C   UNL     1       5.965   3.764  13.361  0.00  0.00    +0.000 C 
ATOM     36  O   UNL     1       6.468   2.618  12.660  0.00  0.00    +0.000 OA
ATOM     37  C   UNL     1       5.724   2.352  11.553  0.00  0.00    +0.000 C 
ATOM     38  O   UNL     1       5.952   1.480  10.735  0.00  0.00    +0.000 OA
ENDBRANCH  31  35
ENDBRANCH  29  31
ENDBRANCH   1  29
TORSDOF 10
ENDMDL
