MODEL 1
REMARK VINA RESULT:      -8.2      0.000      0.000
REMARK  Name = 
REMARK  14 active torsions:
REMARK  status: ('A' for Active; 'I' for Inactive)
REMARK    1  A    between atoms: C_1  and  C_2
REMARK    2  A    between atoms: C_2  and  C_3
REMARK    3  A    between atoms: C_4  and  C_5
REMARK    4  A    between atoms: C_5  and  C_6
REMARK    5  A    between atoms: C_6  and  C_7
REMARK    6  A    between atoms: C_7  and  C_8
REMARK    7  A    between atoms: C_9  and  C_10
REMARK    8  A    between atoms: C_10  and  C_11
REMARK    9  A    between atoms: C_11  and  C_12
REMARK   10  A    between atoms: C_12  and  C_13
REMARK   11  A    between atoms: C_14  and  C_15
REMARK   12  A    between atoms: C_15  and  C_16
REMARK   13  A    between atoms: C_16  and  C_17
REMARK   14  A    between atoms: C_17  and  C_18
REMARK                            x       y       z     vdW  Elec       q    Type
REMARK                         _______ _______ _______ _____ _____    ______ ____
ROOT
ATOM      1  C   UNL     1       7.571   6.293  18.011  0.00  0.00    +0.000 C 
ATOM      2  C   UNL     1       7.950   6.025  19.454  0.00  0.00    +0.000 C 
ATOM      3  C   UNL     1       7.660   7.547  17.514  0.00  0.00    +0.000 C 
ENDROOT
BRANCH   1   4
ATOM      4  C   UNL     1       7.145   5.149  17.102  0.00  0.00    +0.000 C 
BRANCH   4   5
ATOM      5  C   UNL     1       5.873   5.440  16.307  0.00  0.00    +0.000 C 
BRANCH   5   8
ATOM      6  C   UNL     1       3.655   4.686  17.138  0.00  0.00    +0.000 C 
ATOM      7  C   UNL     1       3.516   5.993  17.888  0.00  0.00    +0.000 C 
ATOM      8  C   UNL     1       4.761   4.435  16.410  0.00  0.00    +0.000 C 
BRANCH   6   9
ATOM      9  C   UNL     1       2.565   3.634  17.211  0.00  0.00    +0.000 C 
BRANCH   9  10
ATOM     10  C   UNL     1       1.403   3.953  18.153  0.00  0.00    +0.000 C 
BRANCH  10  14
ATOM     11  C   UNL     1       1.526   2.532  21.771  0.00  0.00    +0.000 C 
ATOM     12  C   UNL     1       1.667   3.484  20.618  0.00  0.00    +0.000 C 
ATOM     13  C   UNL     1       2.150   4.876  20.923  0.00  0.00    +0.000 C 
ATOM     14  C   UNL     1       1.375   3.075  19.369  0.00  0.00    +0.000 C 
ENDBRANCH  10  14
ENDBRANCH   9  10
ENDBRANCH   6   9
ENDBRANCH   5   8
ENDBRANCH   4   5
ENDBRANCH   1   4
BRANCH   3  15
ATOM     15  C   UNL     1       8.148   8.713  18.329  0.00  0.00    +0.000 C 
BRANCH  15  16
ATOM     16  C   UNL     1       8.505   9.971  17.531  0.00  0.00    +0.000 C 
BRANCH  16  17
ATOM     17  C   UNL     1       9.329  10.984  18.379  0.00  0.00    +0.000 C 
ATOM     18  C   UNL     1      10.754  11.141  17.798  0.00  0.00    +0.000 C 
ATOM     19  C   UNL     1       9.350  10.498  19.837  0.00  0.00    +0.000 C 
ATOM     20  C   UNL     1      10.116  11.480  20.718  0.00  0.00    +0.000 C 
ATOM     21  C   UNL     1       9.760  12.897  20.369  0.00  0.00    +0.000 A 
ATOM     22  C   UNL     1      10.202  13.945  21.180  0.00  0.00    +0.000 A 
ATOM     23  C   UNL     1       9.884  15.262  20.848  0.00  0.00    +0.000 A 
ATOM     24  F   UNL     1      10.330  16.260  21.618  0.00  0.00    +0.000 F 
ATOM     25  C   UNL     1       9.125  15.555  19.723  0.00  0.00    +0.000 A 
ATOM     26  C   UNL     1       8.693  14.515  18.899  0.00  0.00    +0.000 A 
ATOM     27  C   UNL     1       9.036  13.196  19.208  0.00  0.00    +0.000 A 
ATOM     28  O   UNL     1       8.638  12.249  18.305  0.00  0.00    +0.000 OA
ENDBRANCH  16  17
ENDBRANCH  15  16
ENDBRANCH   3  15
TORSDOF 9
ENDMDL
MODEL 2
REMARK VINA RESULT:      -7.6      5.332      7.923
REMARK  Name = 
REMARK  14 active torsions:
REMARK  status: ('A' for Active; 'I' for Inactive)
REMARK    1  A    between atoms: C_1  and  C_2
REMARK    2  A    between atoms: C_2  and  C_3
REMARK    3  A    between atoms: C_4  and  C_5
REMARK    4  A    between atoms: C_5  and  C_6
REMARK    5  A    between atoms: C_6  and  C_7
REMARK    6  A    between atoms: C_7  and  C_8
REMARK    7  A    between atoms: C_9  and  C_10
REMARK    8  A    between atoms: C_10  and  C_11
REMARK    9  A    between atoms: C_11  and  C_12
REMARK   10  A    between atoms: C_12  and  C_13
REMARK   11  A    between atoms: C_14  and  C_15
REMARK   12  A    between atoms: C_15  and  C_16
REMARK   13  A    between atoms: C_16  and  C_17
REMARK   14  A    between atoms: C_17  and  C_18
REMARK                            x       y       z     vdW  Elec       q    Type
REMARK                         _______ _______ _______ _____ _____    ______ ____
ROOT
ATOM      1  C   UNL     1       2.615   5.005  18.783  0.00  0.00    +0.000 C 
ATOM      2  C   UNL     1       2.139   4.874  20.216  0.00  0.00    +0.000 C 
ATOM      3  C   UNL     1       2.569   6.206  18.166  0.00  0.00    +0.000 C 
ENDROOT
BRANCH   1   4
ATOM      4  C   UNL     1       3.196   3.802  18.053  0.00  0.00    +0.000 C 
BRANCH   4   5
ATOM      5  C   UNL     1       4.712   3.868  17.877  0.00  0.00    +0.000 C 
BRANCH   5   8
ATOM      6  C   UNL     1       6.062   4.955  16.094  0.00  0.00    +0.000 C 
ATOM      7  C   UNL     1       6.485   6.013  17.090  0.00  0.00    +0.000 C 
ATOM      8  C   UNL     1       5.229   3.963  16.469  0.00  0.00    +0.000 C 
BRANCH   6   9
ATOM      9  C   UNL     1       6.551   5.006  14.660  0.00  0.00    +0.000 C 
BRANCH   9  10
ATOM     10  C   UNL     1       5.586   4.445  13.614  0.00  0.00    +0.000 C 
BRANCH  10  14
ATOM     11  C   UNL     1       6.271   1.596  11.057  0.00  0.00    +0.000 C 
ATOM     12  C   UNL     1       5.565   2.697  11.794  0.00  0.00    +0.000 C 
ATOM     13  C   UNL     1       4.195   3.090  11.309  0.00  0.00    +0.000 C 
ATOM     14  C   UNL     1       6.157   3.286  12.849  0.00  0.00    +0.000 C 
ENDBRANCH  10  14
ENDBRANCH   9  10
ENDBRANCH   6   9
ENDBRANCH   5   8
ENDBRANCH   4   5
ENDBRANCH   1   4
BRANCH   3  15
ATOM     15  C   UNL     1       2.080   7.454  18.849  0.00  0.00    +0.000 C 
BRANCH  15  16
ATOM     16  C   UNL     1       2.037   8.710  17.973  0.00  0.00    +0.000 C 
BRANCH  16  17
ATOM     17  C   UNL     1       1.161   9.831  18.605  0.00  0.00    +0.000 C 
ATOM     18  C   UNL     1       0.973   9.579  20.120  0.00  0.00    +0.000 C 
ATOM     19  C   UNL     1      -0.181   9.882  17.858  0.00  0.00    +0.000 C 
ATOM     20  C   UNL     1      -1.065  10.994  18.417  0.00  0.00    +0.000 C 
ATOM     21  C   UNL     1      -0.259  12.236  18.670  0.00  0.00    +0.000 A 
ATOM     22  C   UNL     1      -0.907  13.430  19.001  0.00  0.00    +0.000 A 
ATOM     23  C   UNL     1      -0.158  14.580  19.251  0.00  0.00    +0.000 A 
ATOM     24  F   UNL     1      -0.785  15.712  19.588  0.00  0.00    +0.000 F 
ATOM     25  C   UNL     1       1.228  14.566  19.167  0.00  0.00    +0.000 A 
ATOM     26  C   UNL     1       1.883  13.375  18.853  0.00  0.00    +0.000 A 
ATOM     27  C   UNL     1       1.141  12.212  18.634  0.00  0.00    +0.000 A 
ATOM     28  O   UNL     1       1.867  11.074  18.409  0.00  0.00    +0.000 OA
ENDBRANCH  16  17
ENDBRANCH  15  16
ENDBRANCH   3  15
TORSDOF 9
ENDMDL
MODEL 3
REMARK VINA RESULT:      -7.4      6.107      8.734
REMARK  Name = 
REMARK  14 active torsions:
REMARK  status: ('A' for Active; 'I' for Inactive)
REMARK    1  A    between atoms: C_1  and  C_2
REMARK    2  A    between atoms: C_2  and  C_3
REMARK    3  A    between atoms: C_4  and  C_5
REMARK    4  A    between atoms: C_5  and  C_6
REMARK    5  A    between atoms: C_6  and  C_7
REMARK    6  A    between atoms: C_7  and  C_8
REMARK    7  A    between atoms: C_9  and  C_10
REMARK    8  A    between atoms: C_10  and  C_11
REMARK    9  A    between atoms: C_11  and  C_12
REMARK   10  A    between atoms: C_12  and  C_13
REMARK   11  A    between atoms: C_14  and  C_15
REMARK   12  A    between atoms: C_15  and  C_16
REMARK   13  A    between atoms: C_16  and  C_17
REMARK   14  A    between atoms: C_17  and  C_18
REMARK                            x       y       z     vdW  Elec       q    Type
REMARK                         _______ _______ _______ _____ _____    ______ ____
ROOT
ATOM      1  C   UNL     1       3.076   5.790  19.210  0.00  0.00    +0.000 C 
ATOM      2  C   UNL     1       2.177   5.449  20.381  0.00  0.00    +0.000 C 
ATOM      3  C   UNL     1       2.898   6.951  18.541  0.00  0.00    +0.000 C 
ENDROOT
BRANCH   1   4
ATOM      4  C   UNL     1       4.213   4.858  18.816  0.00  0.00    +0.000 C 
BRANCH   4   5
ATOM      5  C   UNL     1       5.490   5.590  18.405  0.00  0.00    +0.000 C 
BRANCH   5   8
ATOM      6  C   UNL     1       6.017   5.605  15.976  0.00  0.00    +0.000 C 
ATOM      7  C   UNL     1       5.041   6.747  15.793  0.00  0.00    +0.000 C 
ATOM      8  C   UNL     1       6.214   5.067  17.197  0.00  0.00    +0.000 C 
BRANCH   6   9
ATOM      9  C   UNL     1       6.771   5.037  14.789  0.00  0.00    +0.000 C 
BRANCH   9  10
ATOM     10  C   UNL     1       6.259   3.695  14.263  0.00  0.00    +0.000 C 
BRANCH  10  14
ATOM     11  C   UNL     1       4.018   3.339  11.105  0.00  0.00    +0.000 C 
ATOM     12  C   UNL     1       5.174   3.167  12.047  0.00  0.00    +0.000 C 
ATOM     13  C   UNL     1       6.277   2.232  11.629  0.00  0.00    +0.000 C 
ATOM     14  C   UNL     1       5.200   3.843  13.210  0.00  0.00    +0.000 C 
ENDBRANCH  10  14
ENDBRANCH   9  10
ENDBRANCH   6   9
ENDBRANCH   5   8
ENDBRANCH   4   5
ENDBRANCH   1   4
BRANCH   3  15
ATOM     15  C   UNL     1       1.846   7.957  18.922  0.00  0.00    +0.000 C 
BRANCH  15  16
ATOM     16  C   UNL     1       1.845   9.251  18.102  0.00  0.00    +0.000 C 
BRANCH  16  17
ATOM     17  C   UNL     1       1.016  10.375  18.789  0.00  0.00    +0.000 C 
ATOM     18  C   UNL     1       1.624  11.763  18.473  0.00  0.00    +0.000 C 
ATOM     19  C   UNL     1       0.970  10.095  20.299  0.00  0.00    +0.000 C 
ATOM     20  C   UNL     1       0.135  11.153  21.016  0.00  0.00    +0.000 C 
ATOM     21  C   UNL     1      -1.111  11.463  20.237  0.00  0.00    +0.000 A 
ATOM     22  C   UNL     1      -2.107  12.262  20.806  0.00  0.00    +0.000 A 
ATOM     23  C   UNL     1      -3.257  12.562  20.077  0.00  0.00    +0.000 A 
ATOM     24  F   UNL     1      -4.195  13.345  20.622  0.00  0.00    +0.000 F 
ATOM     25  C   UNL     1      -3.440  12.074  18.790  0.00  0.00    +0.000 A 
ATOM     26  C   UNL     1      -2.444  11.289  18.208  0.00  0.00    +0.000 A 
ATOM     27  C   UNL     1      -1.274  11.012  18.921  0.00  0.00    +0.000 A 
ATOM     28  O   UNL     1      -0.319  10.302  18.245  0.00  0.00    +0.000 OA
ENDBRANCH  16  17
ENDBRANCH  15  16
ENDBRANCH   3  15
TORSDOF 9
ENDMDL
MODEL 4
REMARK VINA RESULT:      -7.3      4.288     10.325
REMARK  Name = 
REMARK  14 active torsions:
REMARK  status: ('A' for Active; 'I' for Inactive)
REMARK    1  A    between atoms: C_1  and  C_2
REMARK    2  A    between atoms: C_2  and  C_3
REMARK    3  A    between atoms: C_4  and  C_5
REMARK    4  A    between atoms: C_5  and  C_6
REMARK    5  A    between atoms: C_6  and  C_7
REMARK    6  A    between atoms: C_7  and  C_8
REMARK    7  A    between atoms: C_9  and  C_10
REMARK    8  A    between atoms: C_10  and  C_11
REMARK    9  A    between atoms: C_11  and  C_12
REMARK   10  A    between atoms: C_12  and  C_13
REMARK   11  A    between atoms: C_14  and  C_15
REMARK   12  A    between atoms: C_15  and  C_16
REMARK   13  A    between atoms: C_16  and  C_17
REMARK   14  A    between atoms: C_17  and  C_18
REMARK                            x       y       z     vdW  Elec       q    Type
REMARK                         _______ _______ _______ _____ _____    ______ ____
ROOT
ATOM      1  C   UNL     1       7.942   8.517  17.974  0.00  0.00    +0.000 C 
ATOM      2  C   UNL     1       6.748   8.451  17.042  0.00  0.00    +0.000 C 
ATOM      3  C   UNL     1       8.404   7.388  18.556  0.00  0.00    +0.000 C 
ENDROOT
BRANCH   1   4
ATOM      4  C   UNL     1       8.657   9.839  18.216  0.00  0.00    +0.000 C 
BRANCH   4   5
ATOM      5  C   UNL     1       9.475   9.865  19.506  0.00  0.00    +0.000 C 
BRANCH   5   8
ATOM      6  C   UNL     1      10.235  12.001  20.526  0.00  0.00    +0.000 C 
ATOM      7  C   UNL     1      11.534  11.881  19.759  0.00  0.00    +0.000 C 
ATOM      8  C   UNL     1       9.285  11.052  20.407  0.00  0.00    +0.000 C 
BRANCH   6   9
ATOM      9  C   UNL     1       9.992  13.177  21.452  0.00  0.00    +0.000 C 
BRANCH   9  10
ATOM     10  C   UNL     1       8.981  12.934  22.574  0.00  0.00    +0.000 C 
BRANCH  10  14
ATOM     11  C   UNL     1       5.238  13.991  22.585  0.00  0.00    +0.000 C 
ATOM     12  C   UNL     1       6.484  13.189  22.830  0.00  0.00    +0.000 C 
ATOM     13  C   UNL     1       6.347  11.923  23.633  0.00  0.00    +0.000 C 
ATOM     14  C   UNL     1       7.662  13.607  22.331  0.00  0.00    +0.000 C 
ENDBRANCH  10  14
ENDBRANCH   9  10
ENDBRANCH   6   9
ENDBRANCH   5   8
ENDBRANCH   4   5
ENDBRANCH   1   4
BRANCH   3  15
ATOM     15  C   UNL     1       7.797   6.035  18.304  0.00  0.00    +0.000 C 
BRANCH  15  16
ATOM     16  C   UNL     1       6.754   5.580  19.329  0.00  0.00    +0.000 C 
BRANCH  16  17
ATOM     17  C   UNL     1       5.474   5.014  18.647  0.00  0.00    +0.000 C 
ATOM     18  C   UNL     1       5.835   4.330  17.307  0.00  0.00    +0.000 C 
ATOM     19  C   UNL     1       4.472   6.164  18.457  0.00  0.00    +0.000 C 
ATOM     20  C   UNL     1       3.182   5.652  17.823  0.00  0.00    +0.000 C 
ATOM     21  C   UNL     1       2.770   4.346  18.440  0.00  0.00    +0.000 A 
ATOM     22  C   UNL     1       1.519   3.799  18.140  0.00  0.00    +0.000 A 
ATOM     23  C   UNL     1       1.141   2.579  18.701  0.00  0.00    +0.000 A 
ATOM     24  F   UNL     1      -0.049   2.054  18.392  0.00  0.00    +0.000 F 
ATOM     25  C   UNL     1       1.987   1.894  19.564  0.00  0.00    +0.000 A 
ATOM     26  C   UNL     1       3.243   2.424  19.855  0.00  0.00    +0.000 A 
ATOM     27  C   UNL     1       3.640   3.630  19.271  0.00  0.00    +0.000 A 
ATOM     28  O   UNL     1       4.917   4.036  19.550  0.00  0.00    +0.000 OA
ENDBRANCH  16  17
ENDBRANCH  15  16
ENDBRANCH   3  15
TORSDOF 9
ENDMDL
MODEL 5
REMARK VINA RESULT:      -7.3      1.485      2.064
REMARK  Name = 
REMARK  14 active torsions:
REMARK  status: ('A' for Active; 'I' for Inactive)
REMARK    1  A    between atoms: C_1  and  C_2
REMARK    2  A    between atoms: C_2  and  C_3
REMARK    3  A    between atoms: C_4  and  C_5
REMARK    4  A    between atoms: C_5  and  C_6
REMARK    5  A    between atoms: C_6  and  C_7
REMARK    6  A    between atoms: C_7  and  C_8
REMARK    7  A    between atoms: C_9  and  C_10
REMARK    8  A    between atoms: C_10  and  C_11
REMARK    9  A    between atoms: C_11  and  C_12
REMARK   10  A    between atoms: C_12  and  C_13
REMARK   11  A    between atoms: C_14  and  C_15
REMARK   12  A    between atoms: C_15  and  C_16
REMARK   13  A    between atoms: C_16  and  C_17
REMARK   14  A    between atoms: C_17  and  C_18
REMARK                            x       y       z     vdW  Elec       q    Type
REMARK                         _______ _______ _______ _____ _____    ______ ____
ROOT
ATOM      1  C   UNL     1       7.847   7.411  17.840  0.00  0.00    +0.000 C 
ATOM      2  C   UNL     1       8.354   6.752  19.107  0.00  0.00    +0.000 C 
ATOM      3  C   UNL     1       8.038   8.735  17.647  0.00  0.00    +0.000 C 
ENDROOT
BRANCH   1   4
ATOM      4  C   UNL     1       7.172   6.579  16.758  0.00  0.00    +0.000 C 
BRANCH   4   5
ATOM      5  C   UNL     1       5.647   6.661  16.785  0.00  0.00    +0.000 C 
BRANCH   5   8
ATOM      6  C   UNL     1       4.836   4.407  17.448  0.00  0.00    +0.000 C 
ATOM      7  C   UNL     1       5.550   4.564  18.773  0.00  0.00    +0.000 C 
ATOM      8  C   UNL     1       4.893   5.387  16.524  0.00  0.00    +0.000 C 
BRANCH   6   9
ATOM      9  C   UNL     1       4.064   3.140  17.132  0.00  0.00    +0.000 C 
BRANCH   9  10
ATOM     10  C   UNL     1       2.544   3.240  17.277  0.00  0.00    +0.000 C 
BRANCH  10  14
ATOM     11  C   UNL     1       1.334   4.714  20.667  0.00  0.00    +0.000 C 
ATOM     12  C   UNL     1       1.849   4.640  19.259  0.00  0.00    +0.000 C 
ATOM     13  C   UNL     1       2.072   5.939  18.532  0.00  0.00    +0.000 C 
ATOM     14  C   UNL     1       2.102   3.443  18.697  0.00  0.00    +0.000 C 
ENDBRANCH  10  14
ENDBRANCH   9  10
ENDBRANCH   6   9
ENDBRANCH   5   8
ENDBRANCH   4   5
ENDBRANCH   1   4
BRANCH   3  15
ATOM     15  C   UNL     1       8.764   9.605  18.636  0.00  0.00    +0.000 C 
BRANCH  15  16
ATOM     16  C   UNL     1       9.691  10.661  18.027  0.00  0.00    +0.000 C 
BRANCH  16  17
ATOM     17  C   UNL     1       9.637  12.005  18.812  0.00  0.00    +0.000 C 
ATOM     18  C   UNL     1       8.720  13.018  18.086  0.00  0.00    +0.000 C 
ATOM     19  C   UNL     1      11.071  12.536  18.970  0.00  0.00    +0.000 C 
ATOM     20  C   UNL     1      11.076  13.837  19.768  0.00  0.00    +0.000 C 
ATOM     21  C   UNL     1      10.139  13.746  20.938  0.00  0.00    +0.000 A 
ATOM     22  C   UNL     1      10.135  14.755  21.905  0.00  0.00    +0.000 A 
ATOM     23  C   UNL     1       9.254  14.679  22.984  0.00  0.00    +0.000 A 
ATOM     24  F   UNL     1       9.242  15.659  23.893  0.00  0.00    +0.000 F 
ATOM     25  C   UNL     1       8.380  13.608  23.123  0.00  0.00    +0.000 A 
ATOM     26  C   UNL     1       8.367  12.605  22.154  0.00  0.00    +0.000 A 
ATOM     27  C   UNL     1       9.224  12.693  21.053  0.00  0.00    +0.000 A 
ATOM     28  O   UNL     1       9.089  11.708  20.113  0.00  0.00    +0.000 OA
ENDBRANCH  16  17
ENDBRANCH  15  16
ENDBRANCH   3  15
TORSDOF 9
ENDMDL
MODEL 6
REMARK VINA RESULT:      -7.3      6.476     10.343
REMARK  Name = 
REMARK  14 active torsions:
REMARK  status: ('A' for Active; 'I' for Inactive)
REMARK    1  A    between atoms: C_1  and  C_2
REMARK    2  A    between atoms: C_2  and  C_3
REMARK    3  A    between atoms: C_4  and  C_5
REMARK    4  A    between atoms: C_5  and  C_6
REMARK    5  A    between atoms: C_6  and  C_7
REMARK    6  A    between atoms: C_7  and  C_8
REMARK    7  A    between atoms: C_9  and  C_10
REMARK    8  A    between atoms: C_10  and  C_11
REMARK    9  A    between atoms: C_11  and  C_12
REMARK   10  A    between atoms: C_12  and  C_13
REMARK   11  A    between atoms: C_14  and  C_15
REMARK   12  A    between atoms: C_15  and  C_16
REMARK   13  A    between atoms: C_16  and  C_17
REMARK   14  A    between atoms: C_17  and  C_18
REMARK                            x       y       z     vdW  Elec       q    Type
REMARK                         _______ _______ _______ _____ _____    ______ ____
ROOT
ATOM      1  C   UNL     1       1.388   8.803  19.303  0.00  0.00    +0.000 C 
ATOM      2  C   UNL     1       2.188   8.724  18.018  0.00  0.00    +0.000 C 
ATOM      3  C   UNL     1       1.589   7.887  20.277  0.00  0.00    +0.000 C 
ENDROOT
BRANCH   1   4
ATOM      4  C   UNL     1       0.399   9.938  19.526  0.00  0.00    +0.000 C 
BRANCH   4   5
ATOM      5  C   UNL     1       0.758  10.838  20.708  0.00  0.00    +0.000 C 
BRANCH   5   8
ATOM      6  C   UNL     1      -0.859  10.940  22.594  0.00  0.00    +0.000 C 
ATOM      7  C   UNL     1      -0.254   9.670  23.153  0.00  0.00    +0.000 C 
ATOM      8  C   UNL     1      -0.385  11.473  21.450  0.00  0.00    +0.000 C 
BRANCH   6   9
ATOM      9  C   UNL     1      -2.016  11.619  23.300  0.00  0.00    +0.000 C 
BRANCH   9  10
ATOM     10  C   UNL     1      -2.269  13.074  22.903  0.00  0.00    +0.000 C 
BRANCH  10  14
ATOM     11  C   UNL     1      -0.545  16.221  24.404  0.00  0.00    +0.000 C 
ATOM     12  C   UNL     1      -1.188  15.297  23.410  0.00  0.00    +0.000 C 
ATOM     13  C   UNL     1      -1.387  15.815  22.011  0.00  0.00    +0.000 C 
ATOM     14  C   UNL     1      -1.552  14.056  23.783  0.00  0.00    +0.000 C 
ENDBRANCH  10  14
ENDBRANCH   9  10
ENDBRANCH   6   9
ENDBRANCH   5   8
ENDBRANCH   4   5
ENDBRANCH   1   4
BRANCH   3  15
ATOM     15  C   UNL     1       2.604   6.783  20.160  0.00  0.00    +0.000 C 
BRANCH  15  16
ATOM     16  C   UNL     1       2.029   5.382  19.934  0.00  0.00    +0.000 C 
BRANCH  16  17
ATOM     17  C   UNL     1       2.613   4.711  18.656  0.00  0.00    +0.000 C 
ATOM     18  C   UNL     1       1.485   4.405  17.644  0.00  0.00    +0.000 C 
ATOM     19  C   UNL     1       3.374   3.442  19.074  0.00  0.00    +0.000 C 
ATOM     20  C   UNL     1       3.999   2.766  17.857  0.00  0.00    +0.000 C 
ATOM     21  C   UNL     1       4.616   3.785  16.942  0.00  0.00    +0.000 A 
ATOM     22  C   UNL     1       5.406   3.367  15.868  0.00  0.00    +0.000 A 
ATOM     23  C   UNL     1       5.966   4.313  15.009  0.00  0.00    +0.000 A 
ATOM     24  F   UNL     1       6.704   3.903  13.972  0.00  0.00    +0.000 F 
ATOM     25  C   UNL     1       5.761   5.672  15.205  0.00  0.00    +0.000 A 
ATOM     26  C   UNL     1       4.960   6.097  16.266  0.00  0.00    +0.000 A 
ATOM     27  C   UNL     1       4.369   5.154  17.110  0.00  0.00    +0.000 A 
ATOM     28  O   UNL     1       3.537   5.655  18.074  0.00  0.00    +0.000 OA
ENDBRANCH  16  17
ENDBRANCH  15  16
ENDBRANCH   3  15
TORSDOF 9
ENDMDL
MODEL 7
REMARK VINA RESULT:      -7.2      5.439      8.926
REMARK  Name = 
REMARK  14 active torsions:
REMARK  status: ('A' for Active; 'I' for Inactive)
REMARK    1  A    between atoms: C_1  and  C_2
REMARK    2  A    between atoms: C_2  and  C_3
REMARK    3  A    between atoms: C_4  and  C_5
REMARK    4  A    between atoms: C_5  and  C_6
REMARK    5  A    between atoms: C_6  and  C_7
REMARK    6  A    between atoms: C_7  and  C_8
REMARK    7  A    between atoms: C_9  and  C_10
REMARK    8  A    between atoms: C_10  and  C_11
REMARK    9  A    between atoms: C_11  and  C_12
REMARK   10  A    between atoms: C_12  and  C_13
REMARK   11  A    between atoms: C_14  and  C_15
REMARK   12  A    between atoms: C_15  and  C_16
REMARK   13  A    between atoms: C_16  and  C_17
REMARK   14  A    between atoms: C_17  and  C_18
REMARK                            x       y       z     vdW  Elec       q    Type
REMARK                         _______ _______ _______ _____ _____    ______ ____
ROOT
ATOM      1  C   UNL     1       3.164   6.840  18.040  0.00  0.00    +0.000 C 
ATOM      2  C   UNL     1       2.600   6.474  19.399  0.00  0.00    +0.000 C 
ATOM      3  C   UNL     1       2.967   8.081  17.542  0.00  0.00    +0.000 C 
ENDROOT
BRANCH   1   4
ATOM      4  C   UNL     1       3.998   5.835  17.257  0.00  0.00    +0.000 C 
BRANCH   4   5
ATOM      5  C   UNL     1       5.454   5.760  17.715  0.00  0.00    +0.000 C 
BRANCH   5   8
ATOM      6  C   UNL     1       7.554   7.077  17.903  0.00  0.00    +0.000 C 
ATOM      7  C   UNL     1       8.029   6.124  18.979  0.00  0.00    +0.000 C 
ATOM      8  C   UNL     1       6.348   6.903  17.325  0.00  0.00    +0.000 C 
BRANCH   6   9
ATOM      9  C   UNL     1       8.415   8.249  17.475  0.00  0.00    +0.000 C 
BRANCH   9  10
ATOM     10  C   UNL     1       8.058   9.596  18.106  0.00  0.00    +0.000 C 
BRANCH  10  14
ATOM     11  C   UNL     1      10.832  11.400  20.149  0.00  0.00    +0.000 C 
ATOM     12  C   UNL     1       9.959  10.996  18.996  0.00  0.00    +0.000 C 
ATOM     13  C   UNL     1      10.171  11.702  17.684  0.00  0.00    +0.000 C 
ATOM     14  C   UNL     1       9.036  10.029  19.158  0.00  0.00    +0.000 C 
ENDBRANCH  10  14
ENDBRANCH   9  10
ENDBRANCH   6   9
ENDBRANCH   5   8
ENDBRANCH   4   5
ENDBRANCH   1   4
BRANCH   3  15
ATOM     15  C   UNL     1       2.220   9.150  18.292  0.00  0.00    +0.000 C 
BRANCH  15  16
ATOM     16  C   UNL     1       0.762   9.352  17.871  0.00  0.00    +0.000 C 
BRANCH  16  17
ATOM     17  C   UNL     1       0.073  10.488  18.684  0.00  0.00    +0.000 C 
ATOM     18  C   UNL     1      -1.343  10.768  18.127  0.00  0.00    +0.000 C 
ATOM     19  C   UNL     1       0.970  11.736  18.636  0.00  0.00    +0.000 C 
ATOM     20  C   UNL     1       0.355  12.869  19.452  0.00  0.00    +0.000 C 
ATOM     21  C   UNL     1      -0.200  12.351  20.748  0.00  0.00    +0.000 A 
ATOM     22  C   UNL     1      -0.636  13.248  21.727  0.00  0.00    +0.000 A 
ATOM     23  C   UNL     1      -1.165  12.767  22.924  0.00  0.00    +0.000 A 
ATOM     24  F   UNL     1      -1.599  13.633  23.846  0.00  0.00    +0.000 F 
ATOM     25  C   UNL     1      -1.261  11.404  23.170  0.00  0.00    +0.000 A 
ATOM     26  C   UNL     1      -0.843  10.501  22.192  0.00  0.00    +0.000 A 
ATOM     27  C   UNL     1      -0.343  10.977  20.977  0.00  0.00    +0.000 A 
ATOM     28  O   UNL     1      -0.031  10.023  20.047  0.00  0.00    +0.000 OA
ENDBRANCH  16  17
ENDBRANCH  15  16
ENDBRANCH   3  15
TORSDOF 9
ENDMDL
MODEL 8
REMARK VINA RESULT:      -7.2      7.547      9.580
REMARK  Name = 
REMARK  14 active torsions:
REMARK  status: ('A' for Active; 'I' for Inactive)
REMARK    1  A    between atoms: C_1  and  C_2
REMARK    2  A    between atoms: C_2  and  C_3
REMARK    3  A    between atoms: C_4  and  C_5
REMARK    4  A    between atoms: C_5  and  C_6
REMARK    5  A    between atoms: C_6  and  C_7
REMARK    6  A    between atoms: C_7  and  C_8
REMARK    7  A    between atoms: C_9  and  C_10
REMARK    8  A    between atoms: C_10  and  C_11
REMARK    9  A    between atoms: C_11  and  C_12
REMARK   10  A    between atoms: C_12  and  C_13
REMARK   11  A    between atoms: C_14  and  C_15
REMARK   12  A    between atoms: C_15  and  C_16
REMARK   13  A    between atoms: C_16  and  C_17
REMARK   14  A    between atoms: C_17  and  C_18
REMARK                            x       y       z     vdW  Elec       q    Type
REMARK                         _______ _______ _______ _____ _____    ______ ____
ROOT
ATOM      1  C   UNL     1       1.382   9.452  19.000  0.00  0.00    +0.000 C 
ATOM      2  C   UNL     1       1.220   8.684  20.296  0.00  0.00    +0.000 C 
ATOM      3  C   UNL     1       1.197  10.791  18.983  0.00  0.00    +0.000 C 
ENDROOT
BRANCH   1   4
ATOM      4  C   UNL     1       1.807   8.733  17.727  0.00  0.00    +0.000 C 
BRANCH   4   5
ATOM      5  C   UNL     1       2.918   7.707  17.945  0.00  0.00    +0.000 C 
BRANCH   5   8
ATOM      6  C   UNL     1       3.488   5.289  17.849  0.00  0.00    +0.000 C 
ATOM      7  C   UNL     1       4.886   5.622  18.324  0.00  0.00    +0.000 C 
ATOM      8  C   UNL     1       2.580   6.269  17.668  0.00  0.00    +0.000 C 
BRANCH   6   9
ATOM      9  C   UNL     1       3.096   3.855  17.550  0.00  0.00    +0.000 C 
BRANCH   9  10
ATOM     10  C   UNL     1       1.693   3.448  18.004  0.00  0.00    +0.000 C 
BRANCH  10  14
ATOM     11  C   UNL     1       1.433   2.558  21.781  0.00  0.00    +0.000 C 
ATOM     12  C   UNL     1       1.503   3.369  20.519  0.00  0.00    +0.000 C 
ATOM     13  C   UNL     1       1.373   4.863  20.645  0.00  0.00    +0.000 C 
ATOM     14  C   UNL     1       1.684   2.755  19.335  0.00  0.00    +0.000 C 
ENDBRANCH  10  14
ENDBRANCH   9  10
ENDBRANCH   6   9
ENDBRANCH   5   8
ENDBRANCH   4   5
ENDBRANCH   1   4
BRANCH   3  15
ATOM     15  C   UNL     1       0.854  11.580  20.217  0.00  0.00    +0.000 C 
BRANCH  15  16
ATOM     16  C   UNL     1      -0.185  12.689  20.020  0.00  0.00    +0.000 C 
BRANCH  16  17
ATOM     17  C   UNL     1      -1.069  12.890  21.286  0.00  0.00    +0.000 C 
ATOM     18  C   UNL     1      -0.635  14.163  22.051  0.00  0.00    +0.000 C 
ATOM     19  C   UNL     1      -0.966  11.629  22.159  0.00  0.00    +0.000 C 
ATOM     20  C   UNL     1      -1.847  11.762  23.398  0.00  0.00    +0.000 C 
ATOM     21  C   UNL     1      -3.176  12.364  23.043  0.00  0.00    +0.000 A 
ATOM     22  C   UNL     1      -4.201  12.398  23.992  0.00  0.00    +0.000 A 
ATOM     23  C   UNL     1      -5.431  12.971  23.668  0.00  0.00    +0.000 A 
ATOM     24  F   UNL     1      -6.398  13.017  24.589  0.00  0.00    +0.000 F 
ATOM     25  C   UNL     1      -5.662  13.506  22.407  0.00  0.00    +0.000 A 
ATOM     26  C   UNL     1      -4.640  13.492  21.459  0.00  0.00    +0.000 A 
ATOM     27  C   UNL     1      -3.395  12.948  21.789  0.00  0.00    +0.000 A 
ATOM     28  O   UNL     1      -2.428  13.047  20.826  0.00  0.00    +0.000 OA
ENDBRANCH  16  17
ENDBRANCH  15  16
ENDBRANCH   3  15
TORSDOF 9
ENDMDL
MODEL 9
REMARK VINA RESULT:      -7.2      3.622     10.709
REMARK  Name = 
REMARK  14 active torsions:
REMARK  status: ('A' for Active; 'I' for Inactive)
REMARK    1  A    between atoms: C_1  and  C_2
REMARK    2  A    between atoms: C_2  and  C_3
REMARK    3  A    between atoms: C_4  and  C_5
REMARK    4  A    between atoms: C_5  and  C_6
REMARK    5  A    between atoms: C_6  and  C_7
REMARK    6  A    between atoms: C_7  and  C_8
REMARK    7  A    between atoms: C_9  and  C_10
REMARK    8  A    between atoms: C_10  and  C_11
REMARK    9  A    between atoms: C_11  and  C_12
REMARK   10  A    between atoms: C_12  and  C_13
REMARK   11  A    between atoms: C_14  and  C_15
REMARK   12  A    between atoms: C_15  and  C_16
REMARK   13  A    between atoms: C_16  and  C_17
REMARK   14  A    between atoms: C_17  and  C_18
REMARK                            x       y       z     vdW  Elec       q    Type
REMARK                         _______ _______ _______ _____ _____    ______ ____
ROOT
ATOM      1  C   UNL     1       8.970  10.240  18.760  0.00  0.00    +0.000 C 
ATOM      2  C   UNL     1       8.368  11.294  17.851  0.00  0.00    +0.000 C 
ATOM      3  C   UNL     1       8.567   8.954  18.658  0.00  0.00    +0.000 C 
ENDROOT
BRANCH   1   4
ATOM      4  C   UNL     1      10.066  10.613  19.749  0.00  0.00    +0.000 C 
BRANCH   4   5
ATOM      5  C   UNL     1       9.894  12.004  20.357  0.00  0.00    +0.000 C 
BRANCH   5   8
ATOM      6  C   UNL     1      10.704  14.352  20.253  0.00  0.00    +0.000 C 
ATOM      7  C   UNL     1      10.065  14.609  21.600  0.00  0.00    +0.000 C 
ATOM      8  C   UNL     1      10.612  13.136  19.678  0.00  0.00    +0.000 C 
BRANCH   6   9
ATOM      9  C   UNL     1      11.437  15.460  19.522  0.00  0.00    +0.000 C 
BRANCH   9  10
ATOM     10  C   UNL     1      10.749  15.986  18.261  0.00  0.00    +0.000 C 
BRANCH  10  14
ATOM     11  C   UNL     1       7.108  17.224  18.836  0.00  0.00    +0.000 C 
ATOM     12  C   UNL     1       8.258  16.347  18.433  0.00  0.00    +0.000 C 
ATOM     13  C   UNL     1       7.932  14.982  17.890  0.00  0.00    +0.000 C 
ATOM     14  C   UNL     1       9.521  16.796  18.556  0.00  0.00    +0.000 C 
ENDBRANCH  10  14
ENDBRANCH   9  10
ENDBRANCH   6   9
ENDBRANCH   5   8
ENDBRANCH   4   5
ENDBRANCH   1   4
BRANCH   3  15
ATOM     15  C   UNL     1       7.546   8.498  17.652  0.00  0.00    +0.000 C 
BRANCH  15  16
ATOM     16  C   UNL     1       7.836   7.150  16.986  0.00  0.00    +0.000 C 
BRANCH  16  17
ATOM     17  C   UNL     1       6.767   6.078  17.352  0.00  0.00    +0.000 C 
ATOM     18  C   UNL     1       7.116   5.408  18.702  0.00  0.00    +0.000 C 
ATOM     19  C   UNL     1       6.684   5.058  16.206  0.00  0.00    +0.000 C 
ATOM     20  C   UNL     1       5.621   4.004  16.501  0.00  0.00    +0.000 C 
ATOM     21  C   UNL     1       4.387   4.641  17.075  0.00  0.00    +0.000 A 
ATOM     22  C   UNL     1       3.225   3.882  17.239  0.00  0.00    +0.000 A 
ATOM     23  C   UNL     1       2.084   4.469  17.786  0.00  0.00    +0.000 A 
ATOM     24  F   UNL     1       0.983   3.730  17.958  0.00  0.00    +0.000 F 
ATOM     25  C   UNL     1       2.076   5.805  18.167  0.00  0.00    +0.000 A 
ATOM     26  C   UNL     1       3.237   6.564  18.022  0.00  0.00    +0.000 A 
ATOM     27  C   UNL     1       4.393   5.974  17.505  0.00  0.00    +0.000 A 
ATOM     28  O   UNL     1       5.506   6.770  17.472  0.00  0.00    +0.000 OA
ENDBRANCH  16  17
ENDBRANCH  15  16
ENDBRANCH   3  15
TORSDOF 9
ENDMDL
