MODEL 1
REMARK VINA RESULT:      -9.8      0.000      0.000
REMARK  Name = 
REMARK  5 active torsions:
REMARK  status: ('A' for Active; 'I' for Inactive)
REMARK    1  A    between atoms: C_1  and  C_2
REMARK    2  A    between atoms: C_2  and  C_3
REMARK    3  A    between atoms: N_15  and  C_16
REMARK    4  A    between atoms: C_16  and  C_17
REMARK    5  A    between atoms: C_17  and  C_18
REMARK                            x       y       z     vdW  Elec       q    Type
REMARK                         _______ _______ _______ _____ _____    ______ ____
ROOT
ATOM      1  C   UNL     1       3.654   5.955  17.479  0.00  0.00    +0.000 C 
ATOM      2  C   UNL     1       4.321   4.709  18.113  0.00  0.00    +0.000 C 
ATOM      3  C   UNL     1       4.409   3.585  17.035  0.00  0.00    +0.000 C 
ATOM      4  C   UNL     1       5.370   3.901  15.892  0.00  0.00    +0.000 C 
ATOM      5  C   UNL     1       6.747   4.263  16.434  0.00  0.00    +0.000 C 
ATOM      6  N   UNL     1       6.662   5.350  17.406  0.00  0.00    +0.000 N 
ATOM      7  C   UNL     1       7.313   6.536  17.106  0.00  0.00    +0.000 C 
ATOM      8  O   UNL     1       7.881   6.729  16.032  0.00  0.00    +0.000 OA
ATOM      9  N   UNL     1       7.287   7.507  18.074  0.00  0.00    +0.000 N 
ATOM     10  C   UNL     1       5.776   5.075  18.555  0.00  0.00    +0.000 C 
ATOM     11  H   UNL     1       7.230   7.183  19.025  0.00  0.00    +0.000 HD
ENDROOT
BRANCH   2  12
ATOM     12  C   UNL     1       3.458   4.289  19.332  0.00  0.00    +0.000 A 
ATOM     13  C   UNL     1       3.622   3.059  19.995  0.00  0.00    +0.000 A 
ATOM     14  C   UNL     1       2.765   2.663  21.030  0.00  0.00    +0.000 A 
ATOM     15  C   UNL     1       1.722   3.487  21.426  0.00  0.00    +0.000 A 
ATOM     16  C   UNL     1       1.548   4.719  20.806  0.00  0.00    +0.000 A 
ATOM     17  C   UNL     1       2.411   5.118  19.779  0.00  0.00    +0.000 A 
ENDBRANCH   2  12
BRANCH   9  18
ATOM     18  C   UNL     1       7.981   8.778  17.864  0.00  0.00    +0.000 C 
BRANCH  18  19
ATOM     19  C   UNL     1       8.975   9.071  18.991  0.00  0.00    +0.000 C 
BRANCH  19  20
ATOM     20  C   UNL     1       9.403  10.516  19.121  0.00  0.00    +0.000 A 
ATOM     21  C   UNL     1       9.507  11.104  20.381  0.00  0.00    +0.000 A 
ATOM     22  C   UNL     1      10.085  12.371  20.521  0.00  0.00    +0.000 A 
ATOM     23  C   UNL     1      10.558  13.075  19.423  0.00  0.00    +0.000 A 
ATOM     24  N   UNL     1      11.192  14.251  19.610  0.00  0.00    +0.000 NA
ATOM     25  C   UNL     1      11.640  14.876  18.502  0.00  0.00    +0.000 A 
ATOM     26  C   UNL     1      11.429  14.367  17.233  0.00  0.00    +0.000 A 
ATOM     27  N   UNL     1      10.800  13.189  17.028  0.00  0.00    +0.000 NA
ATOM     28  C   UNL     1      10.379  12.528  18.126  0.00  0.00    +0.000 A 
ATOM     29  C   UNL     1       9.803  11.264  18.003  0.00  0.00    +0.000 A 
ENDBRANCH  19  20
ENDBRANCH  18  19
ENDBRANCH   9  18
TORSDOF 4
ENDMDL
MODEL 2
REMARK VINA RESULT:      -9.4      0.847      1.611
REMARK  Name = 
REMARK  5 active torsions:
REMARK  status: ('A' for Active; 'I' for Inactive)
REMARK    1  A    between atoms: C_1  and  C_2
REMARK    2  A    between atoms: C_2  and  C_3
REMARK    3  A    between atoms: N_15  and  C_16
REMARK    4  A    between atoms: C_16  and  C_17
REMARK    5  A    between atoms: C_17  and  C_18
REMARK                            x       y       z     vdW  Elec       q    Type
REMARK                         _______ _______ _______ _____ _____    ______ ____
ROOT
ATOM      1  C   UNL     1       3.642   5.961  17.485  0.00  0.00    +0.000 C 
ATOM      2  C   UNL     1       4.306   4.710  18.113  0.00  0.00    +0.000 C 
ATOM      3  C   UNL     1       4.392   3.592  17.028  0.00  0.00    +0.000 C 
ATOM      4  C   UNL     1       5.355   3.913  15.887  0.00  0.00    +0.000 C 
ATOM      5  C   UNL     1       6.732   4.269  16.431  0.00  0.00    +0.000 C 
ATOM      6  N   UNL     1       6.648   5.351  17.409  0.00  0.00    +0.000 N 
ATOM      7  C   UNL     1       7.302   6.537  17.116  0.00  0.00    +0.000 C 
ATOM      8  O   UNL     1       7.869   6.735  16.042  0.00  0.00    +0.000 OA
ATOM      9  N   UNL     1       7.278   7.503  18.089  0.00  0.00    +0.000 N 
ATOM     10  C   UNL     1       5.763   5.071  18.557  0.00  0.00    +0.000 C 
ATOM     11  H   UNL     1       7.220   7.174  19.038  0.00  0.00    +0.000 HD
ENDROOT
BRANCH   2  12
ATOM     12  C   UNL     1       3.444   4.285  19.330  0.00  0.00    +0.000 A 
ATOM     13  C   UNL     1       3.630   3.066  20.009  0.00  0.00    +0.000 A 
ATOM     14  C   UNL     1       2.773   2.663  21.041  0.00  0.00    +0.000 A 
ATOM     15  C   UNL     1       1.708   3.468  21.419  0.00  0.00    +0.000 A 
ATOM     16  C   UNL     1       1.511   4.688  20.782  0.00  0.00    +0.000 A 
ATOM     17  C   UNL     1       2.374   5.094  19.758  0.00  0.00    +0.000 A 
ENDBRANCH   2  12
BRANCH   9  18
ATOM     18  C   UNL     1       7.974   8.774  17.886  0.00  0.00    +0.000 C 
BRANCH  18  19
ATOM     19  C   UNL     1       8.945   9.074  19.029  0.00  0.00    +0.000 C 
BRANCH  19  20
ATOM     20  C   UNL     1       9.454  10.497  19.095  0.00  0.00    +0.000 A 
ATOM     21  C   UNL     1       9.755  11.187  17.921  0.00  0.00    +0.000 A 
ATOM     22  C   UNL     1      10.038  12.557  17.962  0.00  0.00    +0.000 A 
ATOM     23  C   UNL     1      10.038  13.259  19.160  0.00  0.00    +0.000 A 
ATOM     24  N   UNL     1      10.224  14.596  19.147  0.00  0.00    +0.000 NA
ATOM     25  C   UNL     1      10.197  15.218  20.342  0.00  0.00    +0.000 A 
ATOM     26  C   UNL     1      10.029  14.527  21.529  0.00  0.00    +0.000 A 
ATOM     27  N   UNL     1       9.837  13.190  21.560  0.00  0.00    +0.000 NA
ATOM     28  C   UNL     1       9.821  12.553  20.371  0.00  0.00    +0.000 A 
ATOM     29  C   UNL     1       9.538  11.189  20.313  0.00  0.00    +0.000 A 
ENDBRANCH  19  20
ENDBRANCH  18  19
ENDBRANCH   9  18
TORSDOF 4
ENDMDL
MODEL 3
REMARK VINA RESULT:      -8.8      0.993      1.357
REMARK  Name = 
REMARK  5 active torsions:
REMARK  status: ('A' for Active; 'I' for Inactive)
REMARK    1  A    between atoms: C_1  and  C_2
REMARK    2  A    between atoms: C_2  and  C_3
REMARK    3  A    between atoms: N_15  and  C_16
REMARK    4  A    between atoms: C_16  and  C_17
REMARK    5  A    between atoms: C_17  and  C_18
REMARK                            x       y       z     vdW  Elec       q    Type
REMARK                         _______ _______ _______ _____ _____    ______ ____
ROOT
ATOM      1  C   UNL     1       3.792   6.179  17.155  0.00  0.00    +0.000 C 
ATOM      2  C   UNL     1       4.412   4.977  17.910  0.00  0.00    +0.000 C 
ATOM      3  C   UNL     1       4.624   3.807  16.899  0.00  0.00    +0.000 C 
ATOM      4  C   UNL     1       5.690   4.091  15.843  0.00  0.00    +0.000 C 
ATOM      5  C   UNL     1       7.001   4.504  16.501  0.00  0.00    +0.000 C 
ATOM      6  N   UNL     1       6.802   5.632  17.408  0.00  0.00    +0.000 N 
ATOM      7  C   UNL     1       7.462   6.816  17.119  0.00  0.00    +0.000 C 
ATOM      8  O   UNL     1       8.130   6.971  16.098  0.00  0.00    +0.000 OA
ATOM      9  N   UNL     1       7.324   7.829  18.034  0.00  0.00    +0.000 N 
ATOM     10  C   UNL     1       5.810   5.391  18.476  0.00  0.00    +0.000 C 
ATOM     11  H   UNL     1       7.177   7.546  18.988  0.00  0.00    +0.000 HD
ENDROOT
BRANCH   2  12
ATOM     12  C   UNL     1       3.439   4.594  19.056  0.00  0.00    +0.000 A 
ATOM     13  C   UNL     1       2.618   5.535  19.706  0.00  0.00    +0.000 A 
ATOM     14  C   UNL     1       1.823   5.181  20.803  0.00  0.00    +0.000 A 
ATOM     15  C   UNL     1       1.829   3.877  21.277  0.00  0.00    +0.000 A 
ATOM     16  C   UNL     1       2.611   2.919  20.642  0.00  0.00    +0.000 A 
ATOM     17  C   UNL     1       3.398   3.272  19.540  0.00  0.00    +0.000 A 
ENDBRANCH   2  12
BRANCH   9  18
ATOM     18  C   UNL     1       8.016   9.103  17.834  0.00  0.00    +0.000 C 
BRANCH  18  19
ATOM     19  C   UNL     1       9.017   9.382  18.957  0.00  0.00    +0.000 C 
BRANCH  19  20
ATOM     20  C   UNL     1       9.508  10.810  19.050  0.00  0.00    +0.000 A 
ATOM     21  C   UNL     1      10.792  11.079  19.522  0.00  0.00    +0.000 A 
ATOM     22  C   UNL     1      11.320  12.372  19.429  0.00  0.00    +0.000 A 
ATOM     23  C   UNL     1      10.586  13.415  18.881  0.00  0.00    +0.000 A 
ATOM     24  N   UNL     1      11.164  14.624  18.723  0.00  0.00    +0.000 NA
ATOM     25  C   UNL     1      10.401  15.587  18.170  0.00  0.00    +0.000 A 
ATOM     26  C   UNL     1       9.081  15.370  17.817  0.00  0.00    +0.000 A 
ATOM     27  N   UNL     1       8.488  14.165  17.963  0.00  0.00    +0.000 NA
ATOM     28  C   UNL     1       9.247  13.175  18.478  0.00  0.00    +0.000 A 
ATOM     29  C   UNL     1       8.736  11.881  18.574  0.00  0.00    +0.000 A 
ENDBRANCH  19  20
ENDBRANCH  18  19
ENDBRANCH   9  18
TORSDOF 4
ENDMDL
MODEL 4
REMARK VINA RESULT:      -8.8      1.189      1.349
REMARK  Name = 
REMARK  5 active torsions:
REMARK  status: ('A' for Active; 'I' for Inactive)
REMARK    1  A    between atoms: C_1  and  C_2
REMARK    2  A    between atoms: C_2  and  C_3
REMARK    3  A    between atoms: N_15  and  C_16
REMARK    4  A    between atoms: C_16  and  C_17
REMARK    5  A    between atoms: C_17  and  C_18
REMARK                            x       y       z     vdW  Elec       q    Type
REMARK                         _______ _______ _______ _____ _____    ______ ____
ROOT
ATOM      1  C   UNL     1       3.688   6.262  17.715  0.00  0.00    +0.000 C 
ATOM      2  C   UNL     1       4.113   4.794  17.970  0.00  0.00    +0.000 C 
ATOM      3  C   UNL     1       3.954   3.989  16.644  0.00  0.00    +0.000 C 
ATOM      4  C   UNL     1       4.931   4.407  15.547  0.00  0.00    +0.000 C 
ATOM      5  C   UNL     1       6.365   4.359  16.059  0.00  0.00    +0.000 C 
ATOM      6  N   UNL     1       6.517   5.156  17.275  0.00  0.00    +0.000 N 
ATOM      7  C   UNL     1       7.380   6.239  17.231  0.00  0.00    +0.000 C 
ATOM      8  O   UNL     1       7.948   6.595  16.199  0.00  0.00    +0.000 OA
ATOM      9  N   UNL     1       7.568   6.917  18.409  0.00  0.00    +0.000 N 
ATOM     10  C   UNL     1       5.623   4.761  18.381  0.00  0.00    +0.000 C 
ATOM     11  H   UNL     1       7.471   6.374  19.251  0.00  0.00    +0.000 HD
ENDROOT
BRANCH   2  12
ATOM     12  C   UNL     1       3.215   4.239  19.107  0.00  0.00    +0.000 A 
ATOM     13  C   UNL     1       2.900   2.873  19.233  0.00  0.00    +0.000 A 
ATOM     14  C   UNL     1       2.007   2.413  20.209  0.00  0.00    +0.000 A 
ATOM     15  C   UNL     1       1.407   3.308  21.083  0.00  0.00    +0.000 A 
ATOM     16  C   UNL     1       1.715   4.661  20.999  0.00  0.00    +0.000 A 
ATOM     17  C   UNL     1       2.615   5.118  20.029  0.00  0.00    +0.000 A 
ENDBRANCH   2  12
BRANCH   9  18
ATOM     18  C   UNL     1       8.492   8.050  18.470  0.00  0.00    +0.000 C 
BRANCH  18  19
ATOM     19  C   UNL     1       7.915   9.286  17.777  0.00  0.00    +0.000 C 
BRANCH  19  20
ATOM     20  C   UNL     1       8.625  10.588  18.073  0.00  0.00    +0.000 A 
ATOM     21  C   UNL     1       9.978  10.587  18.411  0.00  0.00    +0.000 A 
ATOM     22  C   UNL     1      10.684  11.792  18.495  0.00  0.00    +0.000 A 
ATOM     23  C   UNL     1      10.063  13.011  18.259  0.00  0.00    +0.000 A 
ATOM     24  N   UNL     1      10.798  14.143  18.258  0.00  0.00    +0.000 NA
ATOM     25  C   UNL     1      10.136  15.290  18.006  0.00  0.00    +0.000 A 
ATOM     26  C   UNL     1       8.769  15.321  17.799  0.00  0.00    +0.000 A 
ATOM     27  N   UNL     1       8.018  14.198  17.792  0.00  0.00    +0.000 NA
ATOM     28  C   UNL     1       8.668  13.034  18.002  0.00  0.00    +0.000 A 
ATOM     29  C   UNL     1       7.979  11.825  17.918  0.00  0.00    +0.000 A 
ENDBRANCH  19  20
ENDBRANCH  18  19
ENDBRANCH   9  18
TORSDOF 4
ENDMDL
MODEL 5
REMARK VINA RESULT:      -8.7      4.772      8.092
REMARK  Name = 
REMARK  5 active torsions:
REMARK  status: ('A' for Active; 'I' for Inactive)
REMARK    1  A    between atoms: C_1  and  C_2
REMARK    2  A    between atoms: C_2  and  C_3
REMARK    3  A    between atoms: N_15  and  C_16
REMARK    4  A    between atoms: C_16  and  C_17
REMARK    5  A    between atoms: C_17  and  C_18
REMARK                            x       y       z     vdW  Elec       q    Type
REMARK                         _______ _______ _______ _____ _____    ______ ____
ROOT
ATOM      1  C   UNL     1       5.038   5.735  15.831  0.00  0.00    +0.000 C 
ATOM      2  C   UNL     1       6.529   5.334  15.711  0.00  0.00    +0.000 C 
ATOM      3  C   UNL     1       7.410   6.575  16.052  0.00  0.00    +0.000 C 
ATOM      4  C   UNL     1       7.324   7.010  17.514  0.00  0.00    +0.000 C 
ATOM      5  C   UNL     1       7.628   5.839  18.440  0.00  0.00    +0.000 C 
ATOM      6  N   UNL     1       6.764   4.698  18.147  0.00  0.00    +0.000 N 
ATOM      7  C   UNL     1       5.902   4.269  19.144  0.00  0.00    +0.000 C 
ATOM      8  O   UNL     1       5.782   4.858  20.217  0.00  0.00    +0.000 OA
ATOM      9  N   UNL     1       5.166   3.144  18.870  0.00  0.00    +0.000 N 
ATOM     10  C   UNL     1       6.845   4.212  16.755  0.00  0.00    +0.000 C 
ATOM     11  H   UNL     1       5.587   2.482  18.240  0.00  0.00    +0.000 HD
ENDROOT
BRANCH   2  12
ATOM     12  C   UNL     1       6.761   4.828  14.264  0.00  0.00    +0.000 A 
ATOM     13  C   UNL     1       7.688   5.422  13.387  0.00  0.00    +0.000 A 
ATOM     14  C   UNL     1       7.806   5.008  12.054  0.00  0.00    +0.000 A 
ATOM     15  C   UNL     1       7.000   3.990  11.565  0.00  0.00    +0.000 A 
ATOM     16  C   UNL     1       6.091   3.368  12.413  0.00  0.00    +0.000 A 
ATOM     17  C   UNL     1       5.980   3.776  13.747  0.00  0.00    +0.000 A 
ENDBRANCH   2  12
BRANCH   9  18
ATOM     18  C   UNL     1       4.258   2.593  19.877  0.00  0.00    +0.000 C 
BRANCH  18  19
ATOM     19  C   UNL     1       2.793   2.826  19.502  0.00  0.00    +0.000 C 
BRANCH  19  20
ATOM     20  C   UNL     1       2.314   4.257  19.606  0.00  0.00    +0.000 A 
ATOM     21  C   UNL     1       1.827   4.746  20.818  0.00  0.00    +0.000 A 
ATOM     22  C   UNL     1       1.567   6.112  20.973  0.00  0.00    +0.000 A 
ATOM     23  C   UNL     1       1.773   7.009  19.934  0.00  0.00    +0.000 A 
ATOM     24  N   UNL     1       1.600   8.330  20.152  0.00  0.00    +0.000 NA
ATOM     25  C   UNL     1       1.832   9.147  19.105  0.00  0.00    +0.000 A 
ATOM     26  C   UNL     1       2.190   8.665  17.858  0.00  0.00    +0.000 A 
ATOM     27  N   UNL     1       2.372   7.347  17.624  0.00  0.00    +0.000 NA
ATOM     28  C   UNL     1       2.184   6.515  18.669  0.00  0.00    +0.000 A 
ATOM     29  C   UNL     1       2.442   5.151  18.532  0.00  0.00    +0.000 A 
ENDBRANCH  19  20
ENDBRANCH  18  19
ENDBRANCH   9  18
TORSDOF 4
ENDMDL
MODEL 6
REMARK VINA RESULT:      -8.6      4.762      8.081
REMARK  Name = 
REMARK  5 active torsions:
REMARK  status: ('A' for Active; 'I' for Inactive)
REMARK    1  A    between atoms: C_1  and  C_2
REMARK    2  A    between atoms: C_2  and  C_3
REMARK    3  A    between atoms: N_15  and  C_16
REMARK    4  A    between atoms: C_16  and  C_17
REMARK    5  A    between atoms: C_17  and  C_18
REMARK                            x       y       z     vdW  Elec       q    Type
REMARK                         _______ _______ _______ _____ _____    ______ ____
ROOT
ATOM      1  C   UNL     1       5.064   6.022  15.695  0.00  0.00    +0.000 C 
ATOM      2  C   UNL     1       6.474   5.380  15.657  0.00  0.00    +0.000 C 
ATOM      3  C   UNL     1       7.531   6.473  16.003  0.00  0.00    +0.000 C 
ATOM      4  C   UNL     1       7.457   6.970  17.445  0.00  0.00    +0.000 C 
ATOM      5  C   UNL     1       7.526   5.800  18.419  0.00  0.00    +0.000 C 
ATOM      6  N   UNL     1       6.499   4.804  18.119  0.00  0.00    +0.000 N 
ATOM      7  C   UNL     1       5.538   4.558  19.086  0.00  0.00    +0.000 C 
ATOM      8  O   UNL     1       5.472   5.198  20.135  0.00  0.00    +0.000 OA
ATOM      9  N   UNL     1       4.640   3.558  18.812  0.00  0.00    +0.000 N 
ATOM     10  C   UNL     1       6.557   4.260  16.748  0.00  0.00    +0.000 C 
ATOM     11  H   UNL     1       4.973   2.814  18.222  0.00  0.00    +0.000 HD
ENDROOT
BRANCH   2  12
ATOM     12  C   UNL     1       6.679   4.790  14.238  0.00  0.00    +0.000 A 
ATOM     13  C   UNL     1       7.677   5.249  13.357  0.00  0.00    +0.000 A 
ATOM     14  C   UNL     1       7.776   4.768  12.046  0.00  0.00    +0.000 A 
ATOM     15  C   UNL     1       6.881   3.814  11.583  0.00  0.00    +0.000 A 
ATOM     16  C   UNL     1       5.899   3.324  12.435  0.00  0.00    +0.000 A 
ATOM     17  C   UNL     1       5.806   3.799  13.748  0.00  0.00    +0.000 A 
ENDBRANCH   2  12
BRANCH   9  18
ATOM     18  C   UNL     1       3.612   3.199  19.790  0.00  0.00    +0.000 C 
BRANCH  18  19
ATOM     19  C   UNL     1       2.255   3.806  19.430  0.00  0.00    +0.000 C 
BRANCH  19  20
ATOM     20  C   UNL     1       2.215   5.317  19.362  0.00  0.00    +0.000 A 
ATOM     21  C   UNL     1       2.449   5.969  18.152  0.00  0.00    +0.000 A 
ATOM     22  C   UNL     1       2.224   7.346  18.038  0.00  0.00    +0.000 A 
ATOM     23  C   UNL     1       1.777   8.096  19.117  0.00  0.00    +0.000 A 
ATOM     24  N   UNL     1       1.483   9.401  18.943  0.00  0.00    +0.000 NA
ATOM     25  C   UNL     1       1.039  10.068  20.028  0.00  0.00    +0.000 A 
ATOM     26  C   UNL     1       0.926   9.465  21.268  0.00  0.00    +0.000 A 
ATOM     27  N   UNL     1       1.212   8.158  21.459  0.00  0.00    +0.000 NA
ATOM     28  C   UNL     1       1.620   7.463  20.377  0.00  0.00    +0.000 A 
ATOM     29  C   UNL     1       1.845   6.090  20.473  0.00  0.00    +0.000 A 
ENDBRANCH  19  20
ENDBRANCH  18  19
ENDBRANCH   9  18
TORSDOF 4
ENDMDL
MODEL 7
REMARK VINA RESULT:      -8.6      6.044      9.105
REMARK  Name = 
REMARK  5 active torsions:
REMARK  status: ('A' for Active; 'I' for Inactive)
REMARK    1  A    between atoms: C_1  and  C_2
REMARK    2  A    between atoms: C_2  and  C_3
REMARK    3  A    between atoms: N_15  and  C_16
REMARK    4  A    between atoms: C_16  and  C_17
REMARK    5  A    between atoms: C_17  and  C_18
REMARK                            x       y       z     vdW  Elec       q    Type
REMARK                         _______ _______ _______ _____ _____    ______ ____
ROOT
ATOM      1  C   UNL     1       5.477   5.401  19.260  0.00  0.00    +0.000 C 
ATOM      2  C   UNL     1       4.669   4.574  18.229  0.00  0.00    +0.000 C 
ATOM      3  C   UNL     1       4.413   3.153  18.818  0.00  0.00    +0.000 C 
ATOM      4  C   UNL     1       3.475   3.144  20.023  0.00  0.00    +0.000 C 
ATOM      5  C   UNL     1       2.168   3.854  19.691  0.00  0.00    +0.000 C 
ATOM      6  N   UNL     1       2.415   5.203  19.187  0.00  0.00    +0.000 N 
ATOM      7  C   UNL     1       1.916   6.267  19.921  0.00  0.00    +0.000 C 
ATOM      8  O   UNL     1       1.355   6.120  21.006  0.00  0.00    +0.000 OA
ATOM      9  N   UNL     1       2.088   7.515  19.380  0.00  0.00    +0.000 N 
ATOM     10  C   UNL     1       3.282   5.261  17.993  0.00  0.00    +0.000 C 
ATOM     11  H   UNL     1       2.124   7.561  18.375  0.00  0.00    +0.000 HD
ENDROOT
BRANCH   2  12
ATOM     12  C   UNL     1       5.496   4.528  16.917  0.00  0.00    +0.000 A 
ATOM     13  C   UNL     1       6.858   4.877  16.861  0.00  0.00    +0.000 A 
ATOM     14  C   UNL     1       7.555   4.921  15.647  0.00  0.00    +0.000 A 
ATOM     15  C   UNL     1       6.906   4.617  14.459  0.00  0.00    +0.000 A 
ATOM     16  C   UNL     1       5.566   4.248  14.484  0.00  0.00    +0.000 A 
ATOM     17  C   UNL     1       4.874   4.194  15.698  0.00  0.00    +0.000 A 
ENDBRANCH   2  12
BRANCH   9  18
ATOM     18  C   UNL     1       1.560   8.696  20.063  0.00  0.00    +0.000 C 
BRANCH  18  19
ATOM     19  C   UNL     1       1.334   9.856  19.092  0.00  0.00    +0.000 C 
BRANCH  19  20
ATOM     20  C   UNL     1      -0.112  10.200  18.813  0.00  0.00    +0.000 A 
ATOM     21  C   UNL     1      -0.832  10.982  19.716  0.00  0.00    +0.000 A 
ATOM     22  C   UNL     1      -2.101  11.464  19.374  0.00  0.00    +0.000 A 
ATOM     23  C   UNL     1      -2.679  11.172  18.147  0.00  0.00    +0.000 A 
ATOM     24  N   UNL     1      -3.862  11.731  17.819  0.00  0.00    +0.000 NA
ATOM     25  C   UNL     1      -4.359  11.418  16.605  0.00  0.00    +0.000 A 
ATOM     26  C   UNL     1      -3.719  10.538  15.751  0.00  0.00    +0.000 A 
ATOM     27  N   UNL     1      -2.531   9.973  16.061  0.00  0.00    +0.000 NA
ATOM     28  C   UNL     1      -1.996  10.305  17.254  0.00  0.00    +0.000 A 
ATOM     29  C   UNL     1      -0.731   9.836  17.608  0.00  0.00    +0.000 A 
ENDBRANCH  19  20
ENDBRANCH  18  19
ENDBRANCH   9  18
TORSDOF 4
ENDMDL
MODEL 8
REMARK VINA RESULT:      -8.5      6.358      8.682
REMARK  Name = 
REMARK  5 active torsions:
REMARK  status: ('A' for Active; 'I' for Inactive)
REMARK    1  A    between atoms: C_1  and  C_2
REMARK    2  A    between atoms: C_2  and  C_3
REMARK    3  A    between atoms: N_15  and  C_16
REMARK    4  A    between atoms: C_16  and  C_17
REMARK    5  A    between atoms: C_17  and  C_18
REMARK                            x       y       z     vdW  Elec       q    Type
REMARK                         _______ _______ _______ _____ _____    ______ ____
ROOT
ATOM      1  C   UNL     1       5.073   3.890  19.078  0.00  0.00    +0.000 C 
ATOM      2  C   UNL     1       4.313   3.726  17.738  0.00  0.00    +0.000 C 
ATOM      3  C   UNL     1       3.863   2.239  17.596  0.00  0.00    +0.000 C 
ATOM      4  C   UNL     1       2.800   1.818  18.609  0.00  0.00    +0.000 C 
ATOM      5  C   UNL     1       1.609   2.767  18.562  0.00  0.00    +0.000 C 
ATOM      6  N   UNL     1       2.034   4.153  18.746  0.00  0.00    +0.000 N 
ATOM      7  C   UNL     1       1.555   4.833  19.855  0.00  0.00    +0.000 C 
ATOM      8  O   UNL     1       0.866   4.292  20.718  0.00  0.00    +0.000 OA
ATOM      9  N   UNL     1       1.901   6.156  19.955  0.00  0.00    +0.000 N 
ATOM     10  C   UNL     1       3.031   4.622  17.763  0.00  0.00    +0.000 C 
ATOM     11  H   UNL     1       2.053   6.641  19.086  0.00  0.00    +0.000 HD
ENDROOT
BRANCH   2  12
ATOM     12  C   UNL     1       5.274   4.161  16.600  0.00  0.00    +0.000 A 
ATOM     13  C   UNL     1       4.945   4.042  15.237  0.00  0.00    +0.000 A 
ATOM     14  C   UNL     1       5.869   4.349  14.230  0.00  0.00    +0.000 A 
ATOM     15  C   UNL     1       7.145   4.784  14.562  0.00  0.00    +0.000 A 
ATOM     16  C   UNL     1       7.492   4.934  15.900  0.00  0.00    +0.000 A 
ATOM     17  C   UNL     1       6.564   4.635  16.905  0.00  0.00    +0.000 A 
ENDBRANCH   2  12
BRANCH   9  18
ATOM     18  C   UNL     1       1.411   6.966  21.070  0.00  0.00    +0.000 C 
BRANCH  18  19
ATOM     19  C   UNL     1       1.583   8.462  20.800  0.00  0.00    +0.000 C 
BRANCH  19  20
ATOM     20  C   UNL     1       0.490   9.352  21.348  0.00  0.00    +0.000 A 
ATOM     21  C   UNL     1       0.160   9.303  22.702  0.00  0.00    +0.000 A 
ATOM     22  C   UNL     1      -0.708  10.254  23.250  0.00  0.00    +0.000 A 
ATOM     23  C   UNL     1      -1.269  11.256  22.469  0.00  0.00    +0.000 A 
ATOM     24  N   UNL     1      -2.027  12.208  23.053  0.00  0.00    +0.000 NA
ATOM     25  C   UNL     1      -2.527  13.160  22.240  0.00  0.00    +0.000 A 
ATOM     26  C   UNL     1      -2.316  13.147  20.873  0.00  0.00    +0.000 A 
ATOM     27  N   UNL     1      -1.556  12.205  20.273  0.00  0.00    +0.000 NA
ATOM     28  C   UNL     1      -1.012  11.265  21.074  0.00  0.00    +0.000 A 
ATOM     29  C   UNL     1      -0.143  10.312  20.544  0.00  0.00    +0.000 A 
ENDBRANCH  19  20
ENDBRANCH  18  19
ENDBRANCH   9  18
TORSDOF 4
ENDMDL
MODEL 9
REMARK VINA RESULT:      -8.5      1.299      1.988
REMARK  Name = 
REMARK  5 active torsions:
REMARK  status: ('A' for Active; 'I' for Inactive)
REMARK    1  A    between atoms: C_1  and  C_2
REMARK    2  A    between atoms: C_2  and  C_3
REMARK    3  A    between atoms: N_15  and  C_16
REMARK    4  A    between atoms: C_16  and  C_17
REMARK    5  A    between atoms: C_17  and  C_18
REMARK                            x       y       z     vdW  Elec       q    Type
REMARK                         _______ _______ _______ _____ _____    ______ ____
ROOT
ATOM      1  C   UNL     1       3.590   6.220  17.679  0.00  0.00    +0.000 C 
ATOM      2  C   UNL     1       3.924   4.718  17.864  0.00  0.00    +0.000 C 
ATOM      3  C   UNL     1       3.769   3.998  16.489  0.00  0.00    +0.000 C 
ATOM      4  C   UNL     1       4.807   4.419  15.451  0.00  0.00    +0.000 C 
ATOM      5  C   UNL     1       6.216   4.260  16.008  0.00  0.00    +0.000 C 
ATOM      6  N   UNL     1       6.368   4.980  17.271  0.00  0.00    +0.000 N 
ATOM      7  C   UNL     1       7.291   6.012  17.318  0.00  0.00    +0.000 C 
ATOM      8  O   UNL     1       7.915   6.391  16.328  0.00  0.00    +0.000 OA
ATOM      9  N   UNL     1       7.473   6.612  18.538  0.00  0.00    +0.000 N 
ATOM     10  C   UNL     1       5.413   4.576  18.322  0.00  0.00    +0.000 C 
ATOM     11  H   UNL     1       7.315   6.031  19.345  0.00  0.00    +0.000 HD
ENDROOT
BRANCH   2  12
ATOM     12  C   UNL     1       2.956   4.154  18.936  0.00  0.00    +0.000 A 
ATOM     13  C   UNL     1       1.850   3.344  18.616  0.00  0.00    +0.000 A 
ATOM     14  C   UNL     1       0.936   2.931  19.593  0.00  0.00    +0.000 A 
ATOM     15  C   UNL     1       1.104   3.318  20.915  0.00  0.00    +0.000 A 
ATOM     16  C   UNL     1       2.199   4.099  21.267  0.00  0.00    +0.000 A 
ATOM     17  C   UNL     1       3.117   4.503  20.291  0.00  0.00    +0.000 A 
ENDBRANCH   2  12
BRANCH   9  18
ATOM     18  C   UNL     1       8.455   7.685  18.695  0.00  0.00    +0.000 C 
BRANCH  18  19
ATOM     19  C   UNL     1       8.052   8.937  17.913  0.00  0.00    +0.000 C 
BRANCH  19  20
ATOM     20  C   UNL     1       8.702  10.225  18.367  0.00  0.00    +0.000 A 
ATOM     21  C   UNL     1       8.950  11.245  17.450  0.00  0.00    +0.000 A 
ATOM     22  C   UNL     1       9.368  12.505  17.894  0.00  0.00    +0.000 A 
ATOM     23  C   UNL     1       9.558  12.769  19.243  0.00  0.00    +0.000 A 
ATOM     24  N   UNL     1       9.872  14.021  19.638  0.00  0.00    +0.000 NA
ATOM     25  C   UNL     1      10.026  14.213  20.963  0.00  0.00    +0.000 A 
ATOM     26  C   UNL     1       9.912  13.179  21.876  0.00  0.00    +0.000 A 
ATOM     27  N   UNL     1       9.595  11.921  21.499  0.00  0.00    +0.000 NA
ATOM     28  C   UNL     1       9.396  11.716  20.180  0.00  0.00    +0.000 A 
ATOM     29  C   UNL     1       8.975  10.468  19.722  0.00  0.00    +0.000 A 
ENDBRANCH  19  20
ENDBRANCH  18  19
ENDBRANCH   9  18
TORSDOF 4
ENDMDL
