MODEL 1
REMARK VINA RESULT:      -8.0      0.000      0.000
REMARK  Name = 
REMARK  4 active torsions:
REMARK  status: ('A' for Active; 'I' for Inactive)
REMARK    1  A    between atoms: C_5  and  C_6
REMARK    2  A    between atoms: C_6  and  C_7
REMARK    3  A    between atoms: C_12  and  O_13
REMARK    4  A    between atoms: O_13  and  C_14
REMARK                            x       y       z     vdW  Elec       q    Type
REMARK                         _______ _______ _______ _____ _____    ______ ____
ROOT
ATOM      1  C   UNL     1       3.777   3.883  18.824  0.00  0.00    +0.000 A 
ATOM      2  C   UNL     1       3.476   2.547  19.151  0.00  0.00    +0.000 A 
ATOM      3  C   UNL     1       2.189   2.037  18.981  0.00  0.00    +0.000 A 
ATOM      4  C   UNL     1       1.170   2.864  18.523  0.00  0.00    +0.000 A 
ATOM      5  C   UNL     1       1.454   4.186  18.189  0.00  0.00    +0.000 A 
ATOM      6  C   UNL     1       2.765   4.683  18.258  0.00  0.00    +0.000 A 
ENDROOT
BRANCH   1   7
ATOM      7  C   UNL     1       5.154   4.400  19.173  0.00  0.00    +0.000 C 
BRANCH   7  12
ATOM      8  S   UNL     1       6.904   4.705  14.369  0.00  0.00    +0.000 S 
ATOM      9  C   UNL     1       6.834   4.562  16.007  0.00  0.00    +0.000 A 
ATOM     10  N   UNL     1       7.897   4.555  16.889  0.00  0.00    +0.000 N 
ATOM     11  N   UNL     1       7.431   4.476  18.179  0.00  0.00    +0.000 NA
ATOM     12  C   UNL     1       6.132   4.417  18.044  0.00  0.00    +0.000 A 
ATOM     13  N   UNL     1       5.709   4.447  16.764  0.00  0.00    +0.000 N 
ATOM     14  H   UNL     1       8.880   4.668  16.672  0.00  0.00    +0.000 HD
ATOM     15  H   UNL     1       4.761   4.430  16.427  0.00  0.00    +0.000 HD
ENDBRANCH   7  12
ENDBRANCH   1   7
BRANCH   6  16
ATOM     16  O   UNL     1       3.082   5.962  17.830  0.00  0.00    +0.000 OA
BRANCH  16  17
ATOM     17  C   UNL     1       2.473   7.043  18.448  0.00  0.00    +0.000 A 
ATOM     18  C   UNL     1       2.267   6.957  19.828  0.00  0.00    +0.000 A 
ATOM     19  C   UNL     1       1.644   8.007  20.513  0.00  0.00    +0.000 A 
ATOM     20  C   UNL     1       1.222   9.144  19.825  0.00  0.00    +0.000 A 
ATOM     21  C   UNL     1       1.441   9.242  18.453  0.00  0.00    +0.000 A 
ATOM     22  C   UNL     1       2.090   8.208  17.771  0.00  0.00    +0.000 A 
ENDBRANCH  16  17
ENDBRANCH   6  16
TORSDOF 4
ENDMDL
MODEL 2
REMARK VINA RESULT:      -8.0      0.085      1.080
REMARK  Name = 
REMARK  4 active torsions:
REMARK  status: ('A' for Active; 'I' for Inactive)
REMARK    1  A    between atoms: C_5  and  C_6
REMARK    2  A    between atoms: C_6  and  C_7
REMARK    3  A    between atoms: C_12  and  O_13
REMARK    4  A    between atoms: O_13  and  C_14
REMARK                            x       y       z     vdW  Elec       q    Type
REMARK                         _______ _______ _______ _____ _____    ______ ____
ROOT
ATOM      1  C   UNL     1       3.793   3.863  18.784  0.00  0.00    +0.000 A 
ATOM      2  C   UNL     1       3.496   2.513  19.050  0.00  0.00    +0.000 A 
ATOM      3  C   UNL     1       2.207   2.012  18.873  0.00  0.00    +0.000 A 
ATOM      4  C   UNL     1       1.183   2.859  18.470  0.00  0.00    +0.000 A 
ATOM      5  C   UNL     1       1.461   4.195  18.196  0.00  0.00    +0.000 A 
ATOM      6  C   UNL     1       2.774   4.690  18.272  0.00  0.00    +0.000 A 
ENDROOT
BRANCH   1   7
ATOM      7  C   UNL     1       5.175   4.364  19.139  0.00  0.00    +0.000 C 
BRANCH   7  12
ATOM      8  S   UNL     1       6.902   4.685  14.327  0.00  0.00    +0.000 S 
ATOM      9  C   UNL     1       6.840   4.551  15.967  0.00  0.00    +0.000 A 
ATOM     10  N   UNL     1       7.906   4.578  16.846  0.00  0.00    +0.000 N 
ATOM     11  N   UNL     1       7.446   4.495  18.137  0.00  0.00    +0.000 NA
ATOM     12  C   UNL     1       6.149   4.400  18.007  0.00  0.00    +0.000 A 
ATOM     13  N   UNL     1       5.721   4.410  16.729  0.00  0.00    +0.000 N 
ATOM     14  H   UNL     1       8.885   4.716  16.625  0.00  0.00    +0.000 HD
ATOM     15  H   UNL     1       4.773   4.365  16.395  0.00  0.00    +0.000 HD
ENDBRANCH   7  12
ENDBRANCH   1   7
BRANCH   6  16
ATOM     16  O   UNL     1       3.085   5.988  17.902  0.00  0.00    +0.000 OA
BRANCH  16  17
ATOM     17  C   UNL     1       2.457   7.037  18.556  0.00  0.00    +0.000 A 
ATOM     18  C   UNL     1       2.057   8.127  17.777  0.00  0.00    +0.000 A 
ATOM     19  C   UNL     1       1.431   9.226  18.375  0.00  0.00    +0.000 A 
ATOM     20  C   UNL     1       1.203   9.245  19.750  0.00  0.00    +0.000 A 
ATOM     21  C   UNL     1       1.583   8.153  20.528  0.00  0.00    +0.000 A 
ATOM     22  C   UNL     1       2.182   7.040  19.929  0.00  0.00    +0.000 A 
ENDBRANCH  16  17
ENDBRANCH   6  16
TORSDOF 4
ENDMDL
MODEL 3
REMARK VINA RESULT:      -7.8      1.666      2.183
REMARK  Name = 
REMARK  4 active torsions:
REMARK  status: ('A' for Active; 'I' for Inactive)
REMARK    1  A    between atoms: C_5  and  C_6
REMARK    2  A    between atoms: C_6  and  C_7
REMARK    3  A    between atoms: C_12  and  O_13
REMARK    4  A    between atoms: O_13  and  C_14
REMARK                            x       y       z     vdW  Elec       q    Type
REMARK                         _______ _______ _______ _____ _____    ______ ____
ROOT
ATOM      1  C   UNL     1       2.558   4.227  18.392  0.00  0.00    +0.000 A 
ATOM      2  C   UNL     1       1.791   3.052  18.274  0.00  0.00    +0.000 A 
ATOM      3  C   UNL     1       0.934   2.646  19.297  0.00  0.00    +0.000 A 
ATOM      4  C   UNL     1       0.861   3.383  20.473  0.00  0.00    +0.000 A 
ATOM      5  C   UNL     1       1.607   4.551  20.603  0.00  0.00    +0.000 A 
ATOM      6  C   UNL     1       2.396   5.025  19.542  0.00  0.00    +0.000 A 
ENDROOT
BRANCH   1   7
ATOM      7  C   UNL     1       3.569   4.520  17.307  0.00  0.00    +0.000 C 
BRANCH   7  12
ATOM      8  S   UNL     1       7.872   7.143  18.224  0.00  0.00    +0.000 S 
ATOM      9  C   UNL     1       6.748   5.941  18.169  0.00  0.00    +0.000 A 
ATOM     10  N   UNL     1       6.807   4.716  18.804  0.00  0.00    +0.000 N 
ATOM     11  N   UNL     1       5.653   4.011  18.562  0.00  0.00    +0.000 NA
ATOM     12  C   UNL     1       4.955   4.801  17.789  0.00  0.00    +0.000 A 
ATOM     13  N   UNL     1       5.563   5.968  17.501  0.00  0.00    +0.000 N 
ATOM     14  H   UNL     1       7.531   4.377  19.425  0.00  0.00    +0.000 HD
ATOM     15  H   UNL     1       5.209   6.727  16.943  0.00  0.00    +0.000 HD
ENDBRANCH   7  12
ENDBRANCH   1   7
BRANCH   6  16
ATOM     16  O   UNL     1       3.062   6.237  19.616  0.00  0.00    +0.000 OA
BRANCH  16  17
ATOM     17  C   UNL     1       2.350   7.406  19.396  0.00  0.00    +0.000 A 
ATOM     18  C   UNL     1       2.352   7.920  18.096  0.00  0.00    +0.000 A 
ATOM     19  C   UNL     1       1.665   9.104  17.807  0.00  0.00    +0.000 A 
ATOM     20  C   UNL     1       0.976   9.781  18.812  0.00  0.00    +0.000 A 
ATOM     21  C   UNL     1       0.954   9.263  20.105  0.00  0.00    +0.000 A 
ATOM     22  C   UNL     1       1.615   8.064  20.390  0.00  0.00    +0.000 A 
ENDBRANCH  16  17
ENDBRANCH   6  16
TORSDOF 4
ENDMDL
MODEL 4
REMARK VINA RESULT:      -7.7      1.714      2.113
REMARK  Name = 
REMARK  4 active torsions:
REMARK  status: ('A' for Active; 'I' for Inactive)
REMARK    1  A    between atoms: C_5  and  C_6
REMARK    2  A    between atoms: C_6  and  C_7
REMARK    3  A    between atoms: C_12  and  O_13
REMARK    4  A    between atoms: O_13  and  C_14
REMARK                            x       y       z     vdW  Elec       q    Type
REMARK                         _______ _______ _______ _____ _____    ______ ____
ROOT
ATOM      1  C   UNL     1       2.368   4.512  18.421  0.00  0.00    +0.000 A 
ATOM      2  C   UNL     1       1.635   3.324  18.236  0.00  0.00    +0.000 A 
ATOM      3  C   UNL     1       0.877   2.778  19.271  0.00  0.00    +0.000 A 
ATOM      4  C   UNL     1       0.872   3.384  20.521  0.00  0.00    +0.000 A 
ATOM      5  C   UNL     1       1.586   4.563  20.718  0.00  0.00    +0.000 A 
ATOM      6  C   UNL     1       2.272   5.178  19.658  0.00  0.00    +0.000 A 
ENDROOT
BRANCH   1   7
ATOM      7  C   UNL     1       3.279   4.959  17.300  0.00  0.00    +0.000 C 
BRANCH   7  12
ATOM      8  S   UNL     1       7.929   5.953  19.204  0.00  0.00    +0.000 S 
ATOM      9  C   UNL     1       6.683   5.243  18.397  0.00  0.00    +0.000 A 
ATOM     10  N   UNL     1       6.693   4.015  17.763  0.00  0.00    +0.000 N 
ATOM     11  N   UNL     1       5.447   3.744  17.254  0.00  0.00    +0.000 NA
ATOM     12  C   UNL     1       4.741   4.799  17.566  0.00  0.00    +0.000 A 
ATOM     13  N   UNL     1       5.428   5.743  18.238  0.00  0.00    +0.000 N 
ATOM     14  H   UNL     1       7.455   3.347  17.723  0.00  0.00    +0.000 HD
ATOM     15  H   UNL     1       5.086   6.622  18.590  0.00  0.00    +0.000 HD
ENDBRANCH   7  12
ENDBRANCH   1   7
BRANCH   6  16
ATOM     16  O   UNL     1       2.900   6.403  19.811  0.00  0.00    +0.000 OA
BRANCH  16  17
ATOM     17  C   UNL     1       2.186   7.559  19.533  0.00  0.00    +0.000 A 
ATOM     18  C   UNL     1       1.476   8.140  20.588  0.00  0.00    +0.000 A 
ATOM     19  C   UNL     1       0.723   9.299  20.374  0.00  0.00    +0.000 A 
ATOM     20  C   UNL     1       0.672   9.883  19.108  0.00  0.00    +0.000 A 
ATOM     21  C   UNL     1       1.393   9.318  18.059  0.00  0.00    +0.000 A 
ATOM     22  C   UNL     1       2.171   8.177  18.276  0.00  0.00    +0.000 A 
ENDBRANCH  16  17
ENDBRANCH   6  16
TORSDOF 4
ENDMDL
MODEL 5
REMARK VINA RESULT:      -7.7      1.264      1.714
REMARK  Name = 
REMARK  4 active torsions:
REMARK  status: ('A' for Active; 'I' for Inactive)
REMARK    1  A    between atoms: C_5  and  C_6
REMARK    2  A    between atoms: C_6  and  C_7
REMARK    3  A    between atoms: C_12  and  O_13
REMARK    4  A    between atoms: O_13  and  C_14
REMARK                            x       y       z     vdW  Elec       q    Type
REMARK                         _______ _______ _______ _____ _____    ______ ____
ROOT
ATOM      1  C   UNL     1       3.466   3.876  18.705  0.00  0.00    +0.000 A 
ATOM      2  C   UNL     1       2.936   2.701  18.139  0.00  0.00    +0.000 A 
ATOM      3  C   UNL     1       1.619   2.314  18.385  0.00  0.00    +0.000 A 
ATOM      4  C   UNL     1       0.822   3.070  19.235  0.00  0.00    +0.000 A 
ATOM      5  C   UNL     1       1.328   4.239  19.797  0.00  0.00    +0.000 A 
ATOM      6  C   UNL     1       2.618   4.694  19.478  0.00  0.00    +0.000 A 
ENDROOT
BRANCH   1   7
ATOM      7  C   UNL     1       4.941   4.149  18.511  0.00  0.00    +0.000 C 
BRANCH   7  12
ATOM      8  S   UNL     1       6.248   3.911  13.564  0.00  0.00    +0.000 S 
ATOM      9  C   UNL     1       5.863   4.480  15.060  0.00  0.00    +0.000 A 
ATOM     10  N   UNL     1       5.639   5.796  15.419  0.00  0.00    +0.000 N 
ATOM     11  N   UNL     1       5.286   5.863  16.744  0.00  0.00    +0.000 NA
ATOM     12  C   UNL     1       5.326   4.619  17.146  0.00  0.00    +0.000 A 
ATOM     13  N   UNL     1       5.682   3.741  16.188  0.00  0.00    +0.000 N 
ATOM     14  H   UNL     1       5.645   6.610  14.815  0.00  0.00    +0.000 HD
ATOM     15  H   UNL     1       5.762   2.741  16.266  0.00  0.00    +0.000 HD
ENDBRANCH   7  12
ENDBRANCH   1   7
BRANCH   6  16
ATOM     16  O   UNL     1       3.099   5.906  19.945  0.00  0.00    +0.000 OA
BRANCH  16  17
ATOM     17  C   UNL     1       2.454   7.072  19.563  0.00  0.00    +0.000 A 
ATOM     18  C   UNL     1       2.549   7.445  18.219  0.00  0.00    +0.000 A 
ATOM     19  C   UNL     1       1.934   8.618  17.769  0.00  0.00    +0.000 A 
ATOM     20  C   UNL     1       1.224   9.426  18.656  0.00  0.00    +0.000 A 
ATOM     21  C   UNL     1       1.110   9.049  19.993  0.00  0.00    +0.000 A 
ATOM     22  C   UNL     1       1.698   7.862  20.440  0.00  0.00    +0.000 A 
ENDBRANCH  16  17
ENDBRANCH   6  16
TORSDOF 4
ENDMDL
MODEL 6
REMARK VINA RESULT:      -7.7      0.929      1.050
REMARK  Name = 
REMARK  4 active torsions:
REMARK  status: ('A' for Active; 'I' for Inactive)
REMARK    1  A    between atoms: C_5  and  C_6
REMARK    2  A    between atoms: C_6  and  C_7
REMARK    3  A    between atoms: C_12  and  O_13
REMARK    4  A    between atoms: O_13  and  C_14
REMARK                            x       y       z     vdW  Elec       q    Type
REMARK                         _______ _______ _______ _____ _____    ______ ____
ROOT
ATOM      1  C   UNL     1       4.091   3.999  17.927  0.00  0.00    +0.000 A 
ATOM      2  C   UNL     1       3.763   2.633  18.029  0.00  0.00    +0.000 A 
ATOM      3  C   UNL     1       2.434   2.216  18.099  0.00  0.00    +0.000 A 
ATOM      4  C   UNL     1       1.412   3.156  18.113  0.00  0.00    +0.000 A 
ATOM      5  C   UNL     1       1.719   4.510  18.006  0.00  0.00    +0.000 A 
ATOM      6  C   UNL     1       3.046   4.938  17.833  0.00  0.00    +0.000 A 
ENDROOT
BRANCH   1   7
ATOM      7  C   UNL     1       5.552   4.380  18.004  0.00  0.00    +0.000 C 
BRANCH   7  12
ATOM      8  S   UNL     1       6.420   3.858  12.983  0.00  0.00    +0.000 S 
ATOM      9  C   UNL     1       6.569   4.288  14.564  0.00  0.00    +0.000 A 
ATOM     10  N   UNL     1       7.490   5.164  15.107  0.00  0.00    +0.000 N 
ATOM     11  N   UNL     1       7.258   5.308  16.453  0.00  0.00    +0.000 NA
ATOM     12  C   UNL     1       6.243   4.519  16.686  0.00  0.00    +0.000 A 
ATOM     13  N   UNL     1       5.792   3.864  15.598  0.00  0.00    +0.000 N 
ATOM     14  H   UNL     1       8.195   5.700  14.616  0.00  0.00    +0.000 HD
ATOM     15  H   UNL     1       5.017   3.224  15.540  0.00  0.00    +0.000 HD
ENDBRANCH   7  12
ENDBRANCH   1   7
BRANCH   6  16
ATOM     16  O   UNL     1       3.358   6.271  17.621  0.00  0.00    +0.000 OA
BRANCH  16  17
ATOM     17  C   UNL     1       2.645   7.242  18.307  0.00  0.00    +0.000 A 
ATOM     18  C   UNL     1       2.407   7.018  19.666  0.00  0.00    +0.000 A 
ATOM     19  C   UNL     1       1.681   7.950  20.415  0.00  0.00    +0.000 A 
ATOM     20  C   UNL     1       1.188   9.107  19.813  0.00  0.00    +0.000 A 
ATOM     21  C   UNL     1       1.439   9.344  18.464  0.00  0.00    +0.000 A 
ATOM     22  C   UNL     1       2.189   8.428  17.719  0.00  0.00    +0.000 A 
ENDBRANCH  16  17
ENDBRANCH   6  16
TORSDOF 4
ENDMDL
MODEL 7
REMARK VINA RESULT:      -7.6      1.254      1.430
REMARK  Name = 
REMARK  4 active torsions:
REMARK  status: ('A' for Active; 'I' for Inactive)
REMARK    1  A    between atoms: C_5  and  C_6
REMARK    2  A    between atoms: C_6  and  C_7
REMARK    3  A    between atoms: C_12  and  O_13
REMARK    4  A    between atoms: O_13  and  C_14
REMARK                            x       y       z     vdW  Elec       q    Type
REMARK                         _______ _______ _______ _____ _____    ______ ____
ROOT
ATOM      1  C   UNL     1       3.414   3.761  18.976  0.00  0.00    +0.000 A 
ATOM      2  C   UNL     1       2.838   2.557  18.528  0.00  0.00    +0.000 A 
ATOM      3  C   UNL     1       1.507   2.248  18.808  0.00  0.00    +0.000 A 
ATOM      4  C   UNL     1       0.740   3.115  19.576  0.00  0.00    +0.000 A 
ATOM      5  C   UNL     1       1.293   4.314  20.020  0.00  0.00    +0.000 A 
ATOM      6  C   UNL     1       2.599   4.684  19.661  0.00  0.00    +0.000 A 
ENDROOT
BRANCH   1   7
ATOM      7  C   UNL     1       4.898   3.956  18.760  0.00  0.00    +0.000 C 
BRANCH   7  12
ATOM      8  S   UNL     1       6.226   3.902  13.813  0.00  0.00    +0.000 S 
ATOM      9  C   UNL     1       5.827   4.415  15.326  0.00  0.00    +0.000 A 
ATOM     10  N   UNL     1       5.583   5.715  15.727  0.00  0.00    +0.000 N 
ATOM     11  N   UNL     1       5.224   5.732  17.053  0.00  0.00    +0.000 NA
ATOM     12  C   UNL     1       5.280   4.477  17.413  0.00  0.00    +0.000 A 
ATOM     13  N   UNL     1       5.653   3.636  16.428  0.00  0.00    +0.000 N 
ATOM     14  H   UNL     1       5.580   6.548  15.152  0.00  0.00    +0.000 HD
ATOM     15  H   UNL     1       5.747   2.635  16.473  0.00  0.00    +0.000 HD
ENDBRANCH   7  12
ENDBRANCH   1   7
BRANCH   6  16
ATOM     16  O   UNL     1       3.127   5.917  20.007  0.00  0.00    +0.000 OA
BRANCH  16  17
ATOM     17  C   UNL     1       2.487   7.065  19.566  0.00  0.00    +0.000 A 
ATOM     18  C   UNL     1       1.762   7.795  20.512  0.00  0.00    +0.000 A 
ATOM     19  C   UNL     1       1.080   8.956  20.132  0.00  0.00    +0.000 A 
ATOM     20  C   UNL     1       1.114   9.392  18.808  0.00  0.00    +0.000 A 
ATOM     21  C   UNL     1       1.851   8.679  17.865  0.00  0.00    +0.000 A 
ATOM     22  C   UNL     1       2.558   7.534  18.248  0.00  0.00    +0.000 A 
ENDBRANCH  16  17
ENDBRANCH   6  16
TORSDOF 4
ENDMDL
MODEL 8
REMARK VINA RESULT:      -7.6      0.809      1.348
REMARK  Name = 
REMARK  4 active torsions:
REMARK  status: ('A' for Active; 'I' for Inactive)
REMARK    1  A    between atoms: C_5  and  C_6
REMARK    2  A    between atoms: C_6  and  C_7
REMARK    3  A    between atoms: C_12  and  O_13
REMARK    4  A    between atoms: O_13  and  C_14
REMARK                            x       y       z     vdW  Elec       q    Type
REMARK                         _______ _______ _______ _____ _____    ______ ____
ROOT
ATOM      1  C   UNL     1       3.781   4.284  18.969  0.00  0.00    +0.000 A 
ATOM      2  C   UNL     1       3.638   3.133  18.171  0.00  0.00    +0.000 A 
ATOM      3  C   UNL     1       2.398   2.512  18.019  0.00  0.00    +0.000 A 
ATOM      4  C   UNL     1       1.289   3.005  18.695  0.00  0.00    +0.000 A 
ATOM      5  C   UNL     1       1.412   4.146  19.482  0.00  0.00    +0.000 A 
ATOM      6  C   UNL     1       2.631   4.840  19.563  0.00  0.00    +0.000 A 
ENDROOT
BRANCH   1   7
ATOM      7  C   UNL     1       5.180   4.810  19.202  0.00  0.00    +0.000 C 
BRANCH   7  12
ATOM      8  S   UNL     1       6.914   4.774  14.382  0.00  0.00    +0.000 S 
ATOM      9  C   UNL     1       6.827   4.632  16.020  0.00  0.00    +0.000 A 
ATOM     10  N   UNL     1       7.869   4.379  16.891  0.00  0.00    +0.000 N 
ATOM     11  N   UNL     1       7.408   4.390  18.184  0.00  0.00    +0.000 NA
ATOM     12  C   UNL     1       6.127   4.623  18.062  0.00  0.00    +0.000 A 
ATOM     13  N   UNL     1       5.711   4.761  16.788  0.00  0.00    +0.000 N 
ATOM     14  H   UNL     1       8.851   4.273  16.664  0.00  0.00    +0.000 HD
ATOM     15  H   UNL     1       4.780   4.958  16.461  0.00  0.00    +0.000 HD
ENDBRANCH   7  12
ENDBRANCH   1   7
BRANCH   6  16
ATOM     16  O   UNL     1       2.745   6.033  20.257  0.00  0.00    +0.000 OA
BRANCH  16  17
ATOM     17  C   UNL     1       2.272   7.196  19.668  0.00  0.00    +0.000 A 
ATOM     18  C   UNL     1       2.572   7.394  18.317  0.00  0.00    +0.000 A 
ATOM     19  C   UNL     1       2.139   8.553  17.664  0.00  0.00    +0.000 A 
ATOM     20  C   UNL     1       1.408   9.519  18.354  0.00  0.00    +0.000 A 
ATOM     21  C   UNL     1       1.090   9.317  19.695  0.00  0.00    +0.000 A 
ATOM     22  C   UNL     1       1.496   8.146  20.343  0.00  0.00    +0.000 A 
ENDBRANCH  16  17
ENDBRANCH   6  16
TORSDOF 4
ENDMDL
MODEL 9
REMARK VINA RESULT:      -7.5      3.010      4.772
REMARK  Name = 
REMARK  4 active torsions:
REMARK  status: ('A' for Active; 'I' for Inactive)
REMARK    1  A    between atoms: C_5  and  C_6
REMARK    2  A    between atoms: C_6  and  C_7
REMARK    3  A    between atoms: C_12  and  O_13
REMARK    4  A    between atoms: O_13  and  C_14
REMARK                            x       y       z     vdW  Elec       q    Type
REMARK                         _______ _______ _______ _____ _____    ______ ____
ROOT
ATOM      1  C   UNL     1       6.186   5.662  16.666  0.00  0.00    +0.000 A 
ATOM      2  C   UNL     1       7.113   6.611  17.136  0.00  0.00    +0.000 A 
ATOM      3  C   UNL     1       7.622   6.539  18.433  0.00  0.00    +0.000 A 
ATOM      4  C   UNL     1       7.181   5.544  19.296  0.00  0.00    +0.000 A 
ATOM      5  C   UNL     1       6.270   4.593  18.844  0.00  0.00    +0.000 A 
ATOM      6  C   UNL     1       5.827   4.593  17.511  0.00  0.00    +0.000 A 
ENDROOT
BRANCH   1   7
ATOM      7  C   UNL     1       5.571   5.891  15.304  0.00  0.00    +0.000 C 
BRANCH   7  12
ATOM      8  S   UNL     1       5.703   2.296  11.658  0.00  0.00    +0.000 S 
ATOM      9  C   UNL     1       6.133   3.520  12.671  0.00  0.00    +0.000 A 
ATOM     10  N   UNL     1       7.295   4.266  12.630  0.00  0.00    +0.000 N 
ATOM     11  N   UNL     1       7.262   5.233  13.605  0.00  0.00    +0.000 NA
ATOM     12  C   UNL     1       6.118   5.036  14.208  0.00  0.00    +0.000 A 
ATOM     13  N   UNL     1       5.400   4.012  13.707  0.00  0.00    +0.000 N 
ATOM     14  H   UNL     1       8.048   4.199  11.955  0.00  0.00    +0.000 HD
ATOM     15  H   UNL     1       4.492   3.693  14.001  0.00  0.00    +0.000 HD
ENDBRANCH   7  12
ENDBRANCH   1   7
BRANCH   6  16
ATOM     16  O   UNL     1       5.004   3.595  17.018  0.00  0.00    +0.000 OA
BRANCH  16  17
ATOM     17  C   UNL     1       3.738   3.443  17.564  0.00  0.00    +0.000 A 
ATOM     18  C   UNL     1       3.448   2.218  18.173  0.00  0.00    +0.000 A 
ATOM     19  C   UNL     1       2.185   1.992  18.731  0.00  0.00    +0.000 A 
ATOM     20  C   UNL     1       1.206   2.983  18.681  0.00  0.00    +0.000 A 
ATOM     21  C   UNL     1       1.496   4.212  18.092  0.00  0.00    +0.000 A 
ATOM     22  C   UNL     1       2.767   4.452  17.560  0.00  0.00    +0.000 A 
ENDBRANCH  16  17
ENDBRANCH   6  16
TORSDOF 4
ENDMDL
