MODEL 1
REMARK VINA RESULT:      -7.0      0.000      0.000
REMARK  Name = 
REMARK  4 active torsions:
REMARK  status: ('A' for Active; 'I' for Inactive)
REMARK    1  A    between atoms: C_2  and  C_11
REMARK    2  A    between atoms: N_3  and  C_4
REMARK    3  A    between atoms: C_4  and  C_5
REMARK    4  A    between atoms: C_13  and  C_14
REMARK                            x       y       z     vdW  Elec       q    Type
REMARK                         _______ _______ _______ _____ _____    ______ ____
ROOT
ATOM      1  O   UNL     1       5.524   4.651  19.846  0.00  0.00    +0.000 OA
ATOM      2  C   UNL     1       5.219   5.122  18.751  0.00  0.00    +0.000 C 
ATOM      3  N   UNL     1       4.074   5.882  18.584  0.00  0.00    +0.000 N 
ATOM      4  H   UNL     1       3.813   6.145  17.637  0.00  0.00    +0.000 HD
ENDROOT
BRANCH   2   5
ATOM      5  C   UNL     1       5.995   4.920  17.545  0.00  0.00    +0.000 A 
ATOM      6  N   UNL     1       5.540   4.808  16.313  0.00  0.00    +0.000 NA
ATOM      7  C   UNL     1       6.699   4.573  15.602  0.00  0.00    +0.000 A 
ATOM      8  N   UNL     1       7.813   4.543  16.350  0.00  0.00    +0.000 NA
ATOM      9  O   UNL     1       7.347   4.783  17.642  0.00  0.00    +0.000 OA
BRANCH   7  10
ATOM     10  C   UNL     1       6.717   4.351  14.123  0.00  0.00    +0.000 A 
ATOM     11  C   UNL     1       5.832   3.537  13.445  0.00  0.00    +0.000 A 
ATOM     12  C   UNL     1       6.083   3.520  12.041  0.00  0.00    +0.000 A 
ATOM     13  C   UNL     1       7.158   4.312  11.702  0.00  0.00    +0.000 A 
ATOM     14  S   UNL     1       7.835   5.093  13.066  0.00  0.00    +0.000 S 
ENDBRANCH   7  10
ENDBRANCH   2   5
BRANCH   3  15
ATOM     15  C   UNL     1       3.117   6.027  19.653  0.00  0.00    +0.000 C 
BRANCH  15  16
ATOM     16  C   UNL     1       2.328   4.770  19.877  0.00  0.00    +0.000 A 
ATOM     17  C   UNL     1       2.199   4.209  21.150  0.00  0.00    +0.000 A 
ATOM     18  C   UNL     1       1.428   3.066  21.296  0.00  0.00    +0.000 A 
ATOM     19  N   UNL     1       0.797   2.448  20.275  0.00  0.00    +0.000 NA
ATOM     20  C   UNL     1       0.948   2.995  19.050  0.00  0.00    +0.000 A 
ATOM     21  C   UNL     1       1.697   4.134  18.803  0.00  0.00    +0.000 A 
ENDBRANCH  15  16
ENDBRANCH   3  15
TORSDOF 4
ENDMDL
MODEL 2
REMARK VINA RESULT:      -7.0      0.321      1.098
REMARK  Name = 
REMARK  4 active torsions:
REMARK  status: ('A' for Active; 'I' for Inactive)
REMARK    1  A    between atoms: C_2  and  C_11
REMARK    2  A    between atoms: N_3  and  C_4
REMARK    3  A    between atoms: C_4  and  C_5
REMARK    4  A    between atoms: C_13  and  C_14
REMARK                            x       y       z     vdW  Elec       q    Type
REMARK                         _______ _______ _______ _____ _____    ______ ____
ROOT
ATOM      1  O   UNL     1       5.941   5.445  19.756  0.00  0.00    +0.000 OA
ATOM      2  C   UNL     1       5.427   5.516  18.641  0.00  0.00    +0.000 C 
ATOM      3  N   UNL     1       4.107   5.904  18.475  0.00  0.00    +0.000 N 
ATOM      4  H   UNL     1       3.705   5.831  17.545  0.00  0.00    +0.000 HD
ENDROOT
BRANCH   2   5
ATOM      5  C   UNL     1       6.121   5.189  17.413  0.00  0.00    +0.000 A 
ATOM      6  N   UNL     1       5.590   4.996  16.222  0.00  0.00    +0.000 NA
ATOM      7  C   UNL     1       6.696   4.661  15.468  0.00  0.00    +0.000 A 
ATOM      8  N   UNL     1       7.851   4.648  16.151  0.00  0.00    +0.000 NA
ATOM      9  O   UNL     1       7.471   5.008  17.443  0.00  0.00    +0.000 OA
BRANCH   7  10
ATOM     10  C   UNL     1       6.617   4.322  14.013  0.00  0.00    +0.000 A 
ATOM     11  C   UNL     1       5.649   3.513  13.451  0.00  0.00    +0.000 A 
ATOM     12  C   UNL     1       5.819   3.369  12.043  0.00  0.00    +0.000 A 
ATOM     13  C   UNL     1       6.918   4.063  11.584  0.00  0.00    +0.000 A 
ATOM     14  S   UNL     1       7.715   4.905  12.842  0.00  0.00    +0.000 S 
ENDBRANCH   7  10
ENDBRANCH   2   5
BRANCH   3  15
ATOM     15  C   UNL     1       3.243   6.097  19.614  0.00  0.00    +0.000 C 
BRANCH  15  16
ATOM     16  C   UNL     1       2.421   4.877  19.909  0.00  0.00    +0.000 A 
ATOM     17  C   UNL     1       1.761   4.180  18.893  0.00  0.00    +0.000 A 
ATOM     18  C   UNL     1       1.046   3.041  19.227  0.00  0.00    +0.000 A 
ATOM     19  N   UNL     1       0.937   2.561  20.484  0.00  0.00    +0.000 NA
ATOM     20  C   UNL     1       1.566   3.257  21.454  0.00  0.00    +0.000 A 
ATOM     21  C   UNL     1       2.304   4.407  21.221  0.00  0.00    +0.000 A 
ENDBRANCH  15  16
ENDBRANCH   3  15
TORSDOF 4
ENDMDL
MODEL 3
REMARK VINA RESULT:      -6.9      0.962      1.540
REMARK  Name = 
REMARK  4 active torsions:
REMARK  status: ('A' for Active; 'I' for Inactive)
REMARK    1  A    between atoms: C_2  and  C_11
REMARK    2  A    between atoms: N_3  and  C_4
REMARK    3  A    between atoms: C_4  and  C_5
REMARK    4  A    between atoms: C_13  and  C_14
REMARK                            x       y       z     vdW  Elec       q    Type
REMARK                         _______ _______ _______ _____ _____    ______ ____
ROOT
ATOM      1  O   UNL     1       5.354   5.336  19.728  0.00  0.00    +0.000 OA
ATOM      2  C   UNL     1       4.940   5.736  18.641  0.00  0.00    +0.000 C 
ATOM      3  N   UNL     1       3.670   6.271  18.502  0.00  0.00    +0.000 N 
ATOM      4  H   UNL     1       3.342   6.475  17.562  0.00  0.00    +0.000 HD
ENDROOT
BRANCH   2   5
ATOM      5  C   UNL     1       5.708   5.671  17.415  0.00  0.00    +0.000 A 
ATOM      6  N   UNL     1       5.392   5.032  16.307  0.00  0.00    +0.000 NA
ATOM      7  C   UNL     1       6.498   5.266  15.517  0.00  0.00    +0.000 A 
ATOM      8  N   UNL     1       7.450   6.012  16.100  0.00  0.00    +0.000 NA
ATOM      9  O   UNL     1       6.921   6.289  17.360  0.00  0.00    +0.000 OA
BRANCH   7  10
ATOM     10  C   UNL     1       6.640   4.721  14.131  0.00  0.00    +0.000 A 
ATOM     11  C   UNL     1       7.612   5.112  13.233  0.00  0.00    +0.000 A 
ATOM     12  C   UNL     1       7.508   4.421  11.990  0.00  0.00    +0.000 A 
ATOM     13  C   UNL     1       6.451   3.536  11.982  0.00  0.00    +0.000 A 
ATOM     14  S   UNL     1       5.615   3.521  13.475  0.00  0.00    +0.000 S 
ENDBRANCH   7  10
ENDBRANCH   2   5
BRANCH   3  15
ATOM     15  C   UNL     1       2.731   6.246  19.596  0.00  0.00    +0.000 C 
BRANCH  15  16
ATOM     16  C   UNL     1       2.113   4.890  19.775  0.00  0.00    +0.000 A 
ATOM     17  C   UNL     1       1.609   4.170  18.688  0.00  0.00    +0.000 A 
ATOM     18  C   UNL     1       1.083   2.908  18.915  0.00  0.00    +0.000 A 
ATOM     19  N   UNL     1       1.015   2.328  20.132  0.00  0.00    +0.000 NA
ATOM     20  C   UNL     1       1.490   3.045  21.172  0.00  0.00    +0.000 A 
ATOM     21  C   UNL     1       2.034   4.313  21.047  0.00  0.00    +0.000 A 
ENDBRANCH  15  16
ENDBRANCH   3  15
TORSDOF 4
ENDMDL
MODEL 4
REMARK VINA RESULT:      -6.8      1.222      1.700
REMARK  Name = 
REMARK  4 active torsions:
REMARK  status: ('A' for Active; 'I' for Inactive)
REMARK    1  A    between atoms: C_2  and  C_11
REMARK    2  A    between atoms: N_3  and  C_4
REMARK    3  A    between atoms: C_4  and  C_5
REMARK    4  A    between atoms: C_13  and  C_14
REMARK                            x       y       z     vdW  Elec       q    Type
REMARK                         _______ _______ _______ _____ _____    ______ ____
ROOT
ATOM      1  O   UNL     1       6.327   5.161  19.734  0.00  0.00    +0.000 OA
ATOM      2  C   UNL     1       5.982   4.539  18.730  0.00  0.00    +0.000 C 
ATOM      3  N   UNL     1       5.142   3.441  18.810  0.00  0.00    +0.000 N 
ATOM      4  H   UNL     1       4.986   2.900  17.964  0.00  0.00    +0.000 HD
ENDROOT
BRANCH   2   5
ATOM      5  C   UNL     1       6.424   4.868  17.390  0.00  0.00    +0.000 A 
ATOM      6  N   UNL     1       6.151   4.216  16.277  0.00  0.00    +0.000 NA
ATOM      7  C   UNL     1       6.872   4.933  15.344  0.00  0.00    +0.000 A 
ATOM      8  N   UNL     1       7.553   5.974  15.848  0.00  0.00    +0.000 NA
ATOM      9  O   UNL     1       7.249   5.937  17.208  0.00  0.00    +0.000 OA
BRANCH   7  10
ATOM     10  C   UNL     1       6.910   4.572  13.893  0.00  0.00    +0.000 A 
ATOM     11  C   UNL     1       6.116   3.607  13.307  0.00  0.00    +0.000 A 
ATOM     12  C   UNL     1       6.364   3.482  11.908  0.00  0.00    +0.000 A 
ATOM     13  C   UNL     1       7.347   4.348  11.481  0.00  0.00    +0.000 A 
ATOM     14  S   UNL     1       7.940   5.323  12.756  0.00  0.00    +0.000 S 
ENDBRANCH   7  10
ENDBRANCH   2   5
BRANCH   3  15
ATOM     15  C   UNL     1       4.757   2.895  20.088  0.00  0.00    +0.000 C 
BRANCH  15  16
ATOM     16  C   UNL     1       3.275   2.976  20.312  0.00  0.00    +0.000 A 
ATOM     17  C   UNL     1       2.413   3.442  19.315  0.00  0.00    +0.000 A 
ATOM     18  C   UNL     1       1.051   3.460  19.572  0.00  0.00    +0.000 A 
ATOM     19  N   UNL     1       0.498   3.062  20.737  0.00  0.00    +0.000 NA
ATOM     20  C   UNL     1       1.348   2.631  21.693  0.00  0.00    +0.000 A 
ATOM     21  C   UNL     1       2.723   2.576  21.533  0.00  0.00    +0.000 A 
ENDBRANCH  15  16
ENDBRANCH   3  15
TORSDOF 4
ENDMDL
MODEL 5
REMARK VINA RESULT:      -6.8      1.302      1.413
REMARK  Name = 
REMARK  4 active torsions:
REMARK  status: ('A' for Active; 'I' for Inactive)
REMARK    1  A    between atoms: C_2  and  C_11
REMARK    2  A    between atoms: N_3  and  C_4
REMARK    3  A    between atoms: C_4  and  C_5
REMARK    4  A    between atoms: C_13  and  C_14
REMARK                            x       y       z     vdW  Elec       q    Type
REMARK                         _______ _______ _______ _____ _____    ______ ____
ROOT
ATOM      1  O   UNL     1       5.108   5.291  19.502  0.00  0.00    +0.000 OA
ATOM      2  C   UNL     1       5.406   4.446  18.658  0.00  0.00    +0.000 C 
ATOM      3  N   UNL     1       5.182   3.097  18.874  0.00  0.00    +0.000 N 
ATOM      4  H   UNL     1       5.554   2.440  18.195  0.00  0.00    +0.000 HD
ENDROOT
BRANCH   2   5
ATOM      5  C   UNL     1       6.029   4.762  17.389  0.00  0.00    +0.000 A 
ATOM      6  N   UNL     1       5.788   4.202  16.220  0.00  0.00    +0.000 NA
ATOM      7  C   UNL     1       6.696   4.844  15.405  0.00  0.00    +0.000 A 
ATOM      8  N   UNL     1       7.458   5.755  16.030  0.00  0.00    +0.000 NA
ATOM      9  O   UNL     1       7.009   5.707  17.349  0.00  0.00    +0.000 OA
BRANCH   7  10
ATOM     10  C   UNL     1       6.837   4.542  13.947  0.00  0.00    +0.000 A 
ATOM     11  C   UNL     1       6.086   3.604  13.267  0.00  0.00    +0.000 A 
ATOM     12  C   UNL     1       6.433   3.533  11.886  0.00  0.00    +0.000 A 
ATOM     13  C   UNL     1       7.446   4.410  11.565  0.00  0.00    +0.000 A 
ATOM     14  S   UNL     1       7.948   5.332  12.917  0.00  0.00    +0.000 S 
ENDBRANCH   7  10
ENDBRANCH   2   5
BRANCH   3  15
ATOM     15  C   UNL     1       4.725   2.617  20.156  0.00  0.00    +0.000 C 
BRANCH  15  16
ATOM     16  C   UNL     1       3.230   2.671  20.276  0.00  0.00    +0.000 A 
ATOM     17  C   UNL     1       2.606   2.852  21.513  0.00  0.00    +0.000 A 
ATOM     18  C   UNL     1       1.222   2.928  21.553  0.00  0.00    +0.000 A 
ATOM     19  N   UNL     1       0.431   2.829  20.464  0.00  0.00    +0.000 NA
ATOM     20  C   UNL     1       1.051   2.637  19.280  0.00  0.00    +0.000 A 
ATOM     21  C   UNL     1       2.427   2.547  19.138  0.00  0.00    +0.000 A 
ENDBRANCH  15  16
ENDBRANCH   3  15
TORSDOF 4
ENDMDL
MODEL 6
REMARK VINA RESULT:      -6.8      4.586      8.484
REMARK  Name = 
REMARK  4 active torsions:
REMARK  status: ('A' for Active; 'I' for Inactive)
REMARK    1  A    between atoms: C_2  and  C_11
REMARK    2  A    between atoms: N_3  and  C_4
REMARK    3  A    between atoms: C_4  and  C_5
REMARK    4  A    between atoms: C_13  and  C_14
REMARK                            x       y       z     vdW  Elec       q    Type
REMARK                         _______ _______ _______ _____ _____    ______ ____
ROOT
ATOM      1  O   UNL     1       3.210   5.290  20.186  0.00  0.00    +0.000 OA
ATOM      2  C   UNL     1       2.759   6.021  19.306  0.00  0.00    +0.000 C 
ATOM      3  N   UNL     1       2.855   5.685  17.965  0.00  0.00    +0.000 N 
ATOM      4  H   UNL     1       2.570   6.380  17.281  0.00  0.00    +0.000 HD
ENDROOT
BRANCH   2   5
ATOM      5  C   UNL     1       2.112   7.290  19.567  0.00  0.00    +0.000 A 
ATOM      6  N   UNL     1       1.564   7.690  20.698  0.00  0.00    +0.000 NA
ATOM      7  C   UNL     1       1.062   8.926  20.349  0.00  0.00    +0.000 A 
ATOM      8  N   UNL     1       1.286   9.278  19.074  0.00  0.00    +0.000 NA
ATOM      9  O   UNL     1       1.992   8.194  18.555  0.00  0.00    +0.000 OA
BRANCH   7  10
ATOM     10  C   UNL     1       0.312   9.799  21.305  0.00  0.00    +0.000 A 
ATOM     11  C   UNL     1      -0.295   9.350  22.461  0.00  0.00    +0.000 A 
ATOM     12  C   UNL     1      -0.932  10.405  23.179  0.00  0.00    +0.000 A 
ATOM     13  C   UNL     1      -0.798  11.617  22.538  0.00  0.00    +0.000 A 
ATOM     14  S   UNL     1       0.117  11.483  21.099  0.00  0.00    +0.000 S 
ENDBRANCH   7  10
ENDBRANCH   2   5
BRANCH   3  15
ATOM     15  C   UNL     1       3.620   4.537  17.542  0.00  0.00    +0.000 C 
BRANCH  15  16
ATOM     16  C   UNL     1       4.941   4.930  16.947  0.00  0.00    +0.000 A 
ATOM     17  C   UNL     1       5.293   4.556  15.648  0.00  0.00    +0.000 A 
ATOM     18  C   UNL     1       6.513   4.979  15.144  0.00  0.00    +0.000 A 
ATOM     19  N   UNL     1       7.395   5.729  15.838  0.00  0.00    +0.000 NA
ATOM     20  C   UNL     1       7.045   6.066  17.097  0.00  0.00    +0.000 A 
ATOM     21  C   UNL     1       5.849   5.691  17.689  0.00  0.00    +0.000 A 
ENDBRANCH  15  16
ENDBRANCH   3  15
TORSDOF 4
ENDMDL
MODEL 7
REMARK VINA RESULT:      -6.7      0.960      1.133
REMARK  Name = 
REMARK  4 active torsions:
REMARK  status: ('A' for Active; 'I' for Inactive)
REMARK    1  A    between atoms: C_2  and  C_11
REMARK    2  A    between atoms: N_3  and  C_4
REMARK    3  A    between atoms: C_4  and  C_5
REMARK    4  A    between atoms: C_13  and  C_14
REMARK                            x       y       z     vdW  Elec       q    Type
REMARK                         _______ _______ _______ _____ _____    ______ ____
ROOT
ATOM      1  O   UNL     1       5.467   5.099  19.765  0.00  0.00    +0.000 OA
ATOM      2  C   UNL     1       5.031   5.583  18.721  0.00  0.00    +0.000 C 
ATOM      3  N   UNL     1       3.762   6.134  18.652  0.00  0.00    +0.000 N 
ATOM      4  H   UNL     1       3.415   6.412  17.739  0.00  0.00    +0.000 HD
ENDROOT
BRANCH   2   5
ATOM      5  C   UNL     1       5.772   5.610  17.477  0.00  0.00    +0.000 A 
ATOM      6  N   UNL     1       5.500   4.945  16.371  0.00  0.00    +0.000 NA
ATOM      7  C   UNL     1       6.555   5.304  15.557  0.00  0.00    +0.000 A 
ATOM      8  N   UNL     1       7.433   6.147  16.124  0.00  0.00    +0.000 NA
ATOM      9  O   UNL     1       6.908   6.358  17.398  0.00  0.00    +0.000 OA
BRANCH   7  10
ATOM     10  C   UNL     1       6.721   4.785  14.164  0.00  0.00    +0.000 A 
ATOM     11  C   UNL     1       7.691   5.215  13.281  0.00  0.00    +0.000 A 
ATOM     12  C   UNL     1       7.614   4.542  12.026  0.00  0.00    +0.000 A 
ATOM     13  C   UNL     1       6.580   3.632  11.994  0.00  0.00    +0.000 A 
ATOM     14  S   UNL     1       5.732   3.572  13.479  0.00  0.00    +0.000 S 
ENDBRANCH   7  10
ENDBRANCH   2   5
BRANCH   3  15
ATOM     15  C   UNL     1       2.847   6.028  19.762  0.00  0.00    +0.000 C 
BRANCH  15  16
ATOM     16  C   UNL     1       2.171   4.689  19.808  0.00  0.00    +0.000 A 
ATOM     17  C   UNL     1       1.992   4.005  21.014  0.00  0.00    +0.000 A 
ATOM     18  C   UNL     1       1.329   2.788  20.993  0.00  0.00    +0.000 A 
ATOM     19  N   UNL     1       0.850   2.210  19.872  0.00  0.00    +0.000 NA
ATOM     20  C   UNL     1       1.047   2.877  18.715  0.00  0.00    +0.000 A 
ATOM     21  C   UNL     1       1.698   4.098  18.632  0.00  0.00    +0.000 A 
ENDBRANCH  15  16
ENDBRANCH   3  15
TORSDOF 4
ENDMDL
MODEL 8
REMARK VINA RESULT:      -6.6      4.353      7.857
REMARK  Name = 
REMARK  4 active torsions:
REMARK  status: ('A' for Active; 'I' for Inactive)
REMARK    1  A    between atoms: C_2  and  C_11
REMARK    2  A    between atoms: N_3  and  C_4
REMARK    3  A    between atoms: C_4  and  C_5
REMARK    4  A    between atoms: C_13  and  C_14
REMARK                            x       y       z     vdW  Elec       q    Type
REMARK                         _______ _______ _______ _____ _____    ______ ____
ROOT
ATOM      1  O   UNL     1       3.619   5.700  19.869  0.00  0.00    +0.000 OA
ATOM      2  C   UNL     1       3.098   6.132  18.841  0.00  0.00    +0.000 C 
ATOM      3  N   UNL     1       3.063   5.383  17.676  0.00  0.00    +0.000 N 
ATOM      4  H   UNL     1       2.726   5.836  16.832  0.00  0.00    +0.000 HD
ENDROOT
BRANCH   2   5
ATOM      5  C   UNL     1       2.499   7.446  18.735  0.00  0.00    +0.000 A 
ATOM      6  N   UNL     1       1.765   8.065  19.639  0.00  0.00    +0.000 NA
ATOM      7  C   UNL     1       1.426   9.230  18.981  0.00  0.00    +0.000 A 
ATOM      8  N   UNL     1       1.922   9.331  17.738  0.00  0.00    +0.000 NA
ATOM      9  O   UNL     1       2.643   8.149  17.576  0.00  0.00    +0.000 OA
BRANCH   7  10
ATOM     10  C   UNL     1       0.562  10.287  19.591  0.00  0.00    +0.000 A 
ATOM     11  C   UNL     1      -0.092  10.160  20.801  0.00  0.00    +0.000 A 
ATOM     12  C   UNL     1      -0.840  11.327  21.134  0.00  0.00    +0.000 A 
ATOM     13  C   UNL     1      -0.739  12.298  20.161  0.00  0.00    +0.000 A 
ATOM     14  S   UNL     1       0.276  11.810  18.873  0.00  0.00    +0.000 S 
ENDBRANCH   7  10
ENDBRANCH   2   5
BRANCH   3  15
ATOM     15  C   UNL     1       3.766   4.127  17.581  0.00  0.00    +0.000 C 
BRANCH  15  16
ATOM     16  C   UNL     1       5.154   4.300  17.037  0.00  0.00    +0.000 A 
ATOM     17  C   UNL     1       6.246   4.515  17.883  0.00  0.00    +0.000 A 
ATOM     18  C   UNL     1       7.507   4.631  17.320  0.00  0.00    +0.000 A 
ATOM     19  N   UNL     1       7.750   4.560  15.995  0.00  0.00    +0.000 NA
ATOM     20  C   UNL     1       6.682   4.369  15.193  0.00  0.00    +0.000 A 
ATOM     21  C   UNL     1       5.383   4.241  15.659  0.00  0.00    +0.000 A 
ENDBRANCH  15  16
ENDBRANCH   3  15
TORSDOF 4
ENDMDL
MODEL 9
REMARK VINA RESULT:      -6.6      2.810      7.257
REMARK  Name = 
REMARK  4 active torsions:
REMARK  status: ('A' for Active; 'I' for Inactive)
REMARK    1  A    between atoms: C_2  and  C_11
REMARK    2  A    between atoms: N_3  and  C_4
REMARK    3  A    between atoms: C_4  and  C_5
REMARK    4  A    between atoms: C_13  and  C_14
REMARK                            x       y       z     vdW  Elec       q    Type
REMARK                         _______ _______ _______ _____ _____    ______ ____
ROOT
ATOM      1  O   UNL     1       7.959   4.498  16.549  0.00  0.00    +0.000 OA
ATOM      2  C   UNL     1       6.730   4.454  16.505  0.00  0.00    +0.000 C 
ATOM      3  N   UNL     1       6.051   4.370  15.300  0.00  0.00    +0.000 N 
ATOM      4  H   UNL     1       5.039   4.455  15.320  0.00  0.00    +0.000 HD
ENDROOT
BRANCH   2   5
ATOM      5  C   UNL     1       5.881   4.505  17.677  0.00  0.00    +0.000 A 
ATOM      6  N   UNL     1       4.743   3.868  17.867  0.00  0.00    +0.000 NA
ATOM      7  C   UNL     1       4.359   4.336  19.107  0.00  0.00    +0.000 A 
ATOM      8  N   UNL     1       5.212   5.213  19.659  0.00  0.00    +0.000 NA
ATOM      9  O   UNL     1       6.229   5.320  18.712  0.00  0.00    +0.000 OA
BRANCH   7  10
ATOM     10  C   UNL     1       3.090   3.917  19.778  0.00  0.00    +0.000 A 
ATOM     11  C   UNL     1       1.839   4.406  19.458  0.00  0.00    +0.000 A 
ATOM     12  C   UNL     1       0.812   3.823  20.258  0.00  0.00    +0.000 A 
ATOM     13  C   UNL     1       1.319   2.921  21.168  0.00  0.00    +0.000 A 
ATOM     14  S   UNL     1       3.016   2.758  21.031  0.00  0.00    +0.000 S 
ENDBRANCH   7  10
ENDBRANCH   2   5
BRANCH   3  15
ATOM     15  C   UNL     1       6.753   4.479  14.045  0.00  0.00    +0.000 C 
BRANCH  15  16
ATOM     16  C   UNL     1       6.091   3.681  12.960  0.00  0.00    +0.000 A 
ATOM     17  C   UNL     1       4.775   3.937  12.567  0.00  0.00    +0.000 A 
ATOM     18  C   UNL     1       4.233   3.187  11.535  0.00  0.00    +0.000 A 
ATOM     19  N   UNL     1       4.898   2.209  10.884  0.00  0.00    +0.000 NA
ATOM     20  C   UNL     1       6.163   1.965  11.289  0.00  0.00    +0.000 A 
ATOM     21  C   UNL     1       6.791   2.659  12.311  0.00  0.00    +0.000 A 
ENDBRANCH  15  16
ENDBRANCH   3  15
TORSDOF 4
ENDMDL
