MODEL 1
REMARK VINA RESULT:      -7.4      0.000      0.000
REMARK  Name = 
REMARK  7 active torsions:
REMARK  status: ('A' for Active; 'I' for Inactive)
REMARK    1  A    between atoms: C_1  and  C_2
REMARK    2  A    between atoms: C_2  and  O_3
REMARK    3  A    between atoms: O_3  and  C_4
REMARK    4  A    between atoms: C_6  and  C_7
REMARK    5  A    between atoms: N_8  and  N_9
REMARK    6  A    between atoms: C_10  and  C_12
REMARK    7  A    between atoms: C_18  and  O_19
REMARK                            x       y       z     vdW  Elec       q    Type
REMARK                         _______ _______ _______ _____ _____    ______ ____
ROOT
ATOM      1  C   UNL     1       6.873   5.805  16.122  0.00  0.00    +0.000 A 
ATOM      2  C   UNL     1       5.805   5.405  16.936  0.00  0.00    +0.000 A 
ATOM      3  C   UNL     1       4.888   4.455  16.487  0.00  0.00    +0.000 A 
ATOM      4  C   UNL     1       5.010   3.893  15.216  0.00  0.00    +0.000 A 
ATOM      5  C   UNL     1       6.063   4.289  14.395  0.00  0.00    +0.000 A 
ATOM      6 BR   UNL     1       6.211   3.511  12.672  0.00  0.00    +0.000 Br
ATOM      7  C   UNL     1       6.994   5.240  14.842  0.00  0.00    +0.000 A 
ENDROOT
BRANCH   3   8
ATOM      8  C   UNL     1       3.797   4.055  17.397  0.00  0.00    +0.000 C 
ATOM      9  N   UNL     1       3.713   4.579  18.573  0.00  0.00    +0.000 NA
BRANCH   9  10
ATOM     10  N   UNL     1       2.679   4.171  19.352  0.00  0.00    +0.000 N 
ATOM     11  C   UNL     1       2.885   3.135  20.245  0.00  0.00    +0.000 C 
ATOM     12  O   UNL     1       3.911   2.500  20.445  0.00  0.00    +0.000 OA
ATOM     13  H   UNL     1       1.762   4.610  19.303  0.00  0.00    +0.000 HD
BRANCH  11  14
ATOM     14  C   UNL     1       1.628   2.792  21.060  0.00  0.00    +0.000 C 
ATOM     15  N   UNL     1       0.452   3.012  20.395  0.00  0.00    +0.000 N 
ATOM     16  O   UNL     1       1.710   2.363  22.201  0.00  0.00    +0.000 OA
ATOM     17  H   UNL     1       0.484   3.372  19.444  0.00  0.00    +0.000 HD
ATOM     18  H   UNL     1      -0.434   2.824  20.838  0.00  0.00    +0.000 HD
ENDBRANCH  11  14
ENDBRANCH   9  10
ENDBRANCH   3   8
BRANCH   7  19
ATOM     19  O   UNL     1       8.038   5.625  14.036  0.00  0.00    +0.000 OA
ATOM     20  H   UNL     1       7.847   5.315  13.132  0.00  0.00    +0.000 HD
ENDBRANCH   7  19
BRANCH   1  21
ATOM     21  O   UNL     1       7.820   6.727  16.512  0.00  0.00    +0.000 OA
BRANCH  21  23
ATOM     22  C   UNL     1       8.101   8.762  17.804  0.00  0.00    +0.000 C 
ATOM     23  C   UNL     1       7.605   7.331  17.789  0.00  0.00    +0.000 C 
ENDBRANCH  21  23
ENDBRANCH   1  21
TORSDOF 6
ENDMDL
MODEL 2
REMARK VINA RESULT:      -6.9      1.166      1.209
REMARK  Name = 
REMARK  7 active torsions:
REMARK  status: ('A' for Active; 'I' for Inactive)
REMARK    1  A    between atoms: C_1  and  C_2
REMARK    2  A    between atoms: C_2  and  O_3
REMARK    3  A    between atoms: O_3  and  C_4
REMARK    4  A    between atoms: C_6  and  C_7
REMARK    5  A    between atoms: N_8  and  N_9
REMARK    6  A    between atoms: C_10  and  C_12
REMARK    7  A    between atoms: C_18  and  O_19
REMARK                            x       y       z     vdW  Elec       q    Type
REMARK                         _______ _______ _______ _____ _____    ______ ____
ROOT
ATOM      1  C   UNL     1       6.908   5.633  15.893  0.00  0.00    +0.000 A 
ATOM      2  C   UNL     1       5.888   5.128  16.710  0.00  0.00    +0.000 A 
ATOM      3  C   UNL     1       5.032   4.131  16.242  0.00  0.00    +0.000 A 
ATOM      4  C   UNL     1       5.167   3.625  14.950  0.00  0.00    +0.000 A 
ATOM      5  C   UNL     1       6.173   4.126  14.125  0.00  0.00    +0.000 A 
ATOM      6 BR   UNL     1       6.341   3.423  12.372  0.00  0.00    +0.000 Br
ATOM      7  C   UNL     1       7.041   5.125  14.590  0.00  0.00    +0.000 A 
ENDROOT
BRANCH   3   8
ATOM      8  C   UNL     1       3.992   3.621  17.157  0.00  0.00    +0.000 C 
ATOM      9  N   UNL     1       4.272   3.404  18.397  0.00  0.00    +0.000 NA
BRANCH   9  10
ATOM     10  N   UNL     1       3.264   2.945  19.181  0.00  0.00    +0.000 N 
ATOM     11  C   UNL     1       2.691   3.803  20.101  0.00  0.00    +0.000 C 
ATOM     12  O   UNL     1       2.973   4.972  20.325  0.00  0.00    +0.000 OA
ATOM     13  H   UNL     1       2.914   1.992  19.105  0.00  0.00    +0.000 HD
BRANCH  11  14
ATOM     14  C   UNL     1       1.561   3.145  20.908  0.00  0.00    +0.000 C 
ATOM     15  N   UNL     1       1.933   2.731  22.159  0.00  0.00    +0.000 N 
ATOM     16  O   UNL     1       0.439   3.017  20.441  0.00  0.00    +0.000 OA
ATOM     17  H   UNL     1       2.893   2.881  22.461  0.00  0.00    +0.000 HD
ATOM     18  H   UNL     1       1.271   2.283  22.772  0.00  0.00    +0.000 HD
ENDBRANCH  11  14
ENDBRANCH   9  10
ENDBRANCH   3   8
BRANCH   7  19
ATOM     19  O   UNL     1       8.039   5.613  13.781  0.00  0.00    +0.000 OA
ATOM     20  H   UNL     1       8.604   6.194  14.323  0.00  0.00    +0.000 HD
ENDBRANCH   7  19
BRANCH   1  21
ATOM     21  O   UNL     1       7.793   6.607  16.299  0.00  0.00    +0.000 OA
BRANCH  21  23
ATOM     22  C   UNL     1       8.098   6.827  18.696  0.00  0.00    +0.000 C 
ATOM     23  C   UNL     1       7.406   7.351  17.456  0.00  0.00    +0.000 C 
ENDBRANCH  21  23
ENDBRANCH   1  21
TORSDOF 6
ENDMDL
MODEL 3
REMARK VINA RESULT:      -6.4      5.865      7.191
REMARK  Name = 
REMARK  7 active torsions:
REMARK  status: ('A' for Active; 'I' for Inactive)
REMARK    1  A    between atoms: C_1  and  C_2
REMARK    2  A    between atoms: C_2  and  O_3
REMARK    3  A    between atoms: O_3  and  C_4
REMARK    4  A    between atoms: C_6  and  C_7
REMARK    5  A    between atoms: N_8  and  N_9
REMARK    6  A    between atoms: C_10  and  C_12
REMARK    7  A    between atoms: C_18  and  O_19
REMARK                            x       y       z     vdW  Elec       q    Type
REMARK                         _______ _______ _______ _____ _____    ______ ____
ROOT
ATOM      1  C   UNL     1       2.999   5.409  19.621  0.00  0.00    +0.000 A 
ATOM      2  C   UNL     1       2.275   6.602  19.737  0.00  0.00    +0.000 A 
ATOM      3  C   UNL     1       2.420   7.616  18.790  0.00  0.00    +0.000 A 
ATOM      4  C   UNL     1       3.297   7.466  17.716  0.00  0.00    +0.000 A 
ATOM      5  C   UNL     1       4.029   6.286  17.595  0.00  0.00    +0.000 A 
ATOM      6 BR   UNL     1       5.214   6.102  16.125  0.00  0.00    +0.000 Br
ATOM      7  C   UNL     1       3.883   5.259  18.540  0.00  0.00    +0.000 A 
ENDROOT
BRANCH   3   8
ATOM      8  C   UNL     1       1.613   8.841  18.951  0.00  0.00    +0.000 C 
ATOM      9  N   UNL     1       1.154   9.453  17.912  0.00  0.00    +0.000 NA
BRANCH   9  10
ATOM     10  N   UNL     1       0.413  10.567  18.136  0.00  0.00    +0.000 N 
ATOM     11  C   UNL     1      -0.939  10.538  17.845  0.00  0.00    +0.000 C 
ATOM     12  O   UNL     1      -1.596   9.612  17.391  0.00  0.00    +0.000 OA
ATOM     13  H   UNL     1       0.820  11.417  18.519  0.00  0.00    +0.000 HD
BRANCH  11  14
ATOM     14  C   UNL     1      -1.645  11.867  18.157  0.00  0.00    +0.000 C 
ATOM     15  N   UNL     1      -1.030  12.967  17.622  0.00  0.00    +0.000 N 
ATOM     16  O   UNL     1      -2.665  11.901  18.829  0.00  0.00    +0.000 OA
ATOM     17  H   UNL     1      -0.182  12.840  17.075  0.00  0.00    +0.000 HD
ATOM     18  H   UNL     1      -1.408  13.890  17.769  0.00  0.00    +0.000 HD
ENDBRANCH  11  14
ENDBRANCH   9  10
ENDBRANCH   3   8
BRANCH   7  19
ATOM     19  O   UNL     1       4.598   4.092  18.417  0.00  0.00    +0.000 OA
ATOM     20  H   UNL     1       4.739   3.734  19.313  0.00  0.00    +0.000 HD
ENDBRANCH   7  19
BRANCH   1  21
ATOM     21  O   UNL     1       2.890   4.365  20.514  0.00  0.00    +0.000 OA
BRANCH  21  23
ATOM     22  C   UNL     1       0.924   3.180  19.726  0.00  0.00    +0.000 C 
ATOM     23  C   UNL     1       1.557   3.975  20.849  0.00  0.00    +0.000 C 
ENDBRANCH  21  23
ENDBRANCH   1  21
TORSDOF 6
ENDMDL
MODEL 4
REMARK VINA RESULT:      -6.4      4.871      5.876
REMARK  Name = 
REMARK  7 active torsions:
REMARK  status: ('A' for Active; 'I' for Inactive)
REMARK    1  A    between atoms: C_1  and  C_2
REMARK    2  A    between atoms: C_2  and  O_3
REMARK    3  A    between atoms: O_3  and  C_4
REMARK    4  A    between atoms: C_6  and  C_7
REMARK    5  A    between atoms: N_8  and  N_9
REMARK    6  A    between atoms: C_10  and  C_12
REMARK    7  A    between atoms: C_18  and  O_19
REMARK                            x       y       z     vdW  Elec       q    Type
REMARK                         _______ _______ _______ _____ _____    ______ ____
ROOT
ATOM      1  C   UNL     1       4.689   4.398  19.121  0.00  0.00    +0.000 A 
ATOM      2  C   UNL     1       4.172   5.673  19.387  0.00  0.00    +0.000 A 
ATOM      3  C   UNL     1       2.795   5.876  19.472  0.00  0.00    +0.000 A 
ATOM      4  C   UNL     1       1.906   4.818  19.282  0.00  0.00    +0.000 A 
ATOM      5  C   UNL     1       2.409   3.548  19.009  0.00  0.00    +0.000 A 
ATOM      6 BR   UNL     1       1.183   2.123  18.756  0.00  0.00    +0.000 Br
ATOM      7  C   UNL     1       3.794   3.334  18.928  0.00  0.00    +0.000 A 
ENDROOT
BRANCH   3   8
ATOM      8  C   UNL     1       2.309   7.236  19.778  0.00  0.00    +0.000 C 
ATOM      9  N   UNL     1       1.683   7.464  20.882  0.00  0.00    +0.000 NA
BRANCH   9  10
ATOM     10  N   UNL     1       1.273   8.739  21.102  0.00  0.00    +0.000 N 
ATOM     11  C   UNL     1       0.000   8.954  21.598  0.00  0.00    +0.000 C 
ATOM     12  O   UNL     1      -0.853   8.125  21.880  0.00  0.00    +0.000 OA
ATOM     13  H   UNL     1       1.877   9.537  20.920  0.00  0.00    +0.000 HD
BRANCH  11  14
ATOM     14  C   UNL     1      -0.317  10.444  21.801  0.00  0.00    +0.000 C 
ATOM     15  N   UNL     1      -0.727  11.089  20.665  0.00  0.00    +0.000 N 
ATOM     16  O   UNL     1      -0.200  10.974  22.895  0.00  0.00    +0.000 OA
ATOM     17  H   UNL     1      -0.794  10.563  19.797  0.00  0.00    +0.000 HD
ATOM     18  H   UNL     1      -0.957  12.070  20.685  0.00  0.00    +0.000 HD
ENDBRANCH  11  14
ENDBRANCH   9  10
ENDBRANCH   3   8
BRANCH   7  19
ATOM     19  O   UNL     1       4.291   2.080  18.667  0.00  0.00    +0.000 OA
ATOM     20  H   UNL     1       4.430   2.010  17.705  0.00  0.00    +0.000 HD
ENDBRANCH   7  19
BRANCH   1  21
ATOM     21  O   UNL     1       6.038   4.129  19.039  0.00  0.00    +0.000 OA
BRANCH  21  23
ATOM     22  C   UNL     1       7.186   4.596  16.953  0.00  0.00    +0.000 C 
ATOM     23  C   UNL     1       6.820   5.096  18.334  0.00  0.00    +0.000 C 
ENDBRANCH  21  23
ENDBRANCH   1  21
TORSDOF 6
ENDMDL
MODEL 5
REMARK VINA RESULT:      -6.4      5.760      7.221
REMARK  Name = 
REMARK  7 active torsions:
REMARK  status: ('A' for Active; 'I' for Inactive)
REMARK    1  A    between atoms: C_1  and  C_2
REMARK    2  A    between atoms: C_2  and  O_3
REMARK    3  A    between atoms: O_3  and  C_4
REMARK    4  A    between atoms: C_6  and  C_7
REMARK    5  A    between atoms: N_8  and  N_9
REMARK    6  A    between atoms: C_10  and  C_12
REMARK    7  A    between atoms: C_18  and  O_19
REMARK                            x       y       z     vdW  Elec       q    Type
REMARK                         _______ _______ _______ _____ _____    ______ ____
ROOT
ATOM      1  C   UNL     1       2.917   5.646  19.626  0.00  0.00    +0.000 A 
ATOM      2  C   UNL     1       2.321   6.849  19.224  0.00  0.00    +0.000 A 
ATOM      3  C   UNL     1       2.820   7.558  18.132  0.00  0.00    +0.000 A 
ATOM      4  C   UNL     1       3.929   7.090  17.426  0.00  0.00    +0.000 A 
ATOM      5  C   UNL     1       4.535   5.900  17.822  0.00  0.00    +0.000 A 
ATOM      6 BR   UNL     1       6.039   5.281  16.847  0.00  0.00    +0.000 Br
ATOM      7  C   UNL     1       4.035   5.178  18.916  0.00  0.00    +0.000 A 
ENDROOT
BRANCH   3   8
ATOM      8  C   UNL     1       2.136   8.806  17.739  0.00  0.00    +0.000 C 
ATOM      9  N   UNL     1       1.183   9.276  18.470  0.00  0.00    +0.000 NA
BRANCH   9  10
ATOM     10  N   UNL     1       0.606  10.432  18.053  0.00  0.00    +0.000 N 
ATOM     11  C   UNL     1      -0.026  11.235  18.985  0.00  0.00    +0.000 C 
ATOM     12  O   UNL     1      -0.150  11.047  20.187  0.00  0.00    +0.000 OA
ATOM     13  H   UNL     1       0.633  10.727  17.080  0.00  0.00    +0.000 HD
BRANCH  11  14
ATOM     14  C   UNL     1      -0.622  12.510  18.367  0.00  0.00    +0.000 C 
ATOM     15  N   UNL     1      -1.508  12.277  17.350  0.00  0.00    +0.000 N 
ATOM     16  O   UNL     1      -0.309  13.618  18.774  0.00  0.00    +0.000 OA
ATOM     17  H   UNL     1      -1.707  11.317  17.080  0.00  0.00    +0.000 HD
ATOM     18  H   UNL     1      -1.956  13.043  16.871  0.00  0.00    +0.000 HD
ENDBRANCH  11  14
ENDBRANCH   9  10
ENDBRANCH   3   8
BRANCH   7  19
ATOM     19  O   UNL     1       4.626   3.999  19.303  0.00  0.00    +0.000 OA
ATOM     20  H   UNL     1       4.487   3.349  18.589  0.00  0.00    +0.000 HD
ENDBRANCH   7  19
BRANCH   1  21
ATOM     21  O   UNL     1       2.464   4.892  20.686  0.00  0.00    +0.000 OA
BRANCH  21  23
ATOM     22  C   UNL     1       1.050   3.127  19.807  0.00  0.00    +0.000 C 
ATOM     23  C   UNL     1       1.117   4.426  20.582  0.00  0.00    +0.000 C 
ENDBRANCH  21  23
ENDBRANCH   1  21
TORSDOF 6
ENDMDL
MODEL 6
REMARK VINA RESULT:      -6.4      5.293      6.659
REMARK  Name = 
REMARK  7 active torsions:
REMARK  status: ('A' for Active; 'I' for Inactive)
REMARK    1  A    between atoms: C_1  and  C_2
REMARK    2  A    between atoms: C_2  and  O_3
REMARK    3  A    between atoms: O_3  and  C_4
REMARK    4  A    between atoms: C_6  and  C_7
REMARK    5  A    between atoms: N_8  and  N_9
REMARK    6  A    between atoms: C_10  and  C_12
REMARK    7  A    between atoms: C_18  and  O_19
REMARK                            x       y       z     vdW  Elec       q    Type
REMARK                         _______ _______ _______ _____ _____    ______ ____
ROOT
ATOM      1  C   UNL     1       4.077   4.397  17.406  0.00  0.00    +0.000 A 
ATOM      2  C   UNL     1       3.962   5.789  17.300  0.00  0.00    +0.000 A 
ATOM      3  C   UNL     1       3.039   6.487  18.079  0.00  0.00    +0.000 A 
ATOM      4  C   UNL     1       2.204   5.811  18.969  0.00  0.00    +0.000 A 
ATOM      5  C   UNL     1       2.304   4.425  19.077  0.00  0.00    +0.000 A 
ATOM      6 BR   UNL     1       1.161   3.526  20.295  0.00  0.00    +0.000 Br
ATOM      7  C   UNL     1       3.235   3.717  18.301  0.00  0.00    +0.000 A 
ENDROOT
BRANCH   3   8
ATOM      8  C   UNL     1       2.980   7.955  17.943  0.00  0.00    +0.000 C 
ATOM      9  N   UNL     1       1.840   8.546  17.820  0.00  0.00    +0.000 NA
BRANCH   9  10
ATOM     10  N   UNL     1       1.861   9.899  17.709  0.00  0.00    +0.000 N 
ATOM     11  C   UNL     1       1.391  10.662  18.762  0.00  0.00    +0.000 C 
ATOM     12  O   UNL     1       0.935  10.279  19.831  0.00  0.00    +0.000 OA
ATOM     13  H   UNL     1       2.219  10.366  16.879  0.00  0.00    +0.000 HD
BRANCH  11  14
ATOM     14  C   UNL     1       1.485  12.172  18.493  0.00  0.00    +0.000 C 
ATOM     15  N   UNL     1       2.440  12.519  17.575  0.00  0.00    +0.000 N 
ATOM     16  O   UNL     1       0.756  12.965  19.069  0.00  0.00    +0.000 OA
ATOM     17  H   UNL     1       3.001  11.786  17.148  0.00  0.00    +0.000 HD
ATOM     18  H   UNL     1       2.589  13.485  17.327  0.00  0.00    +0.000 HD
ENDBRANCH  11  14
ENDBRANCH   9  10
ENDBRANCH   3   8
BRANCH   7  19
ATOM     19  O   UNL     1       3.340   2.352  18.412  0.00  0.00    +0.000 OA
ATOM     20  H   UNL     1       3.965   2.160  19.135  0.00  0.00    +0.000 HD
ENDBRANCH   7  19
BRANCH   1  21
ATOM     21  O   UNL     1       4.977   3.652  16.676  0.00  0.00    +0.000 OA
BRANCH  21  23
ATOM     22  C   UNL     1       6.094   4.040  14.556  0.00  0.00    +0.000 C 
ATOM     23  C   UNL     1       6.011   4.396  16.026  0.00  0.00    +0.000 C 
ENDBRANCH  21  23
ENDBRANCH   1  21
TORSDOF 6
ENDMDL
MODEL 7
REMARK VINA RESULT:      -6.3      5.160      6.562
REMARK  Name = 
REMARK  7 active torsions:
REMARK  status: ('A' for Active; 'I' for Inactive)
REMARK    1  A    between atoms: C_1  and  C_2
REMARK    2  A    between atoms: C_2  and  O_3
REMARK    3  A    between atoms: O_3  and  C_4
REMARK    4  A    between atoms: C_6  and  C_7
REMARK    5  A    between atoms: N_8  and  N_9
REMARK    6  A    between atoms: C_10  and  C_12
REMARK    7  A    between atoms: C_18  and  O_19
REMARK                            x       y       z     vdW  Elec       q    Type
REMARK                         _______ _______ _______ _____ _____    ______ ____
ROOT
ATOM      1  C   UNL     1       3.716   4.628  19.198  0.00  0.00    +0.000 A 
ATOM      2  C   UNL     1       2.769   5.627  18.940  0.00  0.00    +0.000 A 
ATOM      3  C   UNL     1       3.085   6.709  18.119  0.00  0.00    +0.000 A 
ATOM      4  C   UNL     1       4.352   6.824  17.548  0.00  0.00    +0.000 A 
ATOM      5  C   UNL     1       5.305   5.840  17.804  0.00  0.00    +0.000 A 
ATOM      6 BR   UNL     1       7.022   6.013  17.017  0.00  0.00    +0.000 Br
ATOM      7  C   UNL     1       4.993   4.745  18.625  0.00  0.00    +0.000 A 
ENDROOT
BRANCH   3   8
ATOM      8  C   UNL     1       2.039   7.719  17.863  0.00  0.00    +0.000 C 
ATOM      9  N   UNL     1       2.263   8.961  18.128  0.00  0.00    +0.000 NA
BRANCH   9  10
ATOM     10  N   UNL     1       1.260   9.835  17.859  0.00  0.00    +0.000 N 
ATOM     11  C   UNL     1       0.518  10.343  18.910  0.00  0.00    +0.000 C 
ATOM     12  O   UNL     1       0.637  10.108  20.104  0.00  0.00    +0.000 OA
ATOM     13  H   UNL     1       1.044  10.132  16.910  0.00  0.00    +0.000 HD
BRANCH  11  14
ATOM     14  C   UNL     1      -0.574  11.322  18.451  0.00  0.00    +0.000 C 
ATOM     15  N   UNL     1      -0.111  12.575  18.148  0.00  0.00    +0.000 N 
ATOM     16  O   UNL     1      -1.743  10.979  18.376  0.00  0.00    +0.000 OA
ATOM     17  H   UNL     1       0.883  12.768  18.242  0.00  0.00    +0.000 HD
ATOM     18  H   UNL     1      -0.744  13.297  17.841  0.00  0.00    +0.000 HD
ENDBRANCH  11  14
ENDBRANCH   9  10
ENDBRANCH   3   8
BRANCH   7  19
ATOM     19  O   UNL     1       5.929   3.769  18.872  0.00  0.00    +0.000 OA
ATOM     20  H   UNL     1       6.645   3.873  18.219  0.00  0.00    +0.000 HD
ENDBRANCH   7  19
BRANCH   1  21
ATOM     21  O   UNL     1       3.462   3.528  19.988  0.00  0.00    +0.000 OA
BRANCH  21  23
ATOM     22  C   UNL     1       1.567   2.970  21.397  0.00  0.00    +0.000 C 
ATOM     23  C   UNL     1       2.111   3.065  19.987  0.00  0.00    +0.000 C 
ENDBRANCH  21  23
ENDBRANCH   1  21
TORSDOF 6
ENDMDL
MODEL 8
REMARK VINA RESULT:      -6.3      5.082      5.954
REMARK  Name = 
REMARK  7 active torsions:
REMARK  status: ('A' for Active; 'I' for Inactive)
REMARK    1  A    between atoms: C_1  and  C_2
REMARK    2  A    between atoms: C_2  and  O_3
REMARK    3  A    between atoms: O_3  and  C_4
REMARK    4  A    between atoms: C_6  and  C_7
REMARK    5  A    between atoms: N_8  and  N_9
REMARK    6  A    between atoms: C_10  and  C_12
REMARK    7  A    between atoms: C_18  and  O_19
REMARK                            x       y       z     vdW  Elec       q    Type
REMARK                         _______ _______ _______ _____ _____    ______ ____
ROOT
ATOM      1  C   UNL     1       5.070   4.732  19.002  0.00  0.00    +0.000 A 
ATOM      2  C   UNL     1       4.403   5.905  18.625  0.00  0.00    +0.000 A 
ATOM      3  C   UNL     1       3.023   5.903  18.422  0.00  0.00    +0.000 A 
ATOM      4  C   UNL     1       2.282   4.731  18.579  0.00  0.00    +0.000 A 
ATOM      5  C   UNL     1       2.936   3.557  18.946  0.00  0.00    +0.000 A 
ATOM      6 BR   UNL     1       1.910   1.976  19.156  0.00  0.00    +0.000 Br
ATOM      7  C   UNL     1       4.323   3.553  19.158  0.00  0.00    +0.000 A 
ENDROOT
BRANCH   3   8
ATOM      8  C   UNL     1       2.371   7.174  18.050  0.00  0.00    +0.000 C 
ATOM      9  N   UNL     1       2.261   8.121  18.918  0.00  0.00    +0.000 NA
BRANCH   9  10
ATOM     10  N   UNL     1       1.659   9.264  18.503  0.00  0.00    +0.000 N 
ATOM     11  C   UNL     1       0.664   9.818  19.288  0.00  0.00    +0.000 C 
ATOM     12  O   UNL     1       0.223   9.407  20.352  0.00  0.00    +0.000 OA
ATOM     13  H   UNL     1       1.924   9.729  17.637  0.00  0.00    +0.000 HD
BRANCH  11  14
ATOM     14  C   UNL     1       0.084  11.111  18.693  0.00  0.00    +0.000 C 
ATOM     15  N   UNL     1       1.027  12.044  18.357  0.00  0.00    +0.000 N 
ATOM     16  O   UNL     1      -1.120  11.258  18.549  0.00  0.00    +0.000 OA
ATOM     17  H   UNL     1       2.009  11.831  18.515  0.00  0.00    +0.000 HD
ATOM     18  H   UNL     1       0.756  12.931  17.962  0.00  0.00    +0.000 HD
ENDBRANCH  11  14
ENDBRANCH   9  10
ENDBRANCH   3   8
BRANCH   7  19
ATOM     19  O   UNL     1       4.969   2.397  19.528  0.00  0.00    +0.000 OA
ATOM     20  H   UNL     1       5.888   2.454  19.207  0.00  0.00    +0.000 HD
ENDBRANCH   7  19
BRANCH   1  21
ATOM     21  O   UNL     1       6.427   4.672  19.231  0.00  0.00    +0.000 OA
BRANCH  21  23
ATOM     22  C   UNL     1       7.960   6.477  18.701  0.00  0.00    +0.000 C 
ATOM     23  C   UNL     1       7.252   5.232  18.208  0.00  0.00    +0.000 C 
ENDBRANCH  21  23
ENDBRANCH   1  21
TORSDOF 6
ENDMDL
MODEL 9
REMARK VINA RESULT:      -6.3      5.922      6.758
REMARK  Name = 
REMARK  7 active torsions:
REMARK  status: ('A' for Active; 'I' for Inactive)
REMARK    1  A    between atoms: C_1  and  C_2
REMARK    2  A    between atoms: C_2  and  O_3
REMARK    3  A    between atoms: O_3  and  C_4
REMARK    4  A    between atoms: C_6  and  C_7
REMARK    5  A    between atoms: N_8  and  N_9
REMARK    6  A    between atoms: C_10  and  C_12
REMARK    7  A    between atoms: C_18  and  O_19
REMARK                            x       y       z     vdW  Elec       q    Type
REMARK                         _______ _______ _______ _____ _____    ______ ____
ROOT
ATOM      1  C   UNL     1       4.656   5.799  17.831  0.00  0.00    +0.000 A 
ATOM      2  C   UNL     1       4.043   7.013  17.494  0.00  0.00    +0.000 A 
ATOM      3  C   UNL     1       2.907   7.448  18.176  0.00  0.00    +0.000 A 
ATOM      4  C   UNL     1       2.353   6.679  19.200  0.00  0.00    +0.000 A 
ATOM      5  C   UNL     1       2.950   5.466  19.538  0.00  0.00    +0.000 A 
ATOM      6 BR   UNL     1       2.182   4.437  20.934  0.00  0.00    +0.000 Br
ATOM      7  C   UNL     1       4.096   5.024  18.860  0.00  0.00    +0.000 A 
ENDROOT
BRANCH   3   8
ATOM      8  C   UNL     1       2.318   8.746  17.793  0.00  0.00    +0.000 C 
ATOM      9  N   UNL     1       1.233   9.154  18.358  0.00  0.00    +0.000 NA
BRANCH   9  10
ATOM     10  N   UNL     1       0.754  10.361  17.963  0.00  0.00    +0.000 N 
ATOM     11  C   UNL     1       0.086  11.147  18.884  0.00  0.00    +0.000 C 
ATOM     12  O   UNL     1      -0.149  10.903  20.059  0.00  0.00    +0.000 OA
ATOM     13  H   UNL     1       0.879  10.706  17.014  0.00  0.00    +0.000 HD
BRANCH  11  14
ATOM     14  C   UNL     1      -0.389  12.484  18.294  0.00  0.00    +0.000 C 
ATOM     15  N   UNL     1      -1.450  12.372  17.436  0.00  0.00    +0.000 N 
ATOM     16  O   UNL     1       0.157  13.537  18.587  0.00  0.00    +0.000 OA
ATOM     17  H   UNL     1      -1.839  11.450  17.252  0.00  0.00    +0.000 HD
ATOM     18  H   UNL     1      -1.839  13.187  16.989  0.00  0.00    +0.000 HD
ENDBRANCH  11  14
ENDBRANCH   9  10
ENDBRANCH   3   8
BRANCH   7  19
ATOM     19  O   UNL     1       4.691   3.833  19.199  0.00  0.00    +0.000 OA
ATOM     20  H   UNL     1       4.493   3.190  18.493  0.00  0.00    +0.000 HD
ENDBRANCH   7  19
BRANCH   1  21
ATOM     21  O   UNL     1       5.787   5.321  17.206  0.00  0.00    +0.000 OA
BRANCH  21  23
ATOM     22  C   UNL     1       7.668   6.114  18.518  0.00  0.00    +0.000 C 
ATOM     23  C   UNL     1       6.913   6.200  17.208  0.00  0.00    +0.000 C 
ENDBRANCH  21  23
ENDBRANCH   1  21
TORSDOF 6
ENDMDL
