MODEL 1
REMARK VINA RESULT:      -6.5      0.000      0.000
REMARK  Name = 
REMARK  4 active torsions:
REMARK  status: ('A' for Active; 'I' for Inactive)
REMARK    1  A    between atoms: C_2  and  C_3
REMARK    2  A    between atoms: C_4  and  C_5
REMARK    3  A    between atoms: N_13  and  C_14
REMARK    4  A    between atoms: C_21  and  C_22
REMARK                            x       y       z     vdW  Elec       q    Type
REMARK                         _______ _______ _______ _____ _____    ______ ____
ROOT
ATOM      1  C   UNL     1       1.754  15.714  19.083  0.00  0.00    +0.000 A 
ATOM      2  C   UNL     1       0.399  15.450  18.884  0.00  0.00    +0.000 A 
ATOM      3  N   UNL     1      -0.047  14.191  18.625  0.00  0.00    +0.000 NA
ATOM      4  C   UNL     1       0.847  13.196  18.589  0.00  0.00    +0.000 A 
ATOM      5  N   UNL     1       0.388  11.913  18.299  0.00  0.00    +0.000 N 
ATOM      6  N   UNL     1       2.158  13.389  18.770  0.00  0.00    +0.000 NA
ATOM      7  C   UNL     1       2.623  14.634  19.002  0.00  0.00    +0.000 A 
ATOM      8  H   UNL     1      -0.586  11.913  18.035  0.00  0.00    +0.000 HD
ENDROOT
BRANCH   7   9
ATOM      9  C   UNL     1       4.108  14.701  19.098  0.00  0.00    +0.000 A 
ATOM     10  C   UNL     1       4.900  14.622  17.932  0.00  0.00    +0.000 A 
ATOM     11  C   UNL     1       6.296  14.731  17.980  0.00  0.00    +0.000 A 
ATOM     12  C   UNL     1       6.931  14.935  19.201  0.00  0.00    +0.000 A 
ATOM     13 BR   UNL     1       8.809  15.111  19.281  0.00  0.00    +0.000 Br
ATOM     14  C   UNL     1       6.184  14.994  20.370  0.00  0.00    +0.000 A 
ATOM     15  C   UNL     1       4.796  14.843  20.317  0.00  0.00    +0.000 A 
ENDBRANCH   7   9
BRANCH   2  16
ATOM     16  C   UNL     1      -0.680  16.480  18.954  0.00  0.00    +0.000 A 
ATOM     17  C   UNL     1      -0.829  17.495  17.987  0.00  0.00    +0.000 A 
ATOM     18  C   UNL     1      -1.796  18.497  18.104  0.00  0.00    +0.000 A 
ATOM     19  C   UNL     1      -2.692  18.477  19.164  0.00  0.00    +0.000 A 
ATOM     20  C   UNL     1      -2.608  17.462  20.111  0.00  0.00    +0.000 A 
ATOM     21  C   UNL     1      -1.611  16.482  20.010  0.00  0.00    +0.000 A 
ENDBRANCH   2  16
BRANCH   5  22
ATOM     22  C   UNL     1       0.907  10.680  18.729  0.00  0.00    +0.000 A 
ATOM     23  C   UNL     1       1.650   9.844  17.884  0.00  0.00    +0.000 A 
ATOM     24  C   UNL     1       2.127   8.607  18.324  0.00  0.00    +0.000 A 
ATOM     25  C   UNL     1       1.843   8.172  19.614  0.00  0.00    +0.000 A 
ATOM     26  C   UNL     1       1.091   8.980  20.465  0.00  0.00    +0.000 A 
ATOM     27  C   UNL     1       0.633  10.229  20.027  0.00  0.00    +0.000 A 
ENDBRANCH   5  22
BRANCH   1  29
ATOM     28  N   UNL     1       2.626  18.102  19.563  0.00  0.00    +0.000 NA
ATOM     29  C   UNL     1       2.230  17.029  19.351  0.00  0.00    +0.000 C 
ENDBRANCH   1  29
TORSDOF 4
ENDMDL
MODEL 2
REMARK VINA RESULT:      -6.4      0.143      1.291
REMARK  Name = 
REMARK  4 active torsions:
REMARK  status: ('A' for Active; 'I' for Inactive)
REMARK    1  A    between atoms: C_2  and  C_3
REMARK    2  A    between atoms: C_4  and  C_5
REMARK    3  A    between atoms: N_13  and  C_14
REMARK    4  A    between atoms: C_21  and  C_22
REMARK                            x       y       z     vdW  Elec       q    Type
REMARK                         _______ _______ _______ _____ _____    ______ ____
ROOT
ATOM      1  C   UNL     1       1.664  15.767  19.096  0.00  0.00    +0.000 A 
ATOM      2  C   UNL     1       0.305  15.529  18.893  0.00  0.00    +0.000 A 
ATOM      3  N   UNL     1      -0.164  14.278  18.635  0.00  0.00    +0.000 NA
ATOM      4  C   UNL     1       0.711  13.265  18.607  0.00  0.00    +0.000 A 
ATOM      5  N   UNL     1       0.228  11.991  18.319  0.00  0.00    +0.000 N 
ATOM      6  N   UNL     1       2.025  13.434  18.792  0.00  0.00    +0.000 NA
ATOM      7  C   UNL     1       2.512  14.670  19.022  0.00  0.00    +0.000 A 
ATOM      8  H   UNL     1      -0.745  12.008  18.050  0.00  0.00    +0.000 HD
ENDROOT
BRANCH   7   9
ATOM      9  C   UNL     1       3.998  14.708  19.124  0.00  0.00    +0.000 A 
ATOM     10  C   UNL     1       4.793  14.639  17.960  0.00  0.00    +0.000 A 
ATOM     11  C   UNL     1       6.191  14.722  18.014  0.00  0.00    +0.000 A 
ATOM     12  C   UNL     1       6.824  14.889  19.241  0.00  0.00    +0.000 A 
ATOM     13 BR   UNL     1       8.705  15.030  19.330  0.00  0.00    +0.000 Br
ATOM     14  C   UNL     1       6.075  14.939  20.408  0.00  0.00    +0.000 A 
ATOM     15  C   UNL     1       4.684  14.814  20.348  0.00  0.00    +0.000 A 
ENDBRANCH   7   9
BRANCH   2  16
ATOM     16  C   UNL     1      -0.754  16.579  18.955  0.00  0.00    +0.000 A 
ATOM     17  C   UNL     1      -1.708  16.641  19.990  0.00  0.00    +0.000 A 
ATOM     18  C   UNL     1      -2.740  17.583  19.996  0.00  0.00    +0.000 A 
ATOM     19  C   UNL     1      -2.811  18.541  18.994  0.00  0.00    +0.000 A 
ATOM     20  C   UNL     1      -1.856  18.544  17.982  0.00  0.00    +0.000 A 
ATOM     21  C   UNL     1      -0.847  17.571  17.960  0.00  0.00    +0.000 A 
ENDBRANCH   2  16
BRANCH   5  22
ATOM     22  C   UNL     1       0.721  10.750  18.754  0.00  0.00    +0.000 A 
ATOM     23  C   UNL     1       0.527  10.282  20.061  0.00  0.00    +0.000 A 
ATOM     24  C   UNL     1       1.056   9.059  20.482  0.00  0.00    +0.000 A 
ATOM     25  C   UNL     1       1.817   8.295  19.605  0.00  0.00    +0.000 A 
ATOM     26  C   UNL     1       2.039   8.749  18.306  0.00  0.00    +0.000 A 
ATOM     27  C   UNL     1       1.488   9.965  17.883  0.00  0.00    +0.000 A 
ENDBRANCH   5  22
BRANCH   1  29
ATOM     28  N   UNL     1       2.575  18.141  19.570  0.00  0.00    +0.000 NA
ATOM     29  C   UNL     1       2.165  17.073  19.362  0.00  0.00    +0.000 C 
ENDBRANCH   1  29
TORSDOF 4
ENDMDL
MODEL 3
REMARK VINA RESULT:      -6.2      5.512      6.817
REMARK  Name = 
REMARK  4 active torsions:
REMARK  status: ('A' for Active; 'I' for Inactive)
REMARK    1  A    between atoms: C_2  and  C_3
REMARK    2  A    between atoms: C_4  and  C_5
REMARK    3  A    between atoms: N_13  and  C_14
REMARK    4  A    between atoms: C_21  and  C_22
REMARK                            x       y       z     vdW  Elec       q    Type
REMARK                         _______ _______ _______ _____ _____    ______ ____
ROOT
ATOM      1  C   UNL     1      -0.746  10.792  21.481  0.00  0.00    +0.000 A 
ATOM      2  C   UNL     1      -1.665  11.841  21.464  0.00  0.00    +0.000 A 
ATOM      3  N   UNL     1      -2.241  12.260  20.304  0.00  0.00    +0.000 NA
ATOM      4  C   UNL     1      -1.925  11.620  19.171  0.00  0.00    +0.000 A 
ATOM      5  N   UNL     1      -2.499  12.068  17.984  0.00  0.00    +0.000 N 
ATOM      6  N   UNL     1      -1.049  10.609  19.127  0.00  0.00    +0.000 NA
ATOM      7  C   UNL     1      -0.448  10.198  20.262  0.00  0.00    +0.000 A 
ATOM      8  H   UNL     1      -3.020  12.922  18.117  0.00  0.00    +0.000 HD
ENDROOT
BRANCH   7   9
ATOM      9  C   UNL     1       0.560   9.123  20.039  0.00  0.00    +0.000 A 
ATOM     10  C   UNL     1       0.678   8.058  20.958  0.00  0.00    +0.000 A 
ATOM     11  C   UNL     1       1.579   7.005  20.755  0.00  0.00    +0.000 A 
ATOM     12  C   UNL     1       2.377   6.989  19.616  0.00  0.00    +0.000 A 
ATOM     13 BR   UNL     1       3.577   5.565  19.312  0.00  0.00    +0.000 Br
ATOM     14  C   UNL     1       2.303   8.032  18.702  0.00  0.00    +0.000 A 
ATOM     15  C   UNL     1       1.430   9.099  18.934  0.00  0.00    +0.000 A 
ENDBRANCH   7   9
BRANCH   2  16
ATOM     16  C   UNL     1      -2.121  12.583  22.676  0.00  0.00    +0.000 A 
ATOM     17  C   UNL     1      -3.288  12.239  23.388  0.00  0.00    +0.000 A 
ATOM     18  C   UNL     1      -3.745  12.988  24.476  0.00  0.00    +0.000 A 
ATOM     19  C   UNL     1      -3.007  14.073  24.929  0.00  0.00    +0.000 A 
ATOM     20  C   UNL     1      -1.823  14.413  24.284  0.00  0.00    +0.000 A 
ATOM     21  C   UNL     1      -1.391  13.682  23.168  0.00  0.00    +0.000 A 
ENDBRANCH   2  16
BRANCH   5  22
ATOM     22  C   UNL     1      -2.817  11.328  16.833  0.00  0.00    +0.000 A 
ATOM     23  C   UNL     1      -3.924  11.631  16.028  0.00  0.00    +0.000 A 
ATOM     24  C   UNL     1      -4.241  10.860  14.907  0.00  0.00    +0.000 A 
ATOM     25  C   UNL     1      -3.467   9.750  14.589  0.00  0.00    +0.000 A 
ATOM     26  C   UNL     1      -2.373   9.418  15.386  0.00  0.00    +0.000 A 
ATOM     27  C   UNL     1      -2.047  10.207  16.496  0.00  0.00    +0.000 A 
ENDBRANCH   5  22
BRANCH   1  29
ATOM     28  N   UNL     1       0.362   9.982  23.674  0.00  0.00    +0.000 NA
ATOM     29  C   UNL     1      -0.135  10.351  22.689  0.00  0.00    +0.000 C 
ENDBRANCH   1  29
TORSDOF 4
ENDMDL
MODEL 4
REMARK VINA RESULT:      -6.2      3.710      8.648
REMARK  Name = 
REMARK  4 active torsions:
REMARK  status: ('A' for Active; 'I' for Inactive)
REMARK    1  A    between atoms: C_2  and  C_3
REMARK    2  A    between atoms: C_4  and  C_5
REMARK    3  A    between atoms: N_13  and  C_14
REMARK    4  A    between atoms: C_21  and  C_22
REMARK                            x       y       z     vdW  Elec       q    Type
REMARK                         _______ _______ _______ _____ _____    ______ ____
ROOT
ATOM      1  C   UNL     1       0.301   9.984  20.303  0.00  0.00    +0.000 A 
ATOM      2  C   UNL     1       1.303   9.720  19.370  0.00  0.00    +0.000 A 
ATOM      3  N   UNL     1       1.823  10.707  18.590  0.00  0.00    +0.000 NA
ATOM      4  C   UNL     1       1.366  11.954  18.756  0.00  0.00    +0.000 A 
ATOM      5  N   UNL     1       1.884  12.956  17.939  0.00  0.00    +0.000 N 
ATOM      6  N   UNL     1       0.405  12.266  19.633  0.00  0.00    +0.000 NA
ATOM      7  C   UNL     1      -0.140  11.297  20.396  0.00  0.00    +0.000 A 
ATOM      8  H   UNL     1       2.486  12.581  17.220  0.00  0.00    +0.000 HD
ENDROOT
BRANCH   7   9
ATOM      9  C   UNL     1      -1.252  11.783  21.261  0.00  0.00    +0.000 A 
ATOM     10  C   UNL     1      -2.390  12.386  20.684  0.00  0.00    +0.000 A 
ATOM     11  C   UNL     1      -3.476  12.810  21.462  0.00  0.00    +0.000 A 
ATOM     12  C   UNL     1      -3.449  12.627  22.840  0.00  0.00    +0.000 A 
ATOM     13 BR   UNL     1      -4.914  13.168  23.901  0.00  0.00    +0.000 Br
ATOM     14  C   UNL     1      -2.336  12.058  23.444  0.00  0.00    +0.000 A 
ATOM     15  C   UNL     1      -1.241  11.676  22.664  0.00  0.00    +0.000 A 
ENDBRANCH   7   9
BRANCH   2  16
ATOM     16  C   UNL     1       1.914   8.376  19.144  0.00  0.00    +0.000 A 
ATOM     17  C   UNL     1       2.002   7.399  20.156  0.00  0.00    +0.000 A 
ATOM     18  C   UNL     1       2.643   6.174  19.953  0.00  0.00    +0.000 A 
ATOM     19  C   UNL     1       3.162   5.861  18.704  0.00  0.00    +0.000 A 
ATOM     20  C   UNL     1       3.048   6.780  17.667  0.00  0.00    +0.000 A 
ATOM     21  C   UNL     1       2.440   8.023  17.887  0.00  0.00    +0.000 A 
ENDBRANCH   2  16
BRANCH   5  22
ATOM     22  C   UNL     1       2.048  14.321  18.226  0.00  0.00    +0.000 A 
ATOM     23  C   UNL     1       1.005  15.113  18.727  0.00  0.00    +0.000 A 
ATOM     24  C   UNL     1       1.182  16.476  18.972  0.00  0.00    +0.000 A 
ATOM     25  C   UNL     1       2.403  17.079  18.692  0.00  0.00    +0.000 A 
ATOM     26  C   UNL     1       3.448  16.315  18.176  0.00  0.00    +0.000 A 
ATOM     27  C   UNL     1       3.273  14.943  17.952  0.00  0.00    +0.000 A 
ENDBRANCH   5  22
BRANCH   1  29
ATOM     28  N   UNL     1      -0.700   8.123  21.795  0.00  0.00    +0.000 NA
ATOM     29  C   UNL     1      -0.251   8.957  21.120  0.00  0.00    +0.000 C 
ENDBRANCH   1  29
TORSDOF 4
ENDMDL
MODEL 5
REMARK VINA RESULT:      -6.1      5.409      8.986
REMARK  Name = 
REMARK  4 active torsions:
REMARK  status: ('A' for Active; 'I' for Inactive)
REMARK    1  A    between atoms: C_2  and  C_3
REMARK    2  A    between atoms: C_4  and  C_5
REMARK    3  A    between atoms: N_13  and  C_14
REMARK    4  A    between atoms: C_21  and  C_22
REMARK                            x       y       z     vdW  Elec       q    Type
REMARK                         _______ _______ _______ _____ _____    ______ ____
ROOT
ATOM      1  C   UNL     1       6.622  13.874  23.648  0.00  0.00    +0.000 A 
ATOM      2  C   UNL     1       7.496  13.069  24.376  0.00  0.00    +0.000 A 
ATOM      3  N   UNL     1       8.376  12.236  23.756  0.00  0.00    +0.000 NA
ATOM      4  C   UNL     1       8.404  12.226  22.417  0.00  0.00    +0.000 A 
ATOM      5  N   UNL     1       9.289  11.354  21.788  0.00  0.00    +0.000 N 
ATOM      6  N   UNL     1       7.588  12.975  21.667  0.00  0.00    +0.000 NA
ATOM      7  C   UNL     1       6.691  13.786  22.264  0.00  0.00    +0.000 A 
ATOM      8  H   UNL     1       9.742  10.737  22.446  0.00  0.00    +0.000 HD
ENDROOT
BRANCH   7   9
ATOM      9  C   UNL     1       5.800  14.490  21.300  0.00  0.00    +0.000 A 
ATOM     10  C   UNL     1       6.341  15.403  20.369  0.00  0.00    +0.000 A 
ATOM     11  C   UNL     1       5.540  16.045  19.415  0.00  0.00    +0.000 A 
ATOM     12  C   UNL     1       4.177  15.777  19.365  0.00  0.00    +0.000 A 
ATOM     13 BR   UNL     1       3.088  16.613  18.069  0.00  0.00    +0.000 Br
ATOM     14  C   UNL     1       3.608  14.901  20.279  0.00  0.00    +0.000 A 
ATOM     15  C   UNL     1       4.407  14.296  21.254  0.00  0.00    +0.000 A 
ENDBRANCH   7   9
BRANCH   2  16
ATOM     16  C   UNL     1       7.579  13.045  25.867  0.00  0.00    +0.000 A 
ATOM     17  C   UNL     1       8.341  13.974  26.604  0.00  0.00    +0.000 A 
ATOM     18  C   UNL     1       8.470  13.895  27.993  0.00  0.00    +0.000 A 
ATOM     19  C   UNL     1       7.784  12.917  28.699  0.00  0.00    +0.000 A 
ATOM     20  C   UNL     1       6.981  12.013  28.011  0.00  0.00    +0.000 A 
ATOM     21  C   UNL     1       6.887  12.072  26.613  0.00  0.00    +0.000 A 
ENDBRANCH   2  16
BRANCH   5  22
ATOM     22  C   UNL     1       9.931  11.506  20.547  0.00  0.00    +0.000 A 
ATOM     23  C   UNL     1       9.381  11.019  19.353  0.00  0.00    +0.000 A 
ATOM     24  C   UNL     1      10.054  11.150  18.136  0.00  0.00    +0.000 A 
ATOM     25  C   UNL     1      11.308  11.750  18.099  0.00  0.00    +0.000 A 
ATOM     26  C   UNL     1      11.882  12.225  19.276  0.00  0.00    +0.000 A 
ATOM     27  C   UNL     1      11.194  12.110  20.491  0.00  0.00    +0.000 A 
ENDBRANCH   5  22
BRANCH   1  29
ATOM     28  N   UNL     1       4.931  15.453  24.807  0.00  0.00    +0.000 NA
ATOM     29  C   UNL     1       5.695  14.745  24.289  0.00  0.00    +0.000 C 
ENDBRANCH   1  29
TORSDOF 4
ENDMDL
MODEL 6
REMARK VINA RESULT:      -6.1      3.655      8.523
REMARK  Name = 
REMARK  4 active torsions:
REMARK  status: ('A' for Active; 'I' for Inactive)
REMARK    1  A    between atoms: C_2  and  C_3
REMARK    2  A    between atoms: C_4  and  C_5
REMARK    3  A    between atoms: N_13  and  C_14
REMARK    4  A    between atoms: C_21  and  C_22
REMARK                            x       y       z     vdW  Elec       q    Type
REMARK                         _______ _______ _______ _____ _____    ______ ____
ROOT
ATOM      1  C   UNL     1       0.426   9.989  20.219  0.00  0.00    +0.000 A 
ATOM      2  C   UNL     1       1.418   9.616  19.313  0.00  0.00    +0.000 A 
ATOM      3  N   UNL     1       2.032  10.534  18.517  0.00  0.00    +0.000 NA
ATOM      4  C   UNL     1       1.679  11.819  18.642  0.00  0.00    +0.000 A 
ATOM      5  N   UNL     1       2.293  12.750  17.808  0.00  0.00    +0.000 N 
ATOM      6  N   UNL     1       0.732  12.234  19.491  0.00  0.00    +0.000 NA
ATOM      7  C   UNL     1       0.094  11.336  20.269  0.00  0.00    +0.000 A 
ATOM      8  H   UNL     1       2.874  12.307  17.111  0.00  0.00    +0.000 HD
ENDROOT
BRANCH   7   9
ATOM      9  C   UNL     1      -0.987  11.938  21.098  0.00  0.00    +0.000 A 
ATOM     10  C   UNL     1      -0.777  12.179  22.474  0.00  0.00    +0.000 A 
ATOM     11  C   UNL     1      -1.753  12.790  23.273  0.00  0.00    +0.000 A 
ATOM     12  C   UNL     1      -2.961  13.184  22.707  0.00  0.00    +0.000 A 
ATOM     13 BR   UNL     1      -4.276  14.032  23.763  0.00  0.00    +0.000 Br
ATOM     14  C   UNL     1      -3.209  12.942  21.363  0.00  0.00    +0.000 A 
ATOM     15  C   UNL     1      -2.246  12.296  20.582  0.00  0.00    +0.000 A 
ENDBRANCH   7   9
BRANCH   2  16
ATOM     16  C   UNL     1       1.918   8.220  19.136  0.00  0.00    +0.000 A 
ATOM     17  C   UNL     1       2.016   7.304  20.203  0.00  0.00    +0.000 A 
ATOM     18  C   UNL     1       2.556   6.026  20.038  0.00  0.00    +0.000 A 
ATOM     19  C   UNL     1       2.956   5.599  18.779  0.00  0.00    +0.000 A 
ATOM     20  C   UNL     1       2.826   6.457  17.692  0.00  0.00    +0.000 A 
ATOM     21  C   UNL     1       2.322   7.753  17.871  0.00  0.00    +0.000 A 
ENDBRANCH   2  16
BRANCH   5  22
ATOM     22  C   UNL     1       2.566  14.105  18.061  0.00  0.00    +0.000 A 
ATOM     23  C   UNL     1       3.856  14.643  17.955  0.00  0.00    +0.000 A 
ATOM     24  C   UNL     1       4.109  15.986  18.245  0.00  0.00    +0.000 A 
ATOM     25  C   UNL     1       3.074  16.809  18.675  0.00  0.00    +0.000 A 
ATOM     26  C   UNL     1       1.787  16.291  18.806  0.00  0.00    +0.000 A 
ATOM     27  C   UNL     1       1.535  14.949  18.493  0.00  0.00    +0.000 A 
ENDBRANCH   5  22
BRANCH   1  29
ATOM     28  N   UNL     1      -0.748   8.255  21.738  0.00  0.00    +0.000 NA
ATOM     29  C   UNL     1      -0.225   9.035  21.052  0.00  0.00    +0.000 C 
ENDBRANCH   1  29
TORSDOF 4
ENDMDL
MODEL 7
REMARK VINA RESULT:      -6.0      2.634      3.522
REMARK  Name = 
REMARK  4 active torsions:
REMARK  status: ('A' for Active; 'I' for Inactive)
REMARK    1  A    between atoms: C_2  and  C_3
REMARK    2  A    between atoms: C_4  and  C_5
REMARK    3  A    between atoms: N_13  and  C_14
REMARK    4  A    between atoms: C_21  and  C_22
REMARK                            x       y       z     vdW  Elec       q    Type
REMARK                         _______ _______ _______ _____ _____    ______ ____
ROOT
ATOM      1  C   UNL     1       2.810  15.878  20.379  0.00  0.00    +0.000 A 
ATOM      2  C   UNL     1       1.828  15.656  19.414  0.00  0.00    +0.000 A 
ATOM      3  N   UNL     1       1.156  14.474  19.346  0.00  0.00    +0.000 NA
ATOM      4  C   UNL     1       1.442  13.529  20.250  0.00  0.00    +0.000 A 
ATOM      5  N   UNL     1       0.768  12.313  20.161  0.00  0.00    +0.000 N 
ATOM      6  N   UNL     1       2.375  13.686  21.196  0.00  0.00    +0.000 NA
ATOM      7  C   UNL     1       3.069  14.840  21.262  0.00  0.00    +0.000 A 
ATOM      8  H   UNL     1       0.204  12.256  19.326  0.00  0.00    +0.000 HD
ENDROOT
BRANCH   7   9
ATOM      9  C   UNL     1       4.127  14.831  22.312  0.00  0.00    +0.000 A 
ATOM     10  C   UNL     1       5.183  13.896  22.250  0.00  0.00    +0.000 A 
ATOM     11  C   UNL     1       6.221  13.891  23.190  0.00  0.00    +0.000 A 
ATOM     12  C   UNL     1       6.231  14.835  24.212  0.00  0.00    +0.000 A 
ATOM     13 BR   UNL     1       7.636  14.860  25.472  0.00  0.00    +0.000 Br
ATOM     14  C   UNL     1       5.196  15.755  24.316  0.00  0.00    +0.000 A 
ATOM     15  C   UNL     1       4.144  15.726  23.397  0.00  0.00    +0.000 A 
ENDBRANCH   7   9
BRANCH   2  16
ATOM     16  C   UNL     1       1.402  16.661  18.396  0.00  0.00    +0.000 A 
ATOM     17  C   UNL     1       0.116  17.239  18.386  0.00  0.00    +0.000 A 
ATOM     18  C   UNL     1      -0.295  18.122  17.383  0.00  0.00    +0.000 A 
ATOM     19  C   UNL     1       0.595  18.507  16.390  0.00  0.00    +0.000 A 
ATOM     20  C   UNL     1       1.889  17.997  16.397  0.00  0.00    +0.000 A 
ATOM     21  C   UNL     1       2.284  17.081  17.381  0.00  0.00    +0.000 A 
ENDBRANCH   2  16
BRANCH   5  22
ATOM     22  C   UNL     1       0.426  11.425  21.195  0.00  0.00    +0.000 A 
ATOM     23  C   UNL     1       1.041  10.174  21.343  0.00  0.00    +0.000 A 
ATOM     24  C   UNL     1       0.661   9.293  22.358  0.00  0.00    +0.000 A 
ATOM     25  C   UNL     1      -0.366   9.641  23.229  0.00  0.00    +0.000 A 
ATOM     26  C   UNL     1      -1.004  10.872  23.089  0.00  0.00    +0.000 A 
ATOM     27  C   UNL     1      -0.604  11.761  22.082  0.00  0.00    +0.000 A 
ENDBRANCH   5  22
BRANCH   1  29
ATOM     28  N   UNL     1       4.101  18.116  20.506  0.00  0.00    +0.000 NA
ATOM     29  C   UNL     1       3.521  17.110  20.454  0.00  0.00    +0.000 C 
ENDBRANCH   1  29
TORSDOF 4
ENDMDL
MODEL 8
REMARK VINA RESULT:      -6.0      0.943      1.461
REMARK  Name = 
REMARK  4 active torsions:
REMARK  status: ('A' for Active; 'I' for Inactive)
REMARK    1  A    between atoms: C_2  and  C_3
REMARK    2  A    between atoms: C_4  and  C_5
REMARK    3  A    between atoms: N_13  and  C_14
REMARK    4  A    between atoms: C_21  and  C_22
REMARK                            x       y       z     vdW  Elec       q    Type
REMARK                         _______ _______ _______ _____ _____    ______ ____
ROOT
ATOM      1  C   UNL     1       1.809  15.675  19.715  0.00  0.00    +0.000 A 
ATOM      2  C   UNL     1       0.586  15.482  19.073  0.00  0.00    +0.000 A 
ATOM      3  N   UNL     1       0.220  14.261  18.597  0.00  0.00    +0.000 NA
ATOM      4  C   UNL     1       1.056  13.232  18.782  0.00  0.00    +0.000 A 
ATOM      5  N   UNL     1       0.688  11.990  18.271  0.00  0.00    +0.000 N 
ATOM      6  N   UNL     1       2.243  13.358  19.387  0.00  0.00    +0.000 NA
ATOM      7  C   UNL     1       2.634  14.566  19.842  0.00  0.00    +0.000 A 
ATOM      8  H   UNL     1      -0.148  12.047  17.708  0.00  0.00    +0.000 HD
ENDROOT
BRANCH   7   9
ATOM      9  C   UNL     1       4.009  14.563  20.415  0.00  0.00    +0.000 A 
ATOM     10  C   UNL     1       5.107  14.979  19.631  0.00  0.00    +0.000 A 
ATOM     11  C   UNL     1       6.406  15.037  20.153  0.00  0.00    +0.000 A 
ATOM     12  C   UNL     1       6.633  14.689  21.480  0.00  0.00    +0.000 A 
ATOM     13 BR   UNL     1       8.372  14.786  22.206  0.00  0.00    +0.000 Br
ATOM     14  C   UNL     1       5.580  14.253  22.273  0.00  0.00    +0.000 A 
ATOM     15  C   UNL     1       4.294  14.160  21.733  0.00  0.00    +0.000 A 
ENDBRANCH   7   9
BRANCH   2  16
ATOM     16  C   UNL     1      -0.435  16.552  18.863  0.00  0.00    +0.000 A 
ATOM     17  C   UNL     1      -0.379  17.460  17.787  0.00  0.00    +0.000 A 
ATOM     18  C   UNL     1      -1.297  18.503  17.644  0.00  0.00    +0.000 A 
ATOM     19  C   UNL     1      -2.347  18.631  18.544  0.00  0.00    +0.000 A 
ATOM     20  C   UNL     1      -2.465  17.722  19.590  0.00  0.00    +0.000 A 
ATOM     21  C   UNL     1      -1.517  16.702  19.752  0.00  0.00    +0.000 A 
ENDBRANCH   2  16
BRANCH   5  22
ATOM     22  C   UNL     1       1.014  10.713  18.758  0.00  0.00    +0.000 A 
ATOM     23  C   UNL     1       0.676  10.295  20.053  0.00  0.00    +0.000 A 
ATOM     24  C   UNL     1       1.041   9.033  20.527  0.00  0.00    +0.000 A 
ATOM     25  C   UNL     1       1.777   8.174  19.719  0.00  0.00    +0.000 A 
ATOM     26  C   UNL     1       2.139   8.576  18.434  0.00  0.00    +0.000 A 
ATOM     27  C   UNL     1       1.753   9.834  17.955  0.00  0.00    +0.000 A 
ENDBRANCH   5  22
BRANCH   1  29
ATOM     28  N   UNL     1       2.519  17.997  20.610  0.00  0.00    +0.000 NA
ATOM     29  C   UNL     1       2.201  16.951  20.212  0.00  0.00    +0.000 C 
ENDBRANCH   1  29
TORSDOF 4
ENDMDL
MODEL 9
REMARK VINA RESULT:      -6.0      4.592      7.154
REMARK  Name = 
REMARK  4 active torsions:
REMARK  status: ('A' for Active; 'I' for Inactive)
REMARK    1  A    between atoms: C_2  and  C_3
REMARK    2  A    between atoms: C_4  and  C_5
REMARK    3  A    between atoms: N_13  and  C_14
REMARK    4  A    between atoms: C_21  and  C_22
REMARK                            x       y       z     vdW  Elec       q    Type
REMARK                         _______ _______ _______ _____ _____    ______ ____
ROOT
ATOM      1  C   UNL     1       5.424  14.627  21.216  0.00  0.00    +0.000 A 
ATOM      2  C   UNL     1       5.521  15.179  19.939  0.00  0.00    +0.000 A 
ATOM      3  N   UNL     1       6.688  15.147  19.240  0.00  0.00    +0.000 NA
ATOM      4  C   UNL     1       7.746  14.545  19.798  0.00  0.00    +0.000 A 
ATOM      5  N   UNL     1       8.945  14.536  19.088  0.00  0.00    +0.000 N 
ATOM      6  N   UNL     1       7.712  14.002  21.020  0.00  0.00    +0.000 NA
ATOM      7  C   UNL     1       6.572  14.048  21.739  0.00  0.00    +0.000 A 
ATOM      8  H   UNL     1       8.892  15.102  18.254  0.00  0.00    +0.000 HD
ENDROOT
BRANCH   7   9
ATOM      9  C   UNL     1       6.715  13.477  23.108  0.00  0.00    +0.000 A 
ATOM     10  C   UNL     1       7.100  14.303  24.186  0.00  0.00    +0.000 A 
ATOM     11  C   UNL     1       7.195  13.812  25.495  0.00  0.00    +0.000 A 
ATOM     12  C   UNL     1       6.894  12.479  25.755  0.00  0.00    +0.000 A 
ATOM     13 BR   UNL     1       6.992  11.807  27.516  0.00  0.00    +0.000 Br
ATOM     14  C   UNL     1       6.534  11.633  24.715  0.00  0.00    +0.000 A 
ATOM     15  C   UNL     1       6.481  12.122  23.407  0.00  0.00    +0.000 A 
ENDBRANCH   7   9
BRANCH   2  16
ATOM     16  C   UNL     1       4.389  15.825  19.210  0.00  0.00    +0.000 A 
ATOM     17  C   UNL     1       4.050  15.495  17.882  0.00  0.00    +0.000 A 
ATOM     18  C   UNL     1       3.037  16.161  17.186  0.00  0.00    +0.000 A 
ATOM     19  C   UNL     1       2.284  17.137  17.824  0.00  0.00    +0.000 A 
ATOM     20  C   UNL     1       2.556  17.454  19.150  0.00  0.00    +0.000 A 
ATOM     21  C   UNL     1       3.600  16.811  19.831  0.00  0.00    +0.000 A 
ENDBRANCH   2  16
BRANCH   5  22
ATOM     22  C   UNL     1       9.969  13.575  19.115  0.00  0.00    +0.000 A 
ATOM     23  C   UNL     1      11.139  13.747  19.868  0.00  0.00    +0.000 A 
ATOM     24  C   UNL     1      12.160  12.793  19.852  0.00  0.00    +0.000 A 
ATOM     25  C   UNL     1      12.037  11.660  19.056  0.00  0.00    +0.000 A 
ATOM     26  C   UNL     1      10.891  11.478  18.285  0.00  0.00    +0.000 A 
ATOM     27  C   UNL     1       9.861  12.426  18.321  0.00  0.00    +0.000 A 
ENDBRANCH   5  22
BRANCH   1  29
ATOM     28  N   UNL     1       3.216  14.698  22.562  0.00  0.00    +0.000 NA
ATOM     29  C   UNL     1       4.208  14.661  21.956  0.00  0.00    +0.000 C 
ENDBRANCH   1  29
TORSDOF 4
ENDMDL
