MODEL 1
REMARK VINA RESULT:      -6.9      0.000      0.000
REMARK  Name = 
REMARK  10 active torsions:
REMARK  status: ('A' for Active; 'I' for Inactive)
REMARK    1  A    between atoms: C_1  and  C_2
REMARK    2  A    between atoms: C_2  and  O_3
REMARK    3  A    between atoms: O_3  and  C_4
REMARK    4  A    between atoms: C_9  and  N_10
REMARK    5  A    between atoms: N_13  and  C_14
REMARK    6  A    between atoms: C_14  and  C_15
REMARK    7  A    between atoms: C_17  and  C_18
REMARK    8  A    between atoms: C_19  and  O_20
REMARK    9  A    between atoms: O_20  and  C_21
REMARK   10  A    between atoms: C_22  and  C_23
REMARK                            x       y       z     vdW  Elec       q    Type
REMARK                         _______ _______ _______ _____ _____    ______ ____
ROOT
ATOM      1  N   UNL     1       1.453   8.634  20.034  0.00  0.00    +0.000 N 
ATOM      2  C   UNL     1       1.037   8.370  21.413  0.00  0.00    +0.000 C 
ATOM      3  C   UNL     1       1.286   9.619  22.269  0.00  0.00    +0.000 C 
ATOM      4  N   UNL     1       0.601  10.812  21.716  0.00  0.00    +0.000 NA
ATOM      5  C   UNL     1       1.030  11.059  20.325  0.00  0.00    +0.000 C 
ATOM      6  C   UNL     1       0.826   9.801  19.430  0.00  0.00    +0.000 C 
ENDROOT
BRANCH   1  12
ATOM      7  C   UNL     1       2.315   6.233  19.586  0.00  0.00    +0.000 A 
ATOM      8  C   UNL     1       3.131   5.421  18.788  0.00  0.00    +0.000 A 
ATOM      9  C   UNL     1       3.805   5.919  17.682  0.00  0.00    +0.000 A 
ATOM     10  C   UNL     1       3.683   7.254  17.345  0.00  0.00    +0.000 A 
ATOM     11  C   UNL     1       2.894   8.101  18.119  0.00  0.00    +0.000 A 
ATOM     12  C   UNL     1       2.186   7.642  19.264  0.00  0.00    +0.000 A 
BRANCH   7  13
ATOM     13  O   UNL     1       1.678   5.547  20.571  0.00  0.00    +0.000 OA
BRANCH  13  15
ATOM     14  C   UNL     1       2.083   3.452  21.636  0.00  0.00    +0.000 C 
ATOM     15  C   UNL     1       1.290   4.228  20.579  0.00  0.00    +0.000 C 
ENDBRANCH  13  15
ENDBRANCH   7  13
ENDBRANCH   1  12
BRANCH   4  16
ATOM     16  C   UNL     1      -0.874  10.787  21.818  0.00  0.00    +0.000 C 
BRANCH  16  17
ATOM     17  C   UNL     1      -1.422  11.925  22.630  0.00  0.00    +0.000 A 
ATOM     18  C   UNL     1      -0.752  13.144  22.691  0.00  0.00    +0.000 A 
ATOM     19  C   UNL     1      -1.298  14.217  23.404  0.00  0.00    +0.000 A 
ATOM     20  C   UNL     1      -0.548  15.524  23.443  0.00  0.00    +0.000 C 
ATOM     21  C   UNL     1      -2.548  14.090  24.060  0.00  0.00    +0.000 A 
ATOM     22  C   UNL     1      -3.218  12.819  24.022  0.00  0.00    +0.000 A 
ATOM     23  C   UNL     1      -4.525  12.440  24.677  0.00  0.00    +0.000 C 
ATOM     24  C   UNL     1      -2.630  11.767  23.306  0.00  0.00    +0.000 A 
BRANCH  21  25
ATOM     25  O   UNL     1      -3.007  15.233  24.649  0.00  0.00    +0.000 OA
ATOM     26  C   UNL     1      -4.086  16.031  24.343  0.00  0.00    +0.000 C 
ENDBRANCH  21  25
ENDBRANCH  16  17
ENDBRANCH   4  16
TORSDOF 6
ENDMDL
MODEL 2
REMARK VINA RESULT:      -6.9      0.797      2.108
REMARK  Name = 
REMARK  10 active torsions:
REMARK  status: ('A' for Active; 'I' for Inactive)
REMARK    1  A    between atoms: C_1  and  C_2
REMARK    2  A    between atoms: C_2  and  O_3
REMARK    3  A    between atoms: O_3  and  C_4
REMARK    4  A    between atoms: C_9  and  N_10
REMARK    5  A    between atoms: N_13  and  C_14
REMARK    6  A    between atoms: C_14  and  C_15
REMARK    7  A    between atoms: C_17  and  C_18
REMARK    8  A    between atoms: C_19  and  O_20
REMARK    9  A    between atoms: O_20  and  C_21
REMARK   10  A    between atoms: C_22  and  C_23
REMARK                            x       y       z     vdW  Elec       q    Type
REMARK                         _______ _______ _______ _____ _____    ______ ____
ROOT
ATOM      1  N   UNL     1       1.465   8.472  19.960  0.00  0.00    +0.000 N 
ATOM      2  C   UNL     1       1.087   9.753  19.357  0.00  0.00    +0.000 C 
ATOM      3  C   UNL     1      -0.376  10.065  19.697  0.00  0.00    +0.000 C 
ATOM      4  N   UNL     1      -0.614  10.065  21.161  0.00  0.00    +0.000 NA
ATOM      5  C   UNL     1      -0.224   8.769  21.750  0.00  0.00    +0.000 C 
ATOM      6  C   UNL     1       1.247   8.398  21.398  0.00  0.00    +0.000 C 
ENDROOT
BRANCH   1  12
ATOM      7  C   UNL     1       2.489   6.119  19.612  0.00  0.00    +0.000 A 
ATOM      8  C   UNL     1       3.353   5.329  18.843  0.00  0.00    +0.000 A 
ATOM      9  C   UNL     1       3.981   5.821  17.707  0.00  0.00    +0.000 A 
ATOM     10  C   UNL     1       3.763   7.128  17.312  0.00  0.00    +0.000 A 
ATOM     11  C   UNL     1       2.924   7.953  18.056  0.00  0.00    +0.000 A 
ATOM     12  C   UNL     1       2.259   7.499  19.228  0.00  0.00    +0.000 A 
BRANCH   7  13
ATOM     13  O   UNL     1       1.910   5.437  20.634  0.00  0.00    +0.000 OA
BRANCH  13  15
ATOM     14  C   UNL     1       1.918   3.254  21.595  0.00  0.00    +0.000 C 
ATOM     15  C   UNL     1       1.272   4.218  20.595  0.00  0.00    +0.000 C 
ENDBRANCH  13  15
ENDBRANCH   7  13
ENDBRANCH   1  12
BRANCH   4  16
ATOM     16  C   UNL     1       0.009  11.188  21.894  0.00  0.00    +0.000 C 
BRANCH  16  17
ATOM     17  C   UNL     1      -0.992  12.201  22.369  0.00  0.00    +0.000 A 
ATOM     18  C   UNL     1      -2.097  11.812  23.121  0.00  0.00    +0.000 A 
ATOM     19  C   UNL     1      -2.996  12.768  23.608  0.00  0.00    +0.000 A 
ATOM     20  C   UNL     1      -4.177  12.310  24.424  0.00  0.00    +0.000 C 
ATOM     21  C   UNL     1      -2.788  14.148  23.362  0.00  0.00    +0.000 A 
ATOM     22  C   UNL     1      -1.664  14.541  22.557  0.00  0.00    +0.000 A 
ATOM     23  C   UNL     1      -1.271  15.935  22.132  0.00  0.00    +0.000 C 
ATOM     24  C   UNL     1      -0.796  13.549  22.079  0.00  0.00    +0.000 A 
BRANCH  21  25
ATOM     25  O   UNL     1      -3.689  14.981  23.961  0.00  0.00    +0.000 OA
ATOM     26  C   UNL     1      -4.682  15.767  23.421  0.00  0.00    +0.000 C 
ENDBRANCH  21  25
ENDBRANCH  16  17
ENDBRANCH   4  16
TORSDOF 6
ENDMDL
MODEL 3
REMARK VINA RESULT:      -6.9      1.655      9.489
REMARK  Name = 
REMARK  10 active torsions:
REMARK  status: ('A' for Active; 'I' for Inactive)
REMARK    1  A    between atoms: C_1  and  C_2
REMARK    2  A    between atoms: C_2  and  O_3
REMARK    3  A    between atoms: O_3  and  C_4
REMARK    4  A    between atoms: C_9  and  N_10
REMARK    5  A    between atoms: N_13  and  C_14
REMARK    6  A    between atoms: C_14  and  C_15
REMARK    7  A    between atoms: C_17  and  C_18
REMARK    8  A    between atoms: C_19  and  O_20
REMARK    9  A    between atoms: O_20  and  C_21
REMARK   10  A    between atoms: C_22  and  C_23
REMARK                            x       y       z     vdW  Elec       q    Type
REMARK                         _______ _______ _______ _____ _____    ______ ____
ROOT
ATOM      1  N   UNL     1      -0.723  11.205  22.214  0.00  0.00    +0.000 N 
ATOM      2  C   UNL     1      -0.321  10.047  23.016  0.00  0.00    +0.000 C 
ATOM      3  C   UNL     1      -0.672   8.758  22.263  0.00  0.00    +0.000 C 
ATOM      4  N   UNL     1      -0.057   8.722  20.914  0.00  0.00    +0.000 NA
ATOM      5  C   UNL     1      -0.471   9.898  20.123  0.00  0.00    +0.000 C 
ATOM      6  C   UNL     1      -0.162  11.229  20.871  0.00  0.00    +0.000 C 
ENDROOT
BRANCH   1  12
ATOM      7  C   UNL     1      -0.769  13.657  23.044  0.00  0.00    +0.000 A 
ATOM      8  C   UNL     1      -1.499  14.641  23.725  0.00  0.00    +0.000 A 
ATOM      9  C   UNL     1      -2.793  14.415  24.176  0.00  0.00    +0.000 A 
ATOM     10  C   UNL     1      -3.392  13.188  23.960  0.00  0.00    +0.000 A 
ATOM     11  C   UNL     1      -2.697  12.177  23.301  0.00  0.00    +0.000 A 
ATOM     12  C   UNL     1      -1.370  12.356  22.823  0.00  0.00    +0.000 A 
BRANCH   7  13
ATOM     13  O   UNL     1       0.442  14.095  22.613  0.00  0.00    +0.000 OA
BRANCH  13  15
ATOM     14  C   UNL     1       2.031  15.803  22.114  0.00  0.00    +0.000 C 
ATOM     15  C   UNL     1       0.719  15.111  21.729  0.00  0.00    +0.000 C 
ENDBRANCH  13  15
ENDBRANCH   7  13
ENDBRANCH   1  12
BRANCH   4  16
ATOM     16  C   UNL     1       1.414   8.569  20.904  0.00  0.00    +0.000 C 
BRANCH  16  17
ATOM     17  C   UNL     1       1.860   7.274  20.287  0.00  0.00    +0.000 A 
ATOM     18  C   UNL     1       1.418   6.055  20.791  0.00  0.00    +0.000 A 
ATOM     19  C   UNL     1       1.794   4.855  20.176  0.00  0.00    +0.000 A 
ATOM     20  C   UNL     1       1.290   3.554  20.746  0.00  0.00    +0.000 C 
ATOM     21  C   UNL     1       2.615   4.860  19.021  0.00  0.00    +0.000 A 
ATOM     22  C   UNL     1       3.096   6.120  18.525  0.00  0.00    +0.000 A 
ATOM     23  C   UNL     1       4.009   6.365  17.348  0.00  0.00    +0.000 C 
ATOM     24  C   UNL     1       2.705   7.297  19.180  0.00  0.00    +0.000 A 
BRANCH  21  25
ATOM     25  O   UNL     1       2.840   3.631  18.470  0.00  0.00    +0.000 OA
ATOM     26  C   UNL     1       3.973   2.850  18.450  0.00  0.00    +0.000 C 
ENDBRANCH  21  25
ENDBRANCH  16  17
ENDBRANCH   4  16
TORSDOF 6
ENDMDL
MODEL 4
REMARK VINA RESULT:      -6.8      0.254      1.741
REMARK  Name = 
REMARK  10 active torsions:
REMARK  status: ('A' for Active; 'I' for Inactive)
REMARK    1  A    between atoms: C_1  and  C_2
REMARK    2  A    between atoms: C_2  and  O_3
REMARK    3  A    between atoms: O_3  and  C_4
REMARK    4  A    between atoms: C_9  and  N_10
REMARK    5  A    between atoms: N_13  and  C_14
REMARK    6  A    between atoms: C_14  and  C_15
REMARK    7  A    between atoms: C_17  and  C_18
REMARK    8  A    between atoms: C_19  and  O_20
REMARK    9  A    between atoms: O_20  and  C_21
REMARK   10  A    between atoms: C_22  and  C_23
REMARK                            x       y       z     vdW  Elec       q    Type
REMARK                         _______ _______ _______ _____ _____    ______ ____
ROOT
ATOM      1  N   UNL     1       1.532   8.558  19.942  0.00  0.00    +0.000 N 
ATOM      2  C   UNL     1       1.059   8.299  21.305  0.00  0.00    +0.000 C 
ATOM      3  C   UNL     1       1.290   9.545  22.170  0.00  0.00    +0.000 C 
ATOM      4  N   UNL     1       0.642  10.746  21.591  0.00  0.00    +0.000 NA
ATOM      5  C   UNL     1       1.128  10.988  20.218  0.00  0.00    +0.000 C 
ATOM      6  C   UNL     1       0.943   9.732  19.315  0.00  0.00    +0.000 C 
ENDROOT
BRANCH   1  12
ATOM      7  C   UNL     1       2.445   6.163  19.570  0.00  0.00    +0.000 A 
ATOM      8  C   UNL     1       3.274   5.342  18.794  0.00  0.00    +0.000 A 
ATOM      9  C   UNL     1       3.929   5.817  17.666  0.00  0.00    +0.000 A 
ATOM     10  C   UNL     1       3.774   7.137  17.286  0.00  0.00    +0.000 A 
ATOM     11  C   UNL     1       2.972   7.992  18.037  0.00  0.00    +0.000 A 
ATOM     12  C   UNL     1       2.282   7.556  19.202  0.00  0.00    +0.000 A 
BRANCH   7  13
ATOM     13  O   UNL     1       1.831   5.497  20.582  0.00  0.00    +0.000 OA
BRANCH  13  15
ATOM     14  C   UNL     1       1.695   3.261  21.402  0.00  0.00    +0.000 C 
ATOM     15  C   UNL     1       1.078   4.348  20.516  0.00  0.00    +0.000 C 
ENDBRANCH  13  15
ENDBRANCH   7  13
ENDBRANCH   1  12
BRANCH   4  16
ATOM     16  C   UNL     1      -0.836  10.739  21.635  0.00  0.00    +0.000 C 
BRANCH  16  17
ATOM     17  C   UNL     1      -1.401  11.879  22.433  0.00  0.00    +0.000 A 
ATOM     18  C   UNL     1      -2.573  11.724  23.167  0.00  0.00    +0.000 A 
ATOM     19  C   UNL     1      -3.062  12.775  23.952  0.00  0.00    +0.000 A 
ATOM     20  C   UNL     1      -4.330  12.568  24.739  0.00  0.00    +0.000 C 
ATOM     21  C   UNL     1      -2.364  14.006  24.030  0.00  0.00    +0.000 A 
ATOM     22  C   UNL     1      -1.173  14.172  23.243  0.00  0.00    +0.000 A 
ATOM     23  C   UNL     1      -0.298  15.397  23.134  0.00  0.00    +0.000 C 
ATOM     24  C   UNL     1      -0.726  13.098  22.461  0.00  0.00    +0.000 A 
BRANCH  21  25
ATOM     25  O   UNL     1      -2.901  14.918  24.893  0.00  0.00    +0.000 OA
ATOM     26  C   UNL     1      -3.547  16.109  24.654  0.00  0.00    +0.000 C 
ENDBRANCH  21  25
ENDBRANCH  16  17
ENDBRANCH   4  16
TORSDOF 6
ENDMDL
MODEL 5
REMARK VINA RESULT:      -6.8      1.618      9.513
REMARK  Name = 
REMARK  10 active torsions:
REMARK  status: ('A' for Active; 'I' for Inactive)
REMARK    1  A    between atoms: C_1  and  C_2
REMARK    2  A    between atoms: C_2  and  O_3
REMARK    3  A    between atoms: O_3  and  C_4
REMARK    4  A    between atoms: C_9  and  N_10
REMARK    5  A    between atoms: N_13  and  C_14
REMARK    6  A    between atoms: C_14  and  C_15
REMARK    7  A    between atoms: C_17  and  C_18
REMARK    8  A    between atoms: C_19  and  O_20
REMARK    9  A    between atoms: O_20  and  C_21
REMARK   10  A    between atoms: C_22  and  C_23
REMARK                            x       y       z     vdW  Elec       q    Type
REMARK                         _______ _______ _______ _____ _____    ______ ____
ROOT
ATOM      1  N   UNL     1      -0.608  10.885  22.312  0.00  0.00    +0.000 N 
ATOM      2  C   UNL     1      -0.557  10.615  20.873  0.00  0.00    +0.000 C 
ATOM      3  C   UNL     1       0.868  10.206  20.480  0.00  0.00    +0.000 C 
ATOM      4  N   UNL     1       1.344   9.042  21.266  0.00  0.00    +0.000 NA
ATOM      5  C   UNL     1       1.283   9.333  22.712  0.00  0.00    +0.000 C 
ATOM      6  C   UNL     1      -0.143   9.786  23.146  0.00  0.00    +0.000 C 
ENDROOT
BRANCH   1  12
ATOM      7  C   UNL     1      -0.828  13.377  22.980  0.00  0.00    +0.000 A 
ATOM      8  C   UNL     1      -1.630  14.351  23.590  0.00  0.00    +0.000 A 
ATOM      9  C   UNL     1      -2.910  14.068  24.046  0.00  0.00    +0.000 A 
ATOM     10  C   UNL     1      -3.423  12.792  23.907  0.00  0.00    +0.000 A 
ATOM     11  C   UNL     1      -2.655  11.789  23.321  0.00  0.00    +0.000 A 
ATOM     12  C   UNL     1      -1.338  12.027  22.840  0.00  0.00    +0.000 A 
BRANCH   7  13
ATOM     13  O   UNL     1       0.355  13.867  22.528  0.00  0.00    +0.000 OA
BRANCH  13  15
ATOM     14  C   UNL     1       0.758  15.609  20.950  0.00  0.00    +0.000 C 
ATOM     15  C   UNL     1       0.744  14.103  21.230  0.00  0.00    +0.000 C 
ENDBRANCH  13  15
ENDBRANCH   7  13
ENDBRANCH   1  12
BRANCH   4  16
ATOM     16  C   UNL     1       0.672   7.763  20.955  0.00  0.00    +0.000 C 
BRANCH  16  17
ATOM     17  C   UNL     1       1.616   6.724  20.420  0.00  0.00    +0.000 A 
ATOM     18  C   UNL     1       1.637   5.438  20.952  0.00  0.00    +0.000 A 
ATOM     19  C   UNL     1       2.480   4.460  20.411  0.00  0.00    +0.000 A 
ATOM     20  C   UNL     1       2.470   3.078  21.009  0.00  0.00    +0.000 C 
ATOM     21  C   UNL     1       3.311   4.755  19.301  0.00  0.00    +0.000 A 
ATOM     22  C   UNL     1       3.310   6.094  18.778  0.00  0.00    +0.000 A 
ATOM     23  C   UNL     1       4.137   6.645  17.641  0.00  0.00    +0.000 C 
ATOM     24  C   UNL     1       2.460   7.045  19.359  0.00  0.00    +0.000 A 
BRANCH  21  25
ATOM     25  O   UNL     1       4.022   3.694  18.818  0.00  0.00    +0.000 OA
ATOM     26  C   UNL     1       3.859   2.951  17.671  0.00  0.00    +0.000 C 
ENDBRANCH  21  25
ENDBRANCH  16  17
ENDBRANCH   4  16
TORSDOF 6
ENDMDL
MODEL 6
REMARK VINA RESULT:      -6.8      0.982      1.412
REMARK  Name = 
REMARK  10 active torsions:
REMARK  status: ('A' for Active; 'I' for Inactive)
REMARK    1  A    between atoms: C_1  and  C_2
REMARK    2  A    between atoms: C_2  and  O_3
REMARK    3  A    between atoms: O_3  and  C_4
REMARK    4  A    between atoms: C_9  and  N_10
REMARK    5  A    between atoms: N_13  and  C_14
REMARK    6  A    between atoms: C_14  and  C_15
REMARK    7  A    between atoms: C_17  and  C_18
REMARK    8  A    between atoms: C_19  and  O_20
REMARK    9  A    between atoms: O_20  and  C_21
REMARK   10  A    between atoms: C_22  and  C_23
REMARK                            x       y       z     vdW  Elec       q    Type
REMARK                         _______ _______ _______ _____ _____    ______ ____
ROOT
ATOM      1  N   UNL     1       1.418   8.466  19.888  0.00  0.00    +0.000 N 
ATOM      2  C   UNL     1       1.071   9.753  19.281  0.00  0.00    +0.000 C 
ATOM      3  C   UNL     1      -0.400  10.074  19.572  0.00  0.00    +0.000 C 
ATOM      4  N   UNL     1      -0.689  10.067  21.026  0.00  0.00    +0.000 NA
ATOM      5  C   UNL     1      -0.329   8.764  21.620  0.00  0.00    +0.000 C 
ATOM      6  C   UNL     1       1.150   8.384  21.316  0.00  0.00    +0.000 C 
ENDROOT
BRANCH   1  12
ATOM      7  C   UNL     1       2.447   6.111  19.567  0.00  0.00    +0.000 A 
ATOM      8  C   UNL     1       3.330   5.319  18.821  0.00  0.00    +0.000 A 
ATOM      9  C   UNL     1       3.989   5.810  17.702  0.00  0.00    +0.000 A 
ATOM     10  C   UNL     1       3.783   7.117  17.301  0.00  0.00    +0.000 A 
ATOM     11  C   UNL     1       2.926   7.943  18.022  0.00  0.00    +0.000 A 
ATOM     12  C   UNL     1       2.230   7.491  19.177  0.00  0.00    +0.000 A 
BRANCH   7  13
ATOM     13  O   UNL     1       1.840   5.429  20.573  0.00  0.00    +0.000 OA
BRANCH  13  15
ATOM     14  C   UNL     1       1.826   3.245  21.531  0.00  0.00    +0.000 C 
ATOM     15  C   UNL     1       1.203   4.212  20.518  0.00  0.00    +0.000 C 
ENDBRANCH  13  15
ENDBRANCH   7  13
ENDBRANCH   1  12
BRANCH   4  16
ATOM     16  C   UNL     1      -0.082  11.180  21.788  0.00  0.00    +0.000 C 
BRANCH  16  17
ATOM     17  C   UNL     1      -1.085  12.223  22.193  0.00  0.00    +0.000 A 
ATOM     18  C   UNL     1      -1.031  13.508  21.661  0.00  0.00    +0.000 A 
ATOM     19  C   UNL     1      -2.002  14.457  22.001  0.00  0.00    +0.000 A 
ATOM     20  C   UNL     1      -1.916  15.836  21.400  0.00  0.00    +0.000 C 
ATOM     21  C   UNL     1      -3.066  14.122  22.876  0.00  0.00    +0.000 A 
ATOM     22  C   UNL     1      -3.097  12.804  23.448  0.00  0.00    +0.000 A 
ATOM     23  C   UNL     1      -4.099  12.243  24.428  0.00  0.00    +0.000 C 
ATOM     24  C   UNL     1      -2.097  11.889  23.090  0.00  0.00    +0.000 A 
BRANCH  21  25
ATOM     25  O   UNL     1      -3.991  15.110  23.061  0.00  0.00    +0.000 OA
ATOM     26  C   UNL     1      -4.389  15.765  24.204  0.00  0.00    +0.000 C 
ENDBRANCH  21  25
ENDBRANCH  16  17
ENDBRANCH   4  16
TORSDOF 6
ENDMDL
MODEL 7
REMARK VINA RESULT:      -6.6      3.382      9.218
REMARK  Name = 
REMARK  10 active torsions:
REMARK  status: ('A' for Active; 'I' for Inactive)
REMARK    1  A    between atoms: C_1  and  C_2
REMARK    2  A    between atoms: C_2  and  O_3
REMARK    3  A    between atoms: O_3  and  C_4
REMARK    4  A    between atoms: C_9  and  N_10
REMARK    5  A    between atoms: N_13  and  C_14
REMARK    6  A    between atoms: C_14  and  C_15
REMARK    7  A    between atoms: C_17  and  C_18
REMARK    8  A    between atoms: C_19  and  O_20
REMARK    9  A    between atoms: O_20  and  C_21
REMARK   10  A    between atoms: C_22  and  C_23
REMARK                            x       y       z     vdW  Elec       q    Type
REMARK                         _______ _______ _______ _____ _____    ______ ____
ROOT
ATOM      1  N   UNL     1       1.163  11.454  19.416  0.00  0.00    +0.000 N 
ATOM      2  C   UNL     1       0.990  10.804  20.717  0.00  0.00    +0.000 C 
ATOM      3  C   UNL     1       0.227   9.486  20.533  0.00  0.00    +0.000 C 
ATOM      4  N   UNL     1       0.904   8.588  19.566  0.00  0.00    +0.000 NA
ATOM      5  C   UNL     1       1.073   9.261  18.263  0.00  0.00    +0.000 C 
ATOM      6  C   UNL     1       1.814  10.623  18.413  0.00  0.00    +0.000 C 
ENDROOT
BRANCH   1  12
ATOM      7  C   UNL     1      -0.298  13.583  19.228  0.00  0.00    +0.000 A 
ATOM      8  C   UNL     1      -0.318  14.962  18.978  0.00  0.00    +0.000 A 
ATOM      9  C   UNL     1       0.848  15.688  18.778  0.00  0.00    +0.000 A 
ATOM     10  C   UNL     1       2.072  15.048  18.818  0.00  0.00    +0.000 A 
ATOM     11  C   UNL     1       2.137  13.677  19.048  0.00  0.00    +0.000 A 
ATOM     12  C   UNL     1       0.973  12.886  19.256  0.00  0.00    +0.000 A 
BRANCH   7  13
ATOM     13  O   UNL     1      -1.531  13.069  19.478  0.00  0.00    +0.000 OA
BRANCH  13  15
ATOM     14  C   UNL     1      -2.002  11.778  17.529  0.00  0.00    +0.000 C 
ATOM     15  C   UNL     1      -2.058  11.870  19.057  0.00  0.00    +0.000 C 
ENDBRANCH  13  15
ENDBRANCH   7  13
ENDBRANCH   1  12
BRANCH   4  16
ATOM     16  C   UNL     1       2.185   8.018  20.037  0.00  0.00    +0.000 C 
BRANCH  16  17
ATOM     17  C   UNL     1       2.349   6.572  19.668  0.00  0.00    +0.000 A 
ATOM     18  C   UNL     1       1.680   5.576  20.373  0.00  0.00    +0.000 A 
ATOM     19  C   UNL     1       1.795   4.235  19.988  0.00  0.00    +0.000 A 
ATOM     20  C   UNL     1       1.050   3.185  20.771  0.00  0.00    +0.000 C 
ATOM     21  C   UNL     1       2.577   3.870  18.864  0.00  0.00    +0.000 A 
ATOM     22  C   UNL     1       3.293   4.898  18.161  0.00  0.00    +0.000 A 
ATOM     23  C   UNL     1       4.213   4.741  16.974  0.00  0.00    +0.000 C 
ATOM     24  C   UNL     1       3.159   6.227  18.589  0.00  0.00    +0.000 A 
BRANCH  21  25
ATOM     25  O   UNL     1       2.540   2.542  18.545  0.00  0.00    +0.000 OA
ATOM     26  C   UNL     1       3.530   1.588  18.556  0.00  0.00    +0.000 C 
ENDBRANCH  21  25
ENDBRANCH  16  17
ENDBRANCH   4  16
TORSDOF 6
ENDMDL
MODEL 8
REMARK VINA RESULT:      -6.6      2.252      9.197
REMARK  Name = 
REMARK  10 active torsions:
REMARK  status: ('A' for Active; 'I' for Inactive)
REMARK    1  A    between atoms: C_1  and  C_2
REMARK    2  A    between atoms: C_2  and  O_3
REMARK    3  A    between atoms: O_3  and  C_4
REMARK    4  A    between atoms: C_9  and  N_10
REMARK    5  A    between atoms: N_13  and  C_14
REMARK    6  A    between atoms: C_14  and  C_15
REMARK    7  A    between atoms: C_17  and  C_18
REMARK    8  A    between atoms: C_19  and  O_20
REMARK    9  A    between atoms: O_20  and  C_21
REMARK   10  A    between atoms: C_22  and  C_23
REMARK                            x       y       z     vdW  Elec       q    Type
REMARK                         _______ _______ _______ _____ _____    ______ ____
ROOT
ATOM      1  N   UNL     1      -0.155  12.692  19.521  0.00  0.00    +0.000 N 
ATOM      2  C   UNL     1       1.136  12.224  20.031  0.00  0.00    +0.000 C 
ATOM      3  C   UNL     1       0.990  10.787  20.547  0.00  0.00    +0.000 C 
ATOM      4  N   UNL     1       0.459   9.878  19.503  0.00  0.00    +0.000 NA
ATOM      5  C   UNL     1      -0.840  10.368  19.000  0.00  0.00    +0.000 C 
ATOM      6  C   UNL     1      -0.742  11.839  18.498  0.00  0.00    +0.000 C 
ENDROOT
BRANCH   1  12
ATOM      7  C   UNL     1      -1.520  14.418  20.888  0.00  0.00    +0.000 A 
ATOM      8  C   UNL     1      -1.963  15.744  20.975  0.00  0.00    +0.000 A 
ATOM      9  C   UNL     1      -1.562  16.713  20.064  0.00  0.00    +0.000 A 
ATOM     10  C   UNL     1      -0.706  16.375  19.033  0.00  0.00    +0.000 A 
ATOM     11  C   UNL     1      -0.253  15.066  18.901  0.00  0.00    +0.000 A 
ATOM     12  C   UNL     1      -0.635  14.036  19.804  0.00  0.00    +0.000 A 
BRANCH   7  13
ATOM     13  O   UNL     1      -1.955  13.642  21.914  0.00  0.00    +0.000 OA
BRANCH  13  15
ATOM     14  C   UNL     1      -1.675  11.595  23.106  0.00  0.00    +0.000 C 
ATOM     15  C   UNL     1      -1.215  13.043  22.907  0.00  0.00    +0.000 C 
ENDBRANCH  13  15
ENDBRANCH   7  13
ENDBRANCH   1  12
BRANCH   4  16
ATOM     16  C   UNL     1       1.388   9.600  18.387  0.00  0.00    +0.000 C 
BRANCH  16  17
ATOM     17  C   UNL     1       2.125   8.302  18.552  0.00  0.00    +0.000 A 
ATOM     18  C   UNL     1       1.781   7.410  19.564  0.00  0.00    +0.000 A 
ATOM     19  C   UNL     1       2.436   6.178  19.676  0.00  0.00    +0.000 A 
ATOM     20  C   UNL     1       2.031   5.236  20.780  0.00  0.00    +0.000 C 
ATOM     21  C   UNL     1       3.445   5.808  18.752  0.00  0.00    +0.000 A 
ATOM     22  C   UNL     1       3.819   6.747  17.730  0.00  0.00    +0.000 A 
ATOM     23  C   UNL     1       4.887   6.590  16.674  0.00  0.00    +0.000 C 
ATOM     24  C   UNL     1       3.146   7.975  17.662  0.00  0.00    +0.000 A 
BRANCH  21  25
ATOM     25  O   UNL     1       3.946   4.549  18.922  0.00  0.00    +0.000 OA
ATOM     26  C   UNL     1       3.826   3.422  18.142  0.00  0.00    +0.000 C 
ENDBRANCH  21  25
ENDBRANCH  16  17
ENDBRANCH   4  16
TORSDOF 6
ENDMDL
MODEL 9
REMARK VINA RESULT:      -6.6      2.904      5.291
REMARK  Name = 
REMARK  10 active torsions:
REMARK  status: ('A' for Active; 'I' for Inactive)
REMARK    1  A    between atoms: C_1  and  C_2
REMARK    2  A    between atoms: C_2  and  O_3
REMARK    3  A    between atoms: O_3  and  C_4
REMARK    4  A    between atoms: C_9  and  N_10
REMARK    5  A    between atoms: N_13  and  C_14
REMARK    6  A    between atoms: C_14  and  C_15
REMARK    7  A    between atoms: C_17  and  C_18
REMARK    8  A    between atoms: C_19  and  O_20
REMARK    9  A    between atoms: O_20  and  C_21
REMARK   10  A    between atoms: C_22  and  C_23
REMARK                            x       y       z     vdW  Elec       q    Type
REMARK                         _______ _______ _______ _____ _____    ______ ____
ROOT
ATOM      1  N   UNL     1       4.029   6.173  18.006  0.00  0.00    +0.000 N 
ATOM      2  C   UNL     1       3.465   7.494  17.720  0.00  0.00    +0.000 C 
ATOM      3  C   UNL     1       1.957   7.477  18.000  0.00  0.00    +0.000 C 
ATOM      4  N   UNL     1       1.660   7.051  19.389  0.00  0.00    +0.000 NA
ATOM      5  C   UNL     1       2.239   5.720  19.659  0.00  0.00    +0.000 C 
ATOM      6  C   UNL     1       3.766   5.686  19.353  0.00  0.00    +0.000 C 
ENDROOT
BRANCH   1  12
ATOM      7  C   UNL     1       6.232   6.179  16.645  0.00  0.00    +0.000 A 
ATOM      8  C   UNL     1       7.032   5.490  15.723  0.00  0.00    +0.000 A 
ATOM      9  C   UNL     1       6.700   4.221  15.267  0.00  0.00    +0.000 A 
ATOM     10  C   UNL     1       5.548   3.607  15.722  0.00  0.00    +0.000 A 
ATOM     11  C   UNL     1       4.716   4.262  16.626  0.00  0.00    +0.000 A 
ATOM     12  C   UNL     1       5.009   5.563  17.121  0.00  0.00    +0.000 A 
BRANCH   7  13
ATOM     13  O   UNL     1       6.766   7.368  17.029  0.00  0.00    +0.000 OA
BRANCH  13  15
ATOM     14  C   UNL     1       8.144   9.093  17.930  0.00  0.00    +0.000 C 
ATOM     15  C   UNL     1       7.831   7.594  17.868  0.00  0.00    +0.000 C 
ENDBRANCH  13  15
ENDBRANCH   7  13
ENDBRANCH   1  12
BRANCH   4  16
ATOM     16  C   UNL     1       2.050   8.020  20.436  0.00  0.00    +0.000 C 
BRANCH  16  17
ATOM     17  C   UNL     1       1.048   9.125  20.610  0.00  0.00    +0.000 A 
ATOM     18  C   UNL     1       0.380   9.298  21.818  0.00  0.00    +0.000 A 
ATOM     19  C   UNL     1      -0.510  10.364  21.990  0.00  0.00    +0.000 A 
ATOM     20  C   UNL     1      -1.210  10.523  23.315  0.00  0.00    +0.000 C 
ATOM     21  C   UNL     1      -0.733  11.296  20.946  0.00  0.00    +0.000 A 
ATOM     22  C   UNL     1      -0.067  11.093  19.689  0.00  0.00    +0.000 A 
ATOM     23  C   UNL     1      -0.184  11.923  18.434  0.00  0.00    +0.000 C 
ATOM     24  C   UNL     1       0.807  10.005  19.557  0.00  0.00    +0.000 A 
BRANCH  21  25
ATOM     25  O   UNL     1      -1.560  12.334  21.269  0.00  0.00    +0.000 OA
ATOM     26  C   UNL     1      -2.786  12.697  20.761  0.00  0.00    +0.000 C 
ENDBRANCH  21  25
ENDBRANCH  16  17
ENDBRANCH   4  16
TORSDOF 6
ENDMDL
