MODEL 1
REMARK VINA RESULT:      -8.3      0.000      0.000
REMARK  Name = 
REMARK  6 active torsions:
REMARK  status: ('A' for Active; 'I' for Inactive)
REMARK    1  A    between atoms: C_1  and  O_2
REMARK    2  A    between atoms: O_2  and  C_3
REMARK    3  A    between atoms: C_8  and  O_9
REMARK    4  A    between atoms: O_9  and  C_10
REMARK    5  A    between atoms: C_17  and  O_18
REMARK    6  A    between atoms: O_18  and  C_19
REMARK                            x       y       z     vdW  Elec       q    Type
REMARK                         _______ _______ _______ _____ _____    ______ ____
ROOT
ATOM      1  C   UNL     1       3.729   4.102  19.007  0.00  0.00    +0.000 A 
ATOM      2  C   UNL     1       3.909   5.296  18.306  0.00  0.00    +0.000 A 
ATOM      3  C   UNL     1       3.219   6.456  18.667  0.00  0.00    +0.000 A 
ATOM      4  C   UNL     1       2.365   6.480  19.784  0.00  0.00    +0.000 A 
ATOM      5  C   UNL     1       2.266   5.294  20.531  0.00  0.00    +0.000 A 
ATOM      6  C   UNL     1       2.951   4.120  20.170  0.00  0.00    +0.000 A 
ATOM      7  C   UNL     1       1.632   7.716  20.122  0.00  0.00    +0.000 A 
ATOM      8  C   UNL     1       1.064   7.995  21.365  0.00  0.00    +0.000 A 
ATOM      9  C   UNL     1       0.414   9.211  21.600  0.00  0.00    +0.000 A 
ATOM     10  C   UNL     1      -0.145   9.445  22.863  0.00  0.00    +0.000 A 
ATOM     11  C   UNL     1      -0.788  10.646  23.139  0.00  0.00    +0.000 A 
ATOM     12  C   UNL     1      -0.869  11.617  22.156  0.00  0.00    +0.000 A 
ATOM     13  C   UNL     1      -0.326  11.421  20.877  0.00  0.00    +0.000 A 
ATOM     14  C   UNL     1       0.326  10.188  20.579  0.00  0.00    +0.000 A 
ATOM     15  C   UNL     1       0.897   9.830  19.355  0.00  0.00    +0.000 A 
ATOM     16  N   UNL     1       1.529   8.653  19.140  0.00  0.00    +0.000 N 
ATOM     17  C   UNL     1       2.044   8.392  17.770  0.00  0.00    +0.000 C 
ATOM     18  C   UNL     1       3.384   7.697  17.842  0.00  0.00    +0.000 C 
ENDROOT
BRANCH   1  20
ATOM     19  C   UNL     1       3.362   2.054  17.895  0.00  0.00    +0.000 C 
ATOM     20  O   UNL     1       4.274   2.925  18.568  0.00  0.00    +0.000 OA
ENDBRANCH   1  20
BRANCH   6  21
ATOM     21  O   UNL     1       2.698   3.073  21.017  0.00  0.00    +0.000 OA
ATOM     22  C   UNL     1       1.332   2.804  21.318  0.00  0.00    +0.000 C 
ENDBRANCH   6  21
BRANCH  13  23
ATOM     23  O   UNL     1      -0.537  12.529  20.106  0.00  0.00    +0.000 OA
ATOM     24  C   UNL     1      -1.547  12.633  19.127  0.00  0.00    +0.000 C 
ENDBRANCH  13  23
TORSDOF 3
ENDMDL
MODEL 2
REMARK VINA RESULT:      -7.8      1.351      7.199
REMARK  Name = 
REMARK  6 active torsions:
REMARK  status: ('A' for Active; 'I' for Inactive)
REMARK    1  A    between atoms: C_1  and  O_2
REMARK    2  A    between atoms: O_2  and  C_3
REMARK    3  A    between atoms: C_8  and  O_9
REMARK    4  A    between atoms: O_9  and  C_10
REMARK    5  A    between atoms: C_17  and  O_18
REMARK    6  A    between atoms: O_18  and  C_19
REMARK                            x       y       z     vdW  Elec       q    Type
REMARK                         _______ _______ _______ _____ _____    ______ ____
ROOT
ATOM      1  C   UNL     1       0.305  11.379  20.549  0.00  0.00    +0.000 A 
ATOM      2  C   UNL     1       0.623  10.916  19.271  0.00  0.00    +0.000 A 
ATOM      3  C   UNL     1       1.126   9.626  19.075  0.00  0.00    +0.000 A 
ATOM      4  C   UNL     1       1.274   8.729  20.147  0.00  0.00    +0.000 A 
ATOM      5  C   UNL     1       0.865   9.182  21.412  0.00  0.00    +0.000 A 
ATOM      6  C   UNL     1       0.364  10.480  21.620  0.00  0.00    +0.000 A 
ATOM      7  C   UNL     1       1.833   7.384  19.908  0.00  0.00    +0.000 A 
ATOM      8  C   UNL     1       1.695   6.296  20.769  0.00  0.00    +0.000 A 
ATOM      9  C   UNL     1       2.235   5.048  20.440  0.00  0.00    +0.000 A 
ATOM     10  C   UNL     1       2.076   3.985  21.338  0.00  0.00    +0.000 A 
ATOM     11  C   UNL     1       2.586   2.727  21.041  0.00  0.00    +0.000 A 
ATOM     12  C   UNL     1       3.252   2.527  19.845  0.00  0.00    +0.000 A 
ATOM     13  C   UNL     1       3.437   3.566  18.919  0.00  0.00    +0.000 A 
ATOM     14  C   UNL     1       2.927   4.863  19.219  0.00  0.00    +0.000 A 
ATOM     15  C   UNL     1       3.045   6.003  18.418  0.00  0.00    +0.000 A 
ATOM     16  N   UNL     1       2.513   7.204  18.743  0.00  0.00    +0.000 N 
ATOM     17  C   UNL     1       2.763   8.337  17.814  0.00  0.00    +0.000 C 
ATOM     18  C   UNL     1       1.524   9.195  17.695  0.00  0.00    +0.000 C 
ENDROOT
BRANCH   1  20
ATOM     19  C   UNL     1       1.064  13.555  21.050  0.00  0.00    +0.000 C 
ATOM     20  O   UNL     1      -0.036  12.685  20.773  0.00  0.00    +0.000 OA
ENDBRANCH   1  20
BRANCH   6  21
ATOM     21  O   UNL     1       0.046  10.726  22.930  0.00  0.00    +0.000 OA
ATOM     22  C   UNL     1      -1.336  10.870  23.242  0.00  0.00    +0.000 C 
ENDBRANCH   6  21
BRANCH  13  23
ATOM     23  O   UNL     1       4.115   3.102  17.828  0.00  0.00    +0.000 OA
ATOM     24  C   UNL     1       5.116   3.829  17.149  0.00  0.00    +0.000 C 
ENDBRANCH  13  23
TORSDOF 3
ENDMDL
MODEL 3
REMARK VINA RESULT:      -7.6      1.040      1.147
REMARK  Name = 
REMARK  6 active torsions:
REMARK  status: ('A' for Active; 'I' for Inactive)
REMARK    1  A    between atoms: C_1  and  O_2
REMARK    2  A    between atoms: O_2  and  C_3
REMARK    3  A    between atoms: C_8  and  O_9
REMARK    4  A    between atoms: O_9  and  C_10
REMARK    5  A    between atoms: C_17  and  O_18
REMARK    6  A    between atoms: O_18  and  C_19
REMARK                            x       y       z     vdW  Elec       q    Type
REMARK                         _______ _______ _______ _____ _____    ______ ____
ROOT
ATOM      1  C   UNL     1       3.257   4.924  19.273  0.00  0.00    +0.000 A 
ATOM      2  C   UNL     1       3.373   6.086  18.509  0.00  0.00    +0.000 A 
ATOM      3  C   UNL     1       2.646   7.236  18.829  0.00  0.00    +0.000 A 
ATOM      4  C   UNL     1       1.820   7.285  19.966  0.00  0.00    +0.000 A 
ATOM      5  C   UNL     1       1.785   6.136  20.773  0.00  0.00    +0.000 A 
ATOM      6  C   UNL     1       2.507   4.971  20.454  0.00  0.00    +0.000 A 
ATOM      7  C   UNL     1       1.046   8.507  20.260  0.00  0.00    +0.000 A 
ATOM      8  C   UNL     1       0.499   8.828  21.502  0.00  0.00    +0.000 A 
ATOM      9  C   UNL     1      -0.193  10.029  21.693  0.00  0.00    +0.000 A 
ATOM     10  C   UNL     1      -0.730  10.306  22.957  0.00  0.00    +0.000 A 
ATOM     11  C   UNL     1      -1.413  11.494  23.188  0.00  0.00    +0.000 A 
ATOM     12  C   UNL     1      -1.556  12.409  22.161  0.00  0.00    +0.000 A 
ATOM     13  C   UNL     1      -1.037  12.169  20.880  0.00  0.00    +0.000 A 
ATOM     14  C   UNL     1      -0.344  10.948  20.627  0.00  0.00    +0.000 A 
ATOM     15  C   UNL     1       0.211  10.550  19.407  0.00  0.00    +0.000 A 
ATOM     16  N   UNL     1       0.883   9.388  19.236  0.00  0.00    +0.000 N 
ATOM     17  C   UNL     1       1.375   9.078  17.867  0.00  0.00    +0.000 C 
ATOM     18  C   UNL     1       2.743   8.439  17.939  0.00  0.00    +0.000 C 
ENDROOT
BRANCH   1  20
ATOM     19  C   UNL     1       5.078   3.892  18.184  0.00  0.00    +0.000 C 
ATOM     20  O   UNL     1       3.837   3.748  18.880  0.00  0.00    +0.000 OA
ENDBRANCH   1  20
BRANCH   6  21
ATOM     21  O   UNL     1       2.316   3.960  21.359  0.00  0.00    +0.000 OA
ATOM     22  C   UNL     1       1.254   3.049  21.091  0.00  0.00    +0.000 C 
ENDBRANCH   6  21
BRANCH  13  23
ATOM     23  O   UNL     1      -1.309  13.227  20.060  0.00  0.00    +0.000 OA
ATOM     24  C   UNL     1      -0.329  14.091  19.528  0.00  0.00    +0.000 C 
ENDBRANCH  13  23
TORSDOF 3
ENDMDL
MODEL 4
REMARK VINA RESULT:      -7.4      4.142      6.927
REMARK  Name = 
REMARK  6 active torsions:
REMARK  status: ('A' for Active; 'I' for Inactive)
REMARK    1  A    between atoms: C_1  and  O_2
REMARK    2  A    between atoms: O_2  and  C_3
REMARK    3  A    between atoms: C_8  and  O_9
REMARK    4  A    between atoms: O_9  and  C_10
REMARK    5  A    between atoms: C_17  and  O_18
REMARK    6  A    between atoms: O_18  and  C_19
REMARK                            x       y       z     vdW  Elec       q    Type
REMARK                         _______ _______ _______ _____ _____    ______ ____
ROOT
ATOM      1  C   UNL     1       7.073   4.546  13.237  0.00  0.00    +0.000 A 
ATOM      2  C   UNL     1       7.349   5.288  14.387  0.00  0.00    +0.000 A 
ATOM      3  C   UNL     1       6.467   5.292  15.472  0.00  0.00    +0.000 A 
ATOM      4  C   UNL     1       5.303   4.504  15.470  0.00  0.00    +0.000 A 
ATOM      5  C   UNL     1       5.087   3.695  14.341  0.00  0.00    +0.000 A 
ATOM      6  C   UNL     1       5.966   3.690  13.242  0.00  0.00    +0.000 A 
ATOM      7  C   UNL     1       4.381   4.552  16.621  0.00  0.00    +0.000 A 
ATOM      8  C   UNL     1       3.421   3.586  16.918  0.00  0.00    +0.000 A 
ATOM      9  C   UNL     1       2.612   3.703  18.054  0.00  0.00    +0.000 A 
ATOM     10  C   UNL     1       1.657   2.710  18.309  0.00  0.00    +0.000 A 
ATOM     11  C   UNL     1       0.844   2.784  19.434  0.00  0.00    +0.000 A 
ATOM     12  C   UNL     1       0.986   3.847  20.308  0.00  0.00    +0.000 A 
ATOM     13  C   UNL     1       1.927   4.865  20.087  0.00  0.00    +0.000 A 
ATOM     14  C   UNL     1       2.759   4.804  18.930  0.00  0.00    +0.000 A 
ATOM     15  C   UNL     1       3.725   5.743  18.557  0.00  0.00    +0.000 A 
ATOM     16  N   UNL     1       4.506   5.617  17.459  0.00  0.00    +0.000 N 
ATOM     17  C   UNL     1       5.456   6.722  17.164  0.00  0.00    +0.000 C 
ATOM     18  C   UNL     1       6.765   6.160  16.657  0.00  0.00    +0.000 C 
ENDROOT
BRANCH   1  20
ATOM     19  C   UNL     1       7.874   5.964  11.530  0.00  0.00    +0.000 C 
ATOM     20  O   UNL     1       7.844   4.658  12.111  0.00  0.00    +0.000 OA
ENDBRANCH   1  20
BRANCH   6  21
ATOM     21  O   UNL     1       5.559   2.850  12.238  0.00  0.00    +0.000 OA
ATOM     22  C   UNL     1       4.447   3.273  11.455  0.00  0.00    +0.000 C 
ENDBRANCH   6  21
BRANCH  13  23
ATOM     23  O   UNL     1       1.866   5.783  21.096  0.00  0.00    +0.000 OA
ATOM     24  C   UNL     1       1.408   7.108  20.936  0.00  0.00    +0.000 C 
ENDBRANCH  13  23
TORSDOF 3
ENDMDL
MODEL 5
REMARK VINA RESULT:      -6.9      1.655      7.811
REMARK  Name = 
REMARK  6 active torsions:
REMARK  status: ('A' for Active; 'I' for Inactive)
REMARK    1  A    between atoms: C_1  and  O_2
REMARK    2  A    between atoms: O_2  and  C_3
REMARK    3  A    between atoms: C_8  and  O_9
REMARK    4  A    between atoms: O_9  and  C_10
REMARK    5  A    between atoms: C_17  and  O_18
REMARK    6  A    between atoms: O_18  and  C_19
REMARK                            x       y       z     vdW  Elec       q    Type
REMARK                         _______ _______ _______ _____ _____    ______ ____
ROOT
ATOM      1  C   UNL     1      -1.039  11.244  19.956  0.00  0.00    +0.000 A 
ATOM      2  C   UNL     1      -0.408  10.505  20.958  0.00  0.00    +0.000 A 
ATOM      3  C   UNL     1       0.536   9.522  20.645  0.00  0.00    +0.000 A 
ATOM      4  C   UNL     1       0.928   9.283  19.316  0.00  0.00    +0.000 A 
ATOM      5  C   UNL     1       0.348  10.098  18.328  0.00  0.00    +0.000 A 
ATOM      6  C   UNL     1      -0.608  11.084  18.634  0.00  0.00    +0.000 A 
ATOM      7  C   UNL     1       1.907   8.220  19.018  0.00  0.00    +0.000 A 
ATOM      8  C   UNL     1       2.647   8.121  17.840  0.00  0.00    +0.000 A 
ATOM      9  C   UNL     1       3.578   7.092  17.663  0.00  0.00    +0.000 A 
ATOM     10  C   UNL     1       4.294   7.029  16.460  0.00  0.00    +0.000 A 
ATOM     11  C   UNL     1       5.237   6.029  16.251  0.00  0.00    +0.000 A 
ATOM     12  C   UNL     1       5.470   5.094  17.244  0.00  0.00    +0.000 A 
ATOM     13  C   UNL     1       4.772   5.119  18.461  0.00  0.00    +0.000 A 
ATOM     14  C   UNL     1       3.794   6.134  18.682  0.00  0.00    +0.000 A 
ATOM     15  C   UNL     1       3.002   6.284  19.824  0.00  0.00    +0.000 A 
ATOM     16  N   UNL     1       2.108   7.286  19.987  0.00  0.00    +0.000 N 
ATOM     17  C   UNL     1       1.302   7.288  21.237  0.00  0.00    +0.000 C 
ATOM     18  C   UNL     1       1.135   8.701  21.746  0.00  0.00    +0.000 C 
ENDROOT
BRANCH   1  20
ATOM     19  C   UNL     1      -1.740  13.187  21.095  0.00  0.00    +0.000 C 
ATOM     20  O   UNL     1      -2.075  12.093  20.237  0.00  0.00    +0.000 OA
ENDBRANCH   1  20
BRANCH   6  21
ATOM     21  O   UNL     1      -1.063  11.748  17.525  0.00  0.00    +0.000 OA
ATOM     22  C   UNL     1      -2.216  11.214  16.882  0.00  0.00    +0.000 C 
ENDBRANCH   6  21
BRANCH  13  23
ATOM     23  O   UNL     1       5.194   4.096  19.262  0.00  0.00    +0.000 OA
ATOM     24  C   UNL     1       4.455   2.918  19.500  0.00  0.00    +0.000 C 
ENDBRANCH  13  23
TORSDOF 3
ENDMDL
MODEL 6
REMARK VINA RESULT:      -6.8      1.652      7.905
REMARK  Name = 
REMARK  6 active torsions:
REMARK  status: ('A' for Active; 'I' for Inactive)
REMARK    1  A    between atoms: C_1  and  O_2
REMARK    2  A    between atoms: O_2  and  C_3
REMARK    3  A    between atoms: C_8  and  O_9
REMARK    4  A    between atoms: O_9  and  C_10
REMARK    5  A    between atoms: C_17  and  O_18
REMARK    6  A    between atoms: O_18  and  C_19
REMARK                            x       y       z     vdW  Elec       q    Type
REMARK                         _______ _______ _______ _____ _____    ______ ____
ROOT
ATOM      1  C   UNL     1      -0.064  11.091  20.423  0.00  0.00    +0.000 A 
ATOM      2  C   UNL     1       0.250   9.981  21.209  0.00  0.00    +0.000 A 
ATOM      3  C   UNL     1       1.007   8.924  20.695  0.00  0.00    +0.000 A 
ATOM      4  C   UNL     1       1.529   8.966  19.391  0.00  0.00    +0.000 A 
ATOM      5  C   UNL     1       1.278  10.130  18.645  0.00  0.00    +0.000 A 
ATOM      6  C   UNL     1       0.512  11.196  19.152  0.00  0.00    +0.000 A 
ATOM      7  C   UNL     1       2.302   7.821  18.871  0.00  0.00    +0.000 A 
ATOM      8  C   UNL     1       3.167   7.870  17.778  0.00  0.00    +0.000 A 
ATOM      9  C   UNL     1       3.882   6.736  17.378  0.00  0.00    +0.000 A 
ATOM     10  C   UNL     1       4.736   6.831  16.272  0.00  0.00    +0.000 A 
ATOM     11  C   UNL     1       5.474   5.730  15.852  0.00  0.00    +0.000 A 
ATOM     12  C   UNL     1       5.364   4.534  16.539  0.00  0.00    +0.000 A 
ATOM     13  C   UNL     1       4.517   4.395  17.650  0.00  0.00    +0.000 A 
ATOM     14  C   UNL     1       3.747   5.515  18.082  0.00  0.00    +0.000 A 
ATOM     15  C   UNL     1       2.847   5.536  19.151  0.00  0.00    +0.000 A 
ATOM     16  N   UNL     1       2.164   6.640  19.533  0.00  0.00    +0.000 N 
ATOM     17  C   UNL     1       1.204   6.496  20.659  0.00  0.00    +0.000 C 
ATOM     18  C   UNL     1       1.259   7.717  21.548  0.00  0.00    +0.000 C 
ENDROOT
BRANCH   1  20
ATOM     19  C   UNL     1      -0.404  12.935  21.855  0.00  0.00    +0.000 C 
ATOM     20  O   UNL     1      -0.933  12.055  20.861  0.00  0.00    +0.000 OA
ENDBRANCH   1  20
BRANCH   6  21
ATOM     21  O   UNL     1       0.368  12.223  18.257  0.00  0.00    +0.000 OA
ATOM     22  C   UNL     1       1.275  13.315  18.376  0.00  0.00    +0.000 C 
ENDBRANCH   6  21
BRANCH  13  23
ATOM     23  O   UNL     1       4.600   3.124  18.144  0.00  0.00    +0.000 OA
ATOM     24  C   UNL     1       3.595   2.146  17.989  0.00  0.00    +0.000 C 
ENDBRANCH  13  23
TORSDOF 3
ENDMDL
MODEL 7
REMARK VINA RESULT:      -6.5      1.656      3.410
REMARK  Name = 
REMARK  6 active torsions:
REMARK  status: ('A' for Active; 'I' for Inactive)
REMARK    1  A    between atoms: C_1  and  O_2
REMARK    2  A    between atoms: O_2  and  C_3
REMARK    3  A    between atoms: C_8  and  O_9
REMARK    4  A    between atoms: O_9  and  C_10
REMARK    5  A    between atoms: C_17  and  O_18
REMARK    6  A    between atoms: O_18  and  C_19
REMARK                            x       y       z     vdW  Elec       q    Type
REMARK                         _______ _______ _______ _____ _____    ______ ____
ROOT
ATOM      1  C   UNL     1       3.524   3.067  17.800  0.00  0.00    +0.000 A 
ATOM      2  C   UNL     1       2.598   3.245  18.830  0.00  0.00    +0.000 A 
ATOM      3  C   UNL     1       2.203   4.524  19.233  0.00  0.00    +0.000 A 
ATOM      4  C   UNL     1       2.677   5.674  18.579  0.00  0.00    +0.000 A 
ATOM      5  C   UNL     1       3.539   5.473  17.488  0.00  0.00    +0.000 A 
ATOM      6  C   UNL     1       3.946   4.190  17.079  0.00  0.00    +0.000 A 
ATOM      7  C   UNL     1       2.260   7.010  19.048  0.00  0.00    +0.000 A 
ATOM      8  C   UNL     1       2.343   8.183  18.297  0.00  0.00    +0.000 A 
ATOM      9  C   UNL     1       1.891   9.401  18.818  0.00  0.00    +0.000 A 
ATOM     10  C   UNL     1       1.999  10.554  18.029  0.00  0.00    +0.000 A 
ATOM     11  C   UNL     1       1.550  11.780  18.506  0.00  0.00    +0.000 A 
ATOM     12  C   UNL     1       0.988  11.856  19.768  0.00  0.00    +0.000 A 
ATOM     13  C   UNL     1       0.865  10.726  20.591  0.00  0.00    +0.000 A 
ATOM     14  C   UNL     1       1.332   9.465  20.117  0.00  0.00    +0.000 A 
ATOM     15  C   UNL     1       1.303   8.255  20.817  0.00  0.00    +0.000 A 
ATOM     16  N   UNL     1       1.737   7.082  20.302  0.00  0.00    +0.000 N 
ATOM     17  C   UNL     1       1.687   5.887  21.185  0.00  0.00    +0.000 C 
ATOM     18  C   UNL     1       1.263   4.672  20.391  0.00  0.00    +0.000 C 
ENDROOT
BRANCH   1  20
ATOM     19  C   UNL     1       4.022   0.900  18.587  0.00  0.00    +0.000 C 
ATOM     20  O   UNL     1       4.036   1.833  17.504  0.00  0.00    +0.000 OA
ENDBRANCH   1  20
BRANCH   6  21
ATOM     21  O   UNL     1       4.805   4.217  16.012  0.00  0.00    +0.000 OA
ATOM     22  C   UNL     1       6.171   4.509  16.291  0.00  0.00    +0.000 C 
ENDBRANCH   6  21
BRANCH  13  23
ATOM     23  O   UNL     1       0.274  11.072  21.773  0.00  0.00    +0.000 OA
ATOM     24  C   UNL     1      -0.984  11.701  21.877  0.00  0.00    +0.000 C 
ENDBRANCH  13  23
TORSDOF 3
ENDMDL
MODEL 8
REMARK VINA RESULT:      -6.4      2.013      3.617
REMARK  Name = 
REMARK  6 active torsions:
REMARK  status: ('A' for Active; 'I' for Inactive)
REMARK    1  A    between atoms: C_1  and  O_2
REMARK    2  A    between atoms: O_2  and  C_3
REMARK    3  A    between atoms: C_8  and  O_9
REMARK    4  A    between atoms: O_9  and  C_10
REMARK    5  A    between atoms: C_17  and  O_18
REMARK    6  A    between atoms: O_18  and  C_19
REMARK                            x       y       z     vdW  Elec       q    Type
REMARK                         _______ _______ _______ _____ _____    ______ ____
ROOT
ATOM      1  C   UNL     1       4.768   4.584  17.069  0.00  0.00    +0.000 A 
ATOM      2  C   UNL     1       3.727   4.227  17.927  0.00  0.00    +0.000 A 
ATOM      3  C   UNL     1       2.960   5.199  18.575  0.00  0.00    +0.000 A 
ATOM      4  C   UNL     1       3.169   6.570  18.342  0.00  0.00    +0.000 A 
ATOM      5  C   UNL     1       4.162   6.909  17.408  0.00  0.00    +0.000 A 
ATOM      6  C   UNL     1       4.943   5.937  16.756  0.00  0.00    +0.000 A 
ATOM      7  C   UNL     1       2.360   7.570  19.064  0.00  0.00    +0.000 A 
ATOM      8  C   UNL     1       2.199   8.900  18.676  0.00  0.00    +0.000 A 
ATOM      9  C   UNL     1       1.382   9.768  19.410  0.00  0.00    +0.000 A 
ATOM     10  C   UNL     1       1.255  11.097  18.985  0.00  0.00    +0.000 A 
ATOM     11  C   UNL     1       0.443  11.985  19.680  0.00  0.00    +0.000 A 
ATOM     12  C   UNL     1      -0.247  11.548  20.796  0.00  0.00    +0.000 A 
ATOM     13  C   UNL     1      -0.144  10.226  21.257  0.00  0.00    +0.000 A 
ATOM     14  C   UNL     1       0.695   9.309  20.559  0.00  0.00    +0.000 A 
ATOM     15  C   UNL     1       0.921   7.972  20.900  0.00  0.00    +0.000 A 
ATOM     16  N   UNL     1       1.709   7.140  20.179  0.00  0.00    +0.000 N 
ATOM     17  C   UNL     1       1.894   5.757  20.693  0.00  0.00    +0.000 C 
ATOM     18  C   UNL     1       1.899   4.773  19.546  0.00  0.00    +0.000 C 
ENDROOT
BRANCH   1  20
ATOM     19  C   UNL     1       5.726   3.645  15.128  0.00  0.00    +0.000 C 
ATOM     20  O   UNL     1       5.624   3.648  16.554  0.00  0.00    +0.000 OA
ENDBRANCH   1  20
BRANCH   6  21
ATOM     21  O   UNL     1       5.869   6.479  15.903  0.00  0.00    +0.000 OA
ATOM     22  C   UNL     1       7.127   6.842  16.464  0.00  0.00    +0.000 C 
ENDBRANCH   6  21
BRANCH  13  23
ATOM     23  O   UNL     1      -0.926  10.057  22.365  0.00  0.00    +0.000 OA
ATOM     24  C   UNL     1      -1.466  11.116  23.124  0.00  0.00    +0.000 C 
ENDBRANCH  13  23
TORSDOF 3
ENDMDL
MODEL 9
REMARK VINA RESULT:      -6.3      1.420      7.993
REMARK  Name = 
REMARK  6 active torsions:
REMARK  status: ('A' for Active; 'I' for Inactive)
REMARK    1  A    between atoms: C_1  and  O_2
REMARK    2  A    between atoms: O_2  and  C_3
REMARK    3  A    between atoms: C_8  and  O_9
REMARK    4  A    between atoms: O_9  and  C_10
REMARK    5  A    between atoms: C_17  and  O_18
REMARK    6  A    between atoms: O_18  and  C_19
REMARK                            x       y       z     vdW  Elec       q    Type
REMARK                         _______ _______ _______ _____ _____    ______ ____
ROOT
ATOM      1  C   UNL     1      -1.209  12.652  20.934  0.00  0.00    +0.000 A 
ATOM      2  C   UNL     1      -0.884  11.715  21.917  0.00  0.00    +0.000 A 
ATOM      3  C   UNL     1      -0.159  10.562  21.602  0.00  0.00    +0.000 A 
ATOM      4  C   UNL     1       0.319  10.332  20.301  0.00  0.00    +0.000 A 
ATOM      5  C   UNL     1       0.059  11.328  19.345  0.00  0.00    +0.000 A 
ATOM      6  C   UNL     1      -0.676  12.489  19.651  0.00  0.00    +0.000 A 
ATOM      7  C   UNL     1       1.058   9.091  19.998  0.00  0.00    +0.000 A 
ATOM      8  C   UNL     1       1.887   8.903  18.892  0.00  0.00    +0.000 A 
ATOM      9  C   UNL     1       2.573   7.698  18.706  0.00  0.00    +0.000 A 
ATOM     10  C   UNL     1       3.390   7.552  17.578  0.00  0.00    +0.000 A 
ATOM     11  C   UNL     1       4.098   6.375  17.365  0.00  0.00    +0.000 A 
ATOM     12  C   UNL     1       3.995   5.344  18.281  0.00  0.00    +0.000 A 
ATOM     13  C   UNL     1       3.185   5.447  19.423  0.00  0.00    +0.000 A 
ATOM     14  C   UNL     1       2.446   6.646  19.645  0.00  0.00    +0.000 A 
ATOM     15  C   UNL     1       1.582   6.898  20.715  0.00  0.00    +0.000 A 
ATOM     16  N   UNL     1       0.927   8.069  20.887  0.00  0.00    +0.000 N 
ATOM     17  C   UNL     1       0.003   8.173  22.048  0.00  0.00    +0.000 C 
ATOM     18  C   UNL     1       0.105   9.546  22.672  0.00  0.00    +0.000 C 
ENDROOT
BRANCH   1  20
ATOM     19  C   UNL     1      -3.414  13.336  21.420  0.00  0.00    +0.000 C 
ATOM     20  O   UNL     1      -2.050  13.700  21.195  0.00  0.00    +0.000 OA
ENDBRANCH   1  20
BRANCH   6  21
ATOM     21  O   UNL     1      -0.836  13.319  18.572  0.00  0.00    +0.000 OA
ATOM     22  C   UNL     1      -0.052  14.508  18.551  0.00  0.00    +0.000 C 
ENDBRANCH   6  21
BRANCH  13  23
ATOM     23  O   UNL     1       3.267   4.299  20.158  0.00  0.00    +0.000 OA
ATOM     24  C   UNL     1       2.449   3.167  19.957  0.00  0.00    +0.000 C 
ENDBRANCH  13  23
TORSDOF 3
ENDMDL
