MODEL 1
REMARK VINA RESULT:      -7.5      0.000      0.000
REMARK  Name = 
REMARK  4 active torsions:
REMARK  status: ('A' for Active; 'I' for Inactive)
REMARK    1  A    between atoms: C_2  and  C_3
REMARK    2  A    between atoms: C_3  and  O_4
REMARK    3  A    between atoms: O_4  and  C_5
REMARK    4  A    between atoms: C_5  and  C_6
REMARK                            x       y       z     vdW  Elec       q    Type
REMARK                         _______ _______ _______ _____ _____    ______ ____
ROOT
ATOM      1  O   UNL     1       1.516   9.416  18.784  0.00  0.00    +0.000 OA
ATOM      2  C   UNL     1       1.075   9.083  19.886  0.00  0.00    +0.000 C 
ATOM      3  N   UNL     1      -0.052   9.663  20.441  0.00  0.00    +0.000 N 
ATOM      4  C   UNL     1      -0.605   9.371  21.767  0.00  0.00    +0.000 C 
ATOM      5  C   UNL     1      -0.752  10.653  22.611  0.00  0.00    +0.000 C 
ATOM      6  N   UNL     1      -1.442  11.709  21.865  0.00  0.00    +0.000 N 
ATOM      7  C   UNL     1      -2.636  12.238  22.301  0.00  0.00    +0.000 A 
ATOM      8  C   UNL     1      -2.858  12.471  23.663  0.00  0.00    +0.000 A 
ATOM      9  C   UNL     1      -4.060  13.028  24.104  0.00  0.00    +0.000 A 
ATOM     10  C   UNL     1      -5.031  13.340  23.171  0.00  0.00    +0.000 A 
ATOM     11 BR   UNL     1      -6.672  14.092  23.705  0.00  0.00    +0.000 Br
ATOM     12  C   UNL     1      -4.751  13.093  21.841  0.00  0.00    +0.000 A 
ATOM     13  N   UNL     1      -3.582  12.562  21.395  0.00  0.00    +0.000 NA
ATOM     14  C   UNL     1      -0.976  11.968  20.494  0.00  0.00    +0.000 C 
ATOM     15  C   UNL     1      -0.812  10.667  19.689  0.00  0.00    +0.000 C 
ENDROOT
BRANCH   2  16
ATOM     16  C   UNL     1       1.786   7.980  20.687  0.00  0.00    +0.000 C 
BRANCH  16  17
ATOM     17  O   UNL     1       2.195   6.832  19.957  0.00  0.00    +0.000 OA
BRANCH  17  18
ATOM     18  C   UNL     1       1.679   5.619  20.514  0.00  0.00    +0.000 C 
BRANCH  18  19
ATOM     19  C   UNL     1       1.888   4.456  19.571  0.00  0.00    +0.000 A 
ATOM     20  C   UNL     1       2.167   4.659  18.208  0.00  0.00    +0.000 A 
ATOM     21  C   UNL     1       2.371   3.581  17.344  0.00  0.00    +0.000 A 
ATOM     22  C   UNL     1       2.299   2.278  17.827  0.00  0.00    +0.000 A 
ATOM     23  C   UNL     1       2.024   2.054  19.175  0.00  0.00    +0.000 A 
ATOM     24  C   UNL     1       1.820   3.133  20.040  0.00  0.00    +0.000 A 
ATOM     25 CL   UNL     1       1.490   2.775  21.701  0.00  0.00    +0.000 Cl
ENDBRANCH  18  19
ENDBRANCH  17  18
ENDBRANCH  16  17
ENDBRANCH   2  16
TORSDOF 4
ENDMDL
MODEL 2
REMARK VINA RESULT:      -7.4      1.690      1.960
REMARK  Name = 
REMARK  4 active torsions:
REMARK  status: ('A' for Active; 'I' for Inactive)
REMARK    1  A    between atoms: C_2  and  C_3
REMARK    2  A    between atoms: C_3  and  O_4
REMARK    3  A    between atoms: O_4  and  C_5
REMARK    4  A    between atoms: C_5  and  C_6
REMARK                            x       y       z     vdW  Elec       q    Type
REMARK                         _______ _______ _______ _____ _____    ______ ____
ROOT
ATOM      1  O   UNL     1       2.042   9.198  17.492  0.00  0.00    +0.000 OA
ATOM      2  C   UNL     1       1.694   8.870  18.629  0.00  0.00    +0.000 C 
ATOM      3  N   UNL     1       0.682   9.521  19.312  0.00  0.00    +0.000 N 
ATOM      4  C   UNL     1       0.250   9.237  20.684  0.00  0.00    +0.000 C 
ATOM      5  C   UNL     1       0.295  10.503  21.563  0.00  0.00    +0.000 C 
ATOM      6  N   UNL     1      -0.383  11.628  20.915  0.00  0.00    +0.000 N 
ATOM      7  C   UNL     1      -1.479  12.236  21.487  0.00  0.00    +0.000 A 
ATOM      8  C   UNL     1      -1.537  12.449  22.868  0.00  0.00    +0.000 A 
ATOM      9  C   UNL     1      -2.637  13.085  23.446  0.00  0.00    +0.000 A 
ATOM     10  C   UNL     1      -3.673  13.496  22.628  0.00  0.00    +0.000 A 
ATOM     11 BR   UNL     1      -5.183  14.358  23.349  0.00  0.00    +0.000 Br
ATOM     12  C   UNL     1      -3.555  13.264  21.272  0.00  0.00    +0.000 A 
ATOM     13  N   UNL     1      -2.486  12.657  20.693  0.00  0.00    +0.000 NA
ATOM     14  C   UNL     1      -0.044  11.887  19.507  0.00  0.00    +0.000 C 
ATOM     15  C   UNL     1      -0.070  10.600  18.665  0.00  0.00    +0.000 C 
ENDROOT
BRANCH   2  16
ATOM     16  C   UNL     1       2.395   7.694  19.329  0.00  0.00    +0.000 C 
BRANCH  16  17
ATOM     17  O   UNL     1       3.124   6.806  18.494  0.00  0.00    +0.000 OA
BRANCH  17  18
ATOM     18  C   UNL     1       3.648   5.686  19.217  0.00  0.00    +0.000 C 
BRANCH  18  19
ATOM     19  C   UNL     1       2.744   4.481  19.082  0.00  0.00    +0.000 A 
ATOM     20  C   UNL     1       1.700   4.244  19.993  0.00  0.00    +0.000 A 
ATOM     21  C   UNL     1       0.862   3.136  19.857  0.00  0.00    +0.000 A 
ATOM     22  C   UNL     1       1.052   2.242  18.807  0.00  0.00    +0.000 A 
ATOM     23  C   UNL     1       2.082   2.458  17.893  0.00  0.00    +0.000 A 
ATOM     24  C   UNL     1       2.921   3.568  18.029  0.00  0.00    +0.000 A 
ATOM     25 CL   UNL     1       4.172   3.773  16.851  0.00  0.00    +0.000 Cl
ENDBRANCH  18  19
ENDBRANCH  17  18
ENDBRANCH  16  17
ENDBRANCH   2  16
TORSDOF 4
ENDMDL
MODEL 3
REMARK VINA RESULT:      -7.3      1.670      1.824
REMARK  Name = 
REMARK  4 active torsions:
REMARK  status: ('A' for Active; 'I' for Inactive)
REMARK    1  A    between atoms: C_2  and  C_3
REMARK    2  A    between atoms: C_3  and  O_4
REMARK    3  A    between atoms: O_4  and  C_5
REMARK    4  A    between atoms: C_5  and  C_6
REMARK                            x       y       z     vdW  Elec       q    Type
REMARK                         _______ _______ _______ _____ _____    ______ ____
ROOT
ATOM      1  O   UNL     1       2.035  10.044  17.501  0.00  0.00    +0.000 OA
ATOM      2  C   UNL     1       1.558   9.451  18.471  0.00  0.00    +0.000 C 
ATOM      3  N   UNL     1       0.471   9.934  19.176  0.00  0.00    +0.000 N 
ATOM      4  C   UNL     1      -0.117   9.327  20.374  0.00  0.00    +0.000 C 
ATOM      5  C   UNL     1      -0.180  10.331  21.542  0.00  0.00    +0.000 C 
ATOM      6  N   UNL     1      -0.784  11.599  21.125  0.00  0.00    +0.000 N 
ATOM      7  C   UNL     1      -1.942  12.071  21.702  0.00  0.00    +0.000 A 
ATOM      8  C   UNL     1      -2.161  11.933  23.077  0.00  0.00    +0.000 A 
ATOM      9  C   UNL     1      -3.325  12.431  23.667  0.00  0.00    +0.000 A 
ATOM     10  C   UNL     1      -4.261  13.059  22.866  0.00  0.00    +0.000 A 
ATOM     11 BR   UNL     1      -5.848  13.750  23.603  0.00  0.00    +0.000 Br
ATOM     12  C   UNL     1      -3.984  13.171  21.517  0.00  0.00    +0.000 A 
ATOM     13  N   UNL     1      -2.852  12.703  20.930  0.00  0.00    +0.000 NA
ATOM     14  C   UNL     1      -0.285  12.194  19.875  0.00  0.00    +0.000 C 
ATOM     15  C   UNL     1      -0.206  11.159  18.739  0.00  0.00    +0.000 C 
ENDROOT
BRANCH   2  16
ATOM     16  C   UNL     1       2.179   8.120  18.928  0.00  0.00    +0.000 C 
BRANCH  16  17
ATOM     17  O   UNL     1       2.150   7.054  17.991  0.00  0.00    +0.000 OA
BRANCH  17  18
ATOM     18  C   UNL     1       3.357   6.284  18.003  0.00  0.00    +0.000 C 
BRANCH  18  19
ATOM     19  C   UNL     1       3.064   4.817  18.227  0.00  0.00    +0.000 A 
ATOM     20  C   UNL     1       1.774   4.292  18.041  0.00  0.00    +0.000 A 
ATOM     21  C   UNL     1       1.512   2.935  18.239  0.00  0.00    +0.000 A 
ATOM     22  C   UNL     1       2.536   2.076  18.628  0.00  0.00    +0.000 A 
ATOM     23  C   UNL     1       3.823   2.577  18.819  0.00  0.00    +0.000 A 
ATOM     24  C   UNL     1       4.086   3.936  18.621  0.00  0.00    +0.000 A 
ATOM     25 CL   UNL     1       5.708   4.482  18.870  0.00  0.00    +0.000 Cl
ENDBRANCH  18  19
ENDBRANCH  17  18
ENDBRANCH  16  17
ENDBRANCH   2  16
TORSDOF 4
ENDMDL
MODEL 4
REMARK VINA RESULT:      -7.2      3.818      5.205
REMARK  Name = 
REMARK  4 active torsions:
REMARK  status: ('A' for Active; 'I' for Inactive)
REMARK    1  A    between atoms: C_2  and  C_3
REMARK    2  A    between atoms: C_3  and  O_4
REMARK    3  A    between atoms: O_4  and  C_5
REMARK    4  A    between atoms: C_5  and  C_6
REMARK                            x       y       z     vdW  Elec       q    Type
REMARK                         _______ _______ _______ _____ _____    ______ ____
ROOT
ATOM      1  O   UNL     1       1.804   5.396  20.812  0.00  0.00    +0.000 OA
ATOM      2  C   UNL     1       2.087   6.094  19.836  0.00  0.00    +0.000 C 
ATOM      3  N   UNL     1       1.958   7.472  19.847  0.00  0.00    +0.000 N 
ATOM      4  C   UNL     1       2.211   8.368  18.715  0.00  0.00    +0.000 C 
ATOM      5  C   UNL     1       0.988   9.256  18.414  0.00  0.00    +0.000 C 
ATOM      6  N   UNL     1       0.490   9.909  19.628  0.00  0.00    +0.000 N 
ATOM      7  C   UNL     1       0.457  11.281  19.748  0.00  0.00    +0.000 A 
ATOM      8  C   UNL     1       0.098  12.084  18.661  0.00  0.00    +0.000 A 
ATOM      9  C   UNL     1       0.043  13.473  18.787  0.00  0.00    +0.000 A 
ATOM     10  C   UNL     1       0.358  14.043  20.007  0.00  0.00    +0.000 A 
ATOM     11 BR   UNL     1       0.303  15.910  20.240  0.00  0.00    +0.000 Br
ATOM     12  C   UNL     1       0.699  13.198  21.045  0.00  0.00    +0.000 A 
ATOM     13  N   UNL     1       0.745  11.843  20.941  0.00  0.00    +0.000 NA
ATOM     14  C   UNL     1       0.311   9.058  20.815  0.00  0.00    +0.000 C 
ATOM     15  C   UNL     1       1.537   8.164  21.069  0.00  0.00    +0.000 C 
ENDROOT
BRANCH   2  16
ATOM     16  C   UNL     1       2.608   5.429  18.552  0.00  0.00    +0.000 C 
BRANCH  16  17
ATOM     17  O   UNL     1       3.433   4.286  18.721  0.00  0.00    +0.000 OA
BRANCH  17  18
ATOM     18  C   UNL     1       4.389   4.142  17.665  0.00  0.00    +0.000 C 
BRANCH  18  19
ATOM     19  C   UNL     1       5.587   5.037  17.892  0.00  0.00    +0.000 A 
ATOM     20  C   UNL     1       6.259   5.061  19.126  0.00  0.00    +0.000 A 
ATOM     21  C   UNL     1       7.372   5.881  19.325  0.00  0.00    +0.000 A 
ATOM     22  C   UNL     1       7.833   6.693  18.293  0.00  0.00    +0.000 A 
ATOM     23  C   UNL     1       7.181   6.684  17.062  0.00  0.00    +0.000 A 
ATOM     24  C   UNL     1       6.067   5.863  16.862  0.00  0.00    +0.000 A 
ATOM     25 CL   UNL     1       5.315   5.902  15.304  0.00  0.00    +0.000 Cl
ENDBRANCH  18  19
ENDBRANCH  17  18
ENDBRANCH  16  17
ENDBRANCH   2  16
TORSDOF 4
ENDMDL
MODEL 5
REMARK VINA RESULT:      -7.2      2.787      3.679
REMARK  Name = 
REMARK  4 active torsions:
REMARK  status: ('A' for Active; 'I' for Inactive)
REMARK    1  A    between atoms: C_2  and  C_3
REMARK    2  A    between atoms: C_3  and  O_4
REMARK    3  A    between atoms: O_4  and  C_5
REMARK    4  A    between atoms: C_5  and  C_6
REMARK                            x       y       z     vdW  Elec       q    Type
REMARK                         _______ _______ _______ _____ _____    ______ ____
ROOT
ATOM      1  O   UNL     1       3.426   7.274  17.783  0.00  0.00    +0.000 OA
ATOM      2  C   UNL     1       2.879   7.030  18.861  0.00  0.00    +0.000 C 
ATOM      3  N   UNL     1       1.866   7.820  19.374  0.00  0.00    +0.000 N 
ATOM      4  C   UNL     1       1.207   7.638  20.671  0.00  0.00    +0.000 C 
ATOM      5  C   UNL     1       1.279   8.919  21.525  0.00  0.00    +0.000 C 
ATOM      6  N   UNL     1       0.846  10.094  20.764  0.00  0.00    +0.000 N 
ATOM      7  C   UNL     1      -0.239  10.848  21.156  0.00  0.00    +0.000 A 
ATOM      8  C   UNL     1      -0.471  11.114  22.509  0.00  0.00    +0.000 A 
ATOM      9  C   UNL     1      -1.557  11.896  22.906  0.00  0.00    +0.000 A 
ATOM     10  C   UNL     1      -2.405  12.399  21.936  0.00  0.00    +0.000 A 
ATOM     11 BR   UNL     1      -3.886  13.459  22.408  0.00  0.00    +0.000 Br
ATOM     12  C   UNL     1      -2.120  12.107  20.616  0.00  0.00    +0.000 A 
ATOM     13  N   UNL     1      -1.060  11.358  20.213  0.00  0.00    +0.000 NA
ATOM     14  C   UNL     1       1.415  10.262  19.418  0.00  0.00    +0.000 C 
ATOM     15  C   UNL     1       1.354   8.958  18.604  0.00  0.00    +0.000 C 
ENDROOT
BRANCH   2  16
ATOM     16  C   UNL     1       3.321   5.805  19.677  0.00  0.00    +0.000 C 
BRANCH  16  17
ATOM     17  O   UNL     1       4.714   5.531  19.703  0.00  0.00    +0.000 OA
BRANCH  17  18
ATOM     18  C   UNL     1       5.026   4.238  19.175  0.00  0.00    +0.000 C 
BRANCH  18  19
ATOM     19  C   UNL     1       5.547   4.341  17.759  0.00  0.00    +0.000 A 
ATOM     20  C   UNL     1       6.884   4.687  17.494  0.00  0.00    +0.000 A 
ATOM     21  C   UNL     1       7.362   4.769  16.185  0.00  0.00    +0.000 A 
ATOM     22  C   UNL     1       6.512   4.508  15.114  0.00  0.00    +0.000 A 
ATOM     23  C   UNL     1       5.183   4.163  15.354  0.00  0.00    +0.000 A 
ATOM     24  C   UNL     1       4.703   4.080  16.665  0.00  0.00    +0.000 A 
ATOM     25 CL   UNL     1       3.045   3.640  16.884  0.00  0.00    +0.000 Cl
ENDBRANCH  18  19
ENDBRANCH  17  18
ENDBRANCH  16  17
ENDBRANCH   2  16
TORSDOF 4
ENDMDL
MODEL 6
REMARK VINA RESULT:      -7.2      1.318      1.742
REMARK  Name = 
REMARK  4 active torsions:
REMARK  status: ('A' for Active; 'I' for Inactive)
REMARK    1  A    between atoms: C_2  and  C_3
REMARK    2  A    between atoms: C_3  and  O_4
REMARK    3  A    between atoms: O_4  and  C_5
REMARK    4  A    between atoms: C_5  and  C_6
REMARK                            x       y       z     vdW  Elec       q    Type
REMARK                         _______ _______ _______ _____ _____    ______ ____
ROOT
ATOM      1  O   UNL     1       1.545  10.089  17.980  0.00  0.00    +0.000 OA
ATOM      2  C   UNL     1       1.161   9.578  19.035  0.00  0.00    +0.000 C 
ATOM      3  N   UNL     1       0.040  10.026  19.712  0.00  0.00    +0.000 N 
ATOM      4  C   UNL     1      -0.448   9.519  20.998  0.00  0.00    +0.000 C 
ATOM      5  C   UNL     1      -0.600  10.654  22.030  0.00  0.00    +0.000 C 
ATOM      6  N   UNL     1      -1.354  11.782  21.478  0.00  0.00    +0.000 N 
ATOM      7  C   UNL     1      -2.545  12.195  22.032  0.00  0.00    +0.000 A 
ATOM      8  C   UNL     1      -2.718  12.213  23.420  0.00  0.00    +0.000 A 
ATOM      9  C   UNL     1      -3.917  12.652  23.984  0.00  0.00    +0.000 A 
ATOM     10  C   UNL     1      -4.936  13.063  23.144  0.00  0.00    +0.000 A 
ATOM     11 BR   UNL     1      -6.576  13.665  23.844  0.00  0.00    +0.000 Br
ATOM     12  C   UNL     1      -4.703  13.029  21.783  0.00  0.00    +0.000 A 
ATOM     13  N   UNL     1      -3.538  12.616  21.220  0.00  0.00    +0.000 NA
ATOM     14  C   UNL     1      -0.953  12.261  20.145  0.00  0.00    +0.000 C 
ATOM     15  C   UNL     1      -0.782  11.102  19.148  0.00  0.00    +0.000 C 
ENDROOT
BRANCH   2  16
ATOM     16  C   UNL     1       1.939   8.396  19.634  0.00  0.00    +0.000 C 
BRANCH  16  17
ATOM     17  O   UNL     1       1.827   7.155  18.953  0.00  0.00    +0.000 OA
BRANCH  17  18
ATOM     18  C   UNL     1       2.884   6.250  19.290  0.00  0.00    +0.000 C 
BRANCH  18  19
ATOM     19  C   UNL     1       2.335   4.959  19.855  0.00  0.00    +0.000 A 
ATOM     20  C   UNL     1       2.507   4.620  21.208  0.00  0.00    +0.000 A 
ATOM     21  C   UNL     1       1.988   3.432  21.726  0.00  0.00    +0.000 A 
ATOM     22  C   UNL     1       1.287   2.558  20.900  0.00  0.00    +0.000 A 
ATOM     23  C   UNL     1       1.105   2.875  19.555  0.00  0.00    +0.000 A 
ATOM     24  C   UNL     1       1.624   4.065  19.035  0.00  0.00    +0.000 A 
ATOM     25 CL   UNL     1       1.352   4.392  17.358  0.00  0.00    +0.000 Cl
ENDBRANCH  18  19
ENDBRANCH  17  18
ENDBRANCH  16  17
ENDBRANCH   2  16
TORSDOF 4
ENDMDL
MODEL 7
REMARK VINA RESULT:      -7.2      2.232      2.640
REMARK  Name = 
REMARK  4 active torsions:
REMARK  status: ('A' for Active; 'I' for Inactive)
REMARK    1  A    between atoms: C_2  and  C_3
REMARK    2  A    between atoms: C_3  and  O_4
REMARK    3  A    between atoms: O_4  and  C_5
REMARK    4  A    between atoms: C_5  and  C_6
REMARK                            x       y       z     vdW  Elec       q    Type
REMARK                         _______ _______ _______ _____ _____    ______ ____
ROOT
ATOM      1  O   UNL     1       2.059   9.343  17.501  0.00  0.00    +0.000 OA
ATOM      2  C   UNL     1       1.665   8.935  18.596  0.00  0.00    +0.000 C 
ATOM      3  N   UNL     1       0.621   9.532  19.279  0.00  0.00    +0.000 N 
ATOM      4  C   UNL     1       0.133   9.150  20.608  0.00  0.00    +0.000 C 
ATOM      5  C   UNL     1       0.134  10.351  21.575  0.00  0.00    +0.000 C 
ATOM      6  N   UNL     1      -0.523  11.517  20.981  0.00  0.00    +0.000 N 
ATOM      7  C   UNL     1      -1.646  12.080  21.546  0.00  0.00    +0.000 A 
ATOM      8  C   UNL     1      -1.764  12.194  22.936  0.00  0.00    +0.000 A 
ATOM      9  C   UNL     1      -2.891  12.784  23.510  0.00  0.00    +0.000 A 
ATOM     10  C   UNL     1      -3.894  13.249  22.680  0.00  0.00    +0.000 A 
ATOM     11 BR   UNL     1      -5.439  14.053  23.394  0.00  0.00    +0.000 Br
ATOM     12  C   UNL     1      -3.718  13.114  21.316  0.00  0.00    +0.000 A 
ATOM     13  N   UNL     1      -2.621  12.553  20.742  0.00  0.00    +0.000 NA
ATOM     14  C   UNL     1      -0.127  11.877  19.610  0.00  0.00    +0.000 C 
ATOM     15  C   UNL     1      -0.110  10.652  18.679  0.00  0.00    +0.000 C 
ENDROOT
BRANCH   2  16
ATOM     16  C   UNL     1       2.343   7.714  19.240  0.00  0.00    +0.000 C 
BRANCH  16  17
ATOM     17  O   UNL     1       2.251   6.490  18.526  0.00  0.00    +0.000 OA
BRANCH  17  18
ATOM     18  C   UNL     1       3.404   5.662  18.712  0.00  0.00    +0.000 C 
BRANCH  18  19
ATOM     19  C   UNL     1       4.180   5.513  17.423  0.00  0.00    +0.000 A 
ATOM     20  C   UNL     1       4.650   6.635  16.718  0.00  0.00    +0.000 A 
ATOM     21  C   UNL     1       5.376   6.490  15.534  0.00  0.00    +0.000 A 
ATOM     22  C   UNL     1       5.645   5.220  15.031  0.00  0.00    +0.000 A 
ATOM     23  C   UNL     1       5.187   4.095  15.714  0.00  0.00    +0.000 A 
ATOM     24  C   UNL     1       4.461   4.239  16.900  0.00  0.00    +0.000 A 
ATOM     25 CL   UNL     1       3.932   2.796  17.695  0.00  0.00    +0.000 Cl
ENDBRANCH  18  19
ENDBRANCH  17  18
ENDBRANCH  16  17
ENDBRANCH   2  16
TORSDOF 4
ENDMDL
MODEL 8
REMARK VINA RESULT:      -7.1      2.391      3.239
REMARK  Name = 
REMARK  4 active torsions:
REMARK  status: ('A' for Active; 'I' for Inactive)
REMARK    1  A    between atoms: C_2  and  C_3
REMARK    2  A    between atoms: C_3  and  O_4
REMARK    3  A    between atoms: O_4  and  C_5
REMARK    4  A    between atoms: C_5  and  C_6
REMARK                            x       y       z     vdW  Elec       q    Type
REMARK                         _______ _______ _______ _____ _____    ______ ____
ROOT
ATOM      1  O   UNL     1       2.313   6.200  20.325  0.00  0.00    +0.000 OA
ATOM      2  C   UNL     1       2.170   7.160  19.565  0.00  0.00    +0.000 C 
ATOM      3  N   UNL     1       1.647   8.369  19.987  0.00  0.00    +0.000 N 
ATOM      4  C   UNL     1       1.386   9.536  19.139  0.00  0.00    +0.000 C 
ATOM      5  C   UNL     1      -0.079  10.001  19.253  0.00  0.00    +0.000 C 
ATOM      6  N   UNL     1      -0.487  10.143  20.653  0.00  0.00    +0.000 N 
ATOM      7  C   UNL     1      -0.897  11.354  21.166  0.00  0.00    +0.000 A 
ATOM      8  C   UNL     1      -1.693  12.218  20.406  0.00  0.00    +0.000 A 
ATOM      9  C   UNL     1      -2.127  13.436  20.932  0.00  0.00    +0.000 A 
ATOM     10  C   UNL     1      -1.751  13.777  22.219  0.00  0.00    +0.000 A 
ATOM     11 BR   UNL     1      -2.305  15.405  22.983  0.00  0.00    +0.000 Br
ATOM     12  C   UNL     1      -0.971  12.880  22.922  0.00  0.00    +0.000 A 
ATOM     13  N   UNL     1      -0.550  11.686  22.427  0.00  0.00    +0.000 NA
ATOM     14  C   UNL     1      -0.160   9.030  21.558  0.00  0.00    +0.000 C 
ATOM     15  C   UNL     1       1.300   8.572  21.397  0.00  0.00    +0.000 C 
ENDROOT
BRANCH   2  16
ATOM     16  C   UNL     1       2.589   7.031  18.092  0.00  0.00    +0.000 C 
BRANCH  16  17
ATOM     17  O   UNL     1       3.979   6.892  17.839  0.00  0.00    +0.000 OA
BRANCH  17  18
ATOM     18  C   UNL     1       4.270   5.780  16.985  0.00  0.00    +0.000 C 
BRANCH  18  19
ATOM     19  C   UNL     1       3.977   4.469  17.680  0.00  0.00    +0.000 A 
ATOM     20  C   UNL     1       2.967   3.606  17.220  0.00  0.00    +0.000 A 
ATOM     21  C   UNL     1       2.710   2.392  17.860  0.00  0.00    +0.000 A 
ATOM     22  C   UNL     1       3.456   2.018  18.974  0.00  0.00    +0.000 A 
ATOM     23  C   UNL     1       4.462   2.860  19.446  0.00  0.00    +0.000 A 
ATOM     24  C   UNL     1       4.721   4.076  18.806  0.00  0.00    +0.000 A 
ATOM     25 CL   UNL     1       5.988   5.063  19.447  0.00  0.00    +0.000 Cl
ENDBRANCH  18  19
ENDBRANCH  17  18
ENDBRANCH  16  17
ENDBRANCH   2  16
TORSDOF 4
ENDMDL
MODEL 9
REMARK VINA RESULT:      -7.1      1.715      2.024
REMARK  Name = 
REMARK  4 active torsions:
REMARK  status: ('A' for Active; 'I' for Inactive)
REMARK    1  A    between atoms: C_2  and  C_3
REMARK    2  A    between atoms: C_3  and  O_4
REMARK    3  A    between atoms: O_4  and  C_5
REMARK    4  A    between atoms: C_5  and  C_6
REMARK                            x       y       z     vdW  Elec       q    Type
REMARK                         _______ _______ _______ _____ _____    ______ ____
ROOT
ATOM      1  O   UNL     1       2.321   9.678  17.458  0.00  0.00    +0.000 OA
ATOM      2  C   UNL     1       1.817   9.085  18.415  0.00  0.00    +0.000 C 
ATOM      3  N   UNL     1       0.750   9.601  19.129  0.00  0.00    +0.000 N 
ATOM      4  C   UNL     1       0.135   8.994  20.314  0.00  0.00    +0.000 C 
ATOM      5  C   UNL     1       0.114   9.974  21.503  0.00  0.00    +0.000 C 
ATOM      6  N   UNL     1      -0.433  11.277  21.114  0.00  0.00    +0.000 N 
ATOM      7  C   UNL     1      -1.569  11.787  21.700  0.00  0.00    +0.000 A 
ATOM      8  C   UNL     1      -1.797  11.628  23.071  0.00  0.00    +0.000 A 
ATOM      9  C   UNL     1      -2.939  12.164  23.671  0.00  0.00    +0.000 A 
ATOM     10  C   UNL     1      -3.845  12.850  22.884  0.00  0.00    +0.000 A 
ATOM     11 BR   UNL     1      -5.402  13.594  23.635  0.00  0.00    +0.000 Br
ATOM     12  C   UNL     1      -3.561  12.979  21.538  0.00  0.00    +0.000 A 
ATOM     13  N   UNL     1      -2.450  12.474  20.942  0.00  0.00    +0.000 NA
ATOM     14  C   UNL     1       0.094  11.876  19.878  0.00  0.00    +0.000 C 
ATOM     15  C   UNL     1       0.129  10.864  18.720  0.00  0.00    +0.000 C 
ENDROOT
BRANCH   2  16
ATOM     16  C   UNL     1       2.378   7.719  18.843  0.00  0.00    +0.000 C 
BRANCH  16  17
ATOM     17  O   UNL     1       1.851   6.582  18.175  0.00  0.00    +0.000 OA
BRANCH  17  18
ATOM     18  C   UNL     1       2.787   5.500  18.119  0.00  0.00    +0.000 C 
BRANCH  18  19
ATOM     19  C   UNL     1       2.507   4.483  19.203  0.00  0.00    +0.000 A 
ATOM     20  C   UNL     1       1.201   4.254  19.672  0.00  0.00    +0.000 A 
ATOM     21  C   UNL     1       0.948   3.305  20.664  0.00  0.00    +0.000 A 
ATOM     22  C   UNL     1       1.995   2.567  21.208  0.00  0.00    +0.000 A 
ATOM     23  C   UNL     1       3.297   2.778  20.756  0.00  0.00    +0.000 A 
ATOM     24  C   UNL     1       3.552   3.728  19.762  0.00  0.00    +0.000 A 
ATOM     25 CL   UNL     1       5.192   3.929  19.249  0.00  0.00    +0.000 Cl
ENDBRANCH  18  19
ENDBRANCH  17  18
ENDBRANCH  16  17
ENDBRANCH   2  16
TORSDOF 4
ENDMDL
