MODEL 1
REMARK VINA RESULT:      -7.7      0.000      0.000
REMARK  Name = 
REMARK  3 active torsions:
REMARK  status: ('A' for Active; 'I' for Inactive)
REMARK    1  A    between atoms: N_3  and  C_4
REMARK    2  A    between atoms: C_20  and  C_21
REMARK    3  A    between atoms: C_24  and  C_25
REMARK                            x       y       z     vdW  Elec       q    Type
REMARK                         _______ _______ _______ _____ _____    ______ ____
ROOT
ATOM      1  O   UNL     1      -0.405   9.951  19.285  0.00  0.00    +0.000 OA
ATOM      2  C   UNL     1       0.718  10.403  19.095  0.00  0.00    +0.000 C 
ATOM      3  N   UNL     1       1.842   9.604  19.077  0.00  0.00    +0.000 N 
ATOM      4  N   UNL     1       1.008  11.778  18.949  0.00  0.00    +0.000 N 
ATOM      5  C   UNL     1       2.312  12.270  18.448  0.00  0.00    +0.000 C 
ATOM      6  C   UNL     1       2.779  13.552  19.119  0.00  0.00    +0.000 C 
ATOM      7  C   UNL     1       1.753  14.605  18.857  0.00  0.00    +0.000 A 
ATOM      8  C   UNL     1       2.133  15.891  18.455  0.00  0.00    +0.000 A 
ATOM      9  C   UNL     1       1.165  16.859  18.216  0.00  0.00    +0.000 A 
ATOM     10  C   UNL     1      -0.176  16.557  18.422  0.00  0.00    +0.000 A 
ATOM     11  C   UNL     1      -0.553  15.278  18.843  0.00  0.00    +0.000 A 
ATOM     12  C   UNL     1       0.399  14.259  19.020  0.00  0.00    +0.000 A 
ATOM     13  C   UNL     1       0.029  12.812  19.439  0.00  0.00    +0.000 C 
ATOM     14  H   UNL     1       2.680  10.075  19.350  0.00  0.00    +0.000 HD
ENDROOT
BRANCH   3  15
ATOM     15  C   UNL     1       1.945   8.211  19.239  0.00  0.00    +0.000 A 
ATOM     16  C   UNL     1       1.705   7.515  20.423  0.00  0.00    +0.000 A 
ATOM     17  C   UNL     1       1.919   6.131  20.462  0.00  0.00    +0.000 A 
ATOM     18  C   UNL     1       2.365   5.458  19.327  0.00  0.00    +0.000 A 
ATOM     19  F   UNL     1       2.600   4.146  19.378  0.00  0.00    +0.000 F 
ATOM     20  C   UNL     1       2.578   6.139  18.133  0.00  0.00    +0.000 A 
ATOM     21  C   UNL     1       2.352   7.509  18.091  0.00  0.00    +0.000 A 
ENDBRANCH   3  15
BRANCH  13  22
ATOM     22  C   UNL     1      -1.447  12.491  19.198  0.00  0.00    +0.000 A 
ATOM     23  C   UNL     1      -2.409  12.646  20.209  0.00  0.00    +0.000 A 
ATOM     24  C   UNL     1      -3.741  12.300  19.976  0.00  0.00    +0.000 A 
ATOM     25  C   UNL     1      -4.153  11.830  18.718  0.00  0.00    +0.000 A 
ATOM     26  C   UNL     1      -3.198  11.677  17.705  0.00  0.00    +0.000 A 
ATOM     27  C   UNL     1      -1.861  11.997  17.947  0.00  0.00    +0.000 A 
BRANCH  25  28
ATOM     28  C   UNL     1      -5.598  11.508  18.439  0.00  0.00    +0.000 C 
ATOM     29  F   UNL     1      -5.901  10.188  18.584  0.00  0.00    +0.000 F 
ATOM     30  F   UNL     1      -6.453  12.176  19.263  0.00  0.00    +0.000 F 
ATOM     31  F   UNL     1      -5.974  11.835  17.169  0.00  0.00    +0.000 F 
ENDBRANCH  25  28
ENDBRANCH  13  22
TORSDOF 3
ENDMDL
MODEL 2
REMARK VINA RESULT:      -7.7      0.084      1.115
REMARK  Name = 
REMARK  3 active torsions:
REMARK  status: ('A' for Active; 'I' for Inactive)
REMARK    1  A    between atoms: N_3  and  C_4
REMARK    2  A    between atoms: C_20  and  C_21
REMARK    3  A    between atoms: C_24  and  C_25
REMARK                            x       y       z     vdW  Elec       q    Type
REMARK                         _______ _______ _______ _____ _____    ______ ____
ROOT
ATOM      1  O   UNL     1      -0.416   9.875  19.240  0.00  0.00    +0.000 OA
ATOM      2  C   UNL     1       0.705  10.342  19.073  0.00  0.00    +0.000 C 
ATOM      3  N   UNL     1       1.839   9.557  19.068  0.00  0.00    +0.000 N 
ATOM      4  N   UNL     1       0.980  11.722  18.944  0.00  0.00    +0.000 N 
ATOM      5  C   UNL     1       2.287  12.234  18.472  0.00  0.00    +0.000 C 
ATOM      6  C   UNL     1       2.726  13.516  19.162  0.00  0.00    +0.000 C 
ATOM      7  C   UNL     1       1.692  14.558  18.891  0.00  0.00    +0.000 A 
ATOM      8  C   UNL     1       2.063  15.853  18.507  0.00  0.00    +0.000 A 
ATOM      9  C   UNL     1       1.088  16.811  18.260  0.00  0.00    +0.000 A 
ATOM     10  C   UNL     1      -0.253  16.490  18.439  0.00  0.00    +0.000 A 
ATOM     11  C   UNL     1      -0.622  15.203  18.842  0.00  0.00    +0.000 A 
ATOM     12  C   UNL     1       0.340  14.194  19.027  0.00  0.00    +0.000 A 
ATOM     13  C   UNL     1      -0.020  12.739  19.426  0.00  0.00    +0.000 C 
ATOM     14  H   UNL     1       2.666  10.036  19.360  0.00  0.00    +0.000 HD
ENDROOT
BRANCH   3  15
ATOM     15  C   UNL     1       1.956   8.164  19.220  0.00  0.00    +0.000 A 
ATOM     16  C   UNL     1       1.724   7.456  20.399  0.00  0.00    +0.000 A 
ATOM     17  C   UNL     1       1.952   6.075  20.427  0.00  0.00    +0.000 A 
ATOM     18  C   UNL     1       2.403   5.415  19.286  0.00  0.00    +0.000 A 
ATOM     19  F   UNL     1       2.651   4.104  19.327  0.00  0.00    +0.000 F 
ATOM     20  C   UNL     1       2.607   6.106  18.098  0.00  0.00    +0.000 A 
ATOM     21  C   UNL     1       2.368   7.475  18.066  0.00  0.00    +0.000 A 
ENDBRANCH   3  15
BRANCH  13  22
ATOM     22  C   UNL     1      -1.488  12.402  19.157  0.00  0.00    +0.000 A 
ATOM     23  C   UNL     1      -1.919  11.936  17.905  0.00  0.00    +0.000 A 
ATOM     24  C   UNL     1      -3.272  11.682  17.673  0.00  0.00    +0.000 A 
ATOM     25  C   UNL     1      -4.221  11.849  18.695  0.00  0.00    +0.000 A 
ATOM     26  C   UNL     1      -3.794  12.311  19.947  0.00  0.00    +0.000 A 
ATOM     27  C   UNL     1      -2.447  12.591  20.170  0.00  0.00    +0.000 A 
BRANCH  25  28
ATOM     28  C   UNL     1      -5.674  11.524  18.472  0.00  0.00    +0.000 C 
ATOM     29  F   UNL     1      -6.513  12.134  19.356  0.00  0.00    +0.000 F 
ATOM     30  F   UNL     1      -6.111  11.891  17.235  0.00  0.00    +0.000 F 
ATOM     31  F   UNL     1      -5.937  10.189  18.577  0.00  0.00    +0.000 F 
ENDBRANCH  25  28
ENDBRANCH  13  22
TORSDOF 3
ENDMDL
MODEL 3
REMARK VINA RESULT:      -7.6      0.203      1.262
REMARK  Name = 
REMARK  3 active torsions:
REMARK  status: ('A' for Active; 'I' for Inactive)
REMARK    1  A    between atoms: N_3  and  C_4
REMARK    2  A    between atoms: C_20  and  C_21
REMARK    3  A    between atoms: C_24  and  C_25
REMARK                            x       y       z     vdW  Elec       q    Type
REMARK                         _______ _______ _______ _____ _____    ______ ____
ROOT
ATOM      1  O   UNL     1      -0.266   9.866  19.059  0.00  0.00    +0.000 OA
ATOM      2  C   UNL     1       0.847  10.349  18.878  0.00  0.00    +0.000 C 
ATOM      3  N   UNL     1       1.988   9.576  18.827  0.00  0.00    +0.000 N 
ATOM      4  N   UNL     1       1.106  11.734  18.778  0.00  0.00    +0.000 N 
ATOM      5  C   UNL     1       2.396  12.272  18.289  0.00  0.00    +0.000 C 
ATOM      6  C   UNL     1       2.839  13.540  19.001  0.00  0.00    +0.000 C 
ATOM      7  C   UNL     1       1.789  14.578  18.780  0.00  0.00    +0.000 A 
ATOM      8  C   UNL     1       2.139  15.886  18.421  0.00  0.00    +0.000 A 
ATOM      9  C   UNL     1       1.149  16.840  18.221  0.00  0.00    +0.000 A 
ATOM     10  C   UNL     1      -0.184  16.501  18.423  0.00  0.00    +0.000 A 
ATOM     11  C   UNL     1      -0.531  15.201  18.801  0.00  0.00    +0.000 A 
ATOM     12  C   UNL     1       0.444  14.197  18.938  0.00  0.00    +0.000 A 
ATOM     13  C   UNL     1       0.108  12.729  19.308  0.00  0.00    +0.000 C 
ATOM     14  H   UNL     1       2.817  10.056  19.112  0.00  0.00    +0.000 HD
ENDROOT
BRANCH   3  15
ATOM     15  C   UNL     1       2.122   8.181  18.941  0.00  0.00    +0.000 A 
ATOM     16  C   UNL     1       2.465   7.314  17.904  0.00  0.00    +0.000 A 
ATOM     17  C   UNL     1       2.490   5.935  18.141  0.00  0.00    +0.000 A 
ATOM     18  C   UNL     1       2.177   5.434  19.402  0.00  0.00    +0.000 A 
ATOM     19  F   UNL     1       2.169   4.117  19.615  0.00  0.00    +0.000 F 
ATOM     20  C   UNL     1       1.864   6.291  20.451  0.00  0.00    +0.000 A 
ATOM     21  C   UNL     1       1.853   7.662  20.219  0.00  0.00    +0.000 A 
ENDBRANCH   3  15
BRANCH  13  22
ATOM     22  C   UNL     1      -1.363  12.384  19.064  0.00  0.00    +0.000 A 
ATOM     23  C   UNL     1      -1.818  11.942  17.812  0.00  0.00    +0.000 A 
ATOM     24  C   UNL     1      -3.174  11.681  17.605  0.00  0.00    +0.000 A 
ATOM     25  C   UNL     1      -4.100  11.815  18.652  0.00  0.00    +0.000 A 
ATOM     26  C   UNL     1      -3.650  12.251  19.904  0.00  0.00    +0.000 A 
ATOM     27  C   UNL     1      -2.300  12.539  20.104  0.00  0.00    +0.000 A 
BRANCH  25  28
ATOM     28  C   UNL     1      -5.555  11.481  18.454  0.00  0.00    +0.000 C 
ATOM     29  F   UNL     1      -5.822  10.145  18.513  0.00  0.00    +0.000 F 
ATOM     30  F   UNL     1      -6.359  12.060  19.389  0.00  0.00    +0.000 F 
ATOM     31  F   UNL     1      -6.032  11.897  17.246  0.00  0.00    +0.000 F 
ENDBRANCH  25  28
ENDBRANCH  13  22
TORSDOF 3
ENDMDL
MODEL 4
REMARK VINA RESULT:      -7.1      1.925      2.617
REMARK  Name = 
REMARK  3 active torsions:
REMARK  status: ('A' for Active; 'I' for Inactive)
REMARK    1  A    between atoms: N_3  and  C_4
REMARK    2  A    between atoms: C_20  and  C_21
REMARK    3  A    between atoms: C_24  and  C_25
REMARK                            x       y       z     vdW  Elec       q    Type
REMARK                         _______ _______ _______ _____ _____    ______ ____
ROOT
ATOM      1  O   UNL     1       0.256  10.483  20.557  0.00  0.00    +0.000 OA
ATOM      2  C   UNL     1       1.100  10.781  19.719  0.00  0.00    +0.000 C 
ATOM      3  N   UNL     1       1.904   9.839  19.111  0.00  0.00    +0.000 N 
ATOM      4  N   UNL     1       1.402  12.106  19.333  0.00  0.00    +0.000 N 
ATOM      5  C   UNL     1       2.215  12.423  18.136  0.00  0.00    +0.000 C 
ATOM      6  C   UNL     1       3.126  13.626  18.317  0.00  0.00    +0.000 C 
ATOM      7  C   UNL     1       2.266  14.809  18.622  0.00  0.00    +0.000 A 
ATOM      8  C   UNL     1       2.483  16.035  17.982  0.00  0.00    +0.000 A 
ATOM      9  C   UNL     1       1.674  17.126  18.279  0.00  0.00    +0.000 A 
ATOM     10  C   UNL     1       0.681  17.004  19.245  0.00  0.00    +0.000 A 
ATOM     11  C   UNL     1       0.479  15.784  19.897  0.00  0.00    +0.000 A 
ATOM     12  C   UNL     1       1.234  14.646  19.564  0.00  0.00    +0.000 A 
ATOM     13  C   UNL     1       1.018  13.258  20.223  0.00  0.00    +0.000 C 
ATOM     14  H   UNL     1       2.790  10.192  18.813  0.00  0.00    +0.000 HD
ENDROOT
BRANCH   3  15
ATOM     15  C   UNL     1       1.924   8.444  19.284  0.00  0.00    +0.000 A 
ATOM     16  C   UNL     1       1.646   7.772  20.474  0.00  0.00    +0.000 A 
ATOM     17  C   UNL     1       1.777   6.379  20.524  0.00  0.00    +0.000 A 
ATOM     18  C   UNL     1       2.179   5.672  19.393  0.00  0.00    +0.000 A 
ATOM     19  F   UNL     1       2.336   4.348  19.453  0.00  0.00    +0.000 F 
ATOM     20  C   UNL     1       2.429   6.329  18.193  0.00  0.00    +0.000 A 
ATOM     21  C   UNL     1       2.285   7.710  18.141  0.00  0.00    +0.000 A 
ENDBRANCH   3  15
BRANCH  13  22
ATOM     22  C   UNL     1      -0.346  13.139  20.906  0.00  0.00    +0.000 A 
ATOM     23  C   UNL     1      -1.536  13.061  20.165  0.00  0.00    +0.000 A 
ATOM     24  C   UNL     1      -2.771  13.002  20.816  0.00  0.00    +0.000 A 
ATOM     25  C   UNL     1      -2.844  12.978  22.218  0.00  0.00    +0.000 A 
ATOM     26  C   UNL     1      -1.659  13.051  22.961  0.00  0.00    +0.000 A 
ATOM     27  C   UNL     1      -0.427  13.138  22.311  0.00  0.00    +0.000 A 
BRANCH  25  28
ATOM     28  C   UNL     1      -4.166  12.856  22.929  0.00  0.00    +0.000 C 
ATOM     29  F   UNL     1      -5.156  12.328  22.155  0.00  0.00    +0.000 F 
ATOM     30  F   UNL     1      -4.097  12.062  24.034  0.00  0.00    +0.000 F 
ATOM     31  F   UNL     1      -4.643  14.058  23.365  0.00  0.00    +0.000 F 
ENDBRANCH  25  28
ENDBRANCH  13  22
TORSDOF 3
ENDMDL
MODEL 5
REMARK VINA RESULT:      -7.1      2.636      3.680
REMARK  Name = 
REMARK  3 active torsions:
REMARK  status: ('A' for Active; 'I' for Inactive)
REMARK    1  A    between atoms: N_3  and  C_4
REMARK    2  A    between atoms: C_20  and  C_21
REMARK    3  A    between atoms: C_24  and  C_25
REMARK                            x       y       z     vdW  Elec       q    Type
REMARK                         _______ _______ _______ _____ _____    ______ ____
ROOT
ATOM      1  O   UNL     1      -1.264  11.723  21.190  0.00  0.00    +0.000 OA
ATOM      2  C   UNL     1      -0.583  12.209  20.294  0.00  0.00    +0.000 C 
ATOM      3  N   UNL     1       0.421  11.504  19.664  0.00  0.00    +0.000 N 
ATOM      4  N   UNL     1      -0.685  13.549  19.856  0.00  0.00    +0.000 N 
ATOM      5  C   UNL     1      -0.057  14.029  18.604  0.00  0.00    +0.000 C 
ATOM      6  C   UNL     1       0.487  15.445  18.697  0.00  0.00    +0.000 C 
ATOM      7  C   UNL     1      -0.654  16.352  19.023  0.00  0.00    +0.000 A 
ATOM      8  C   UNL     1      -0.824  17.562  18.339  0.00  0.00    +0.000 A 
ATOM      9  C   UNL     1      -1.890  18.395  18.656  0.00  0.00    +0.000 A 
ATOM     10  C   UNL     1      -2.758  18.042  19.684  0.00  0.00    +0.000 A 
ATOM     11  C   UNL     1      -2.575  16.843  20.379  0.00  0.00    +0.000 A 
ATOM     12  C   UNL     1      -1.548  15.947  20.030  0.00  0.00    +0.000 A 
ATOM     13  C   UNL     1      -1.332  14.584  20.737  0.00  0.00    +0.000 C 
ATOM     14  H   UNL     1       1.156  12.078  19.303  0.00  0.00    +0.000 HD
ENDROOT
BRANCH   3  15
ATOM     15  C   UNL     1       0.842  10.179  19.872  0.00  0.00    +0.000 A 
ATOM     16  C   UNL     1       0.771   9.488  21.081  0.00  0.00    +0.000 A 
ATOM     17  C   UNL     1       1.297   8.193  21.164  0.00  0.00    +0.000 A 
ATOM     18  C   UNL     1       1.884   7.601  20.048  0.00  0.00    +0.000 A 
ATOM     19  F   UNL     1       2.414   6.380  20.140  0.00  0.00    +0.000 F 
ATOM     20  C   UNL     1       1.931   8.270  18.830  0.00  0.00    +0.000 A 
ATOM     21  C   UNL     1       1.396   9.549  18.744  0.00  0.00    +0.000 A 
ENDBRANCH   3  15
BRANCH  13  22
ATOM     22  C   UNL     1      -2.570  14.118  21.505  0.00  0.00    +0.000 A 
ATOM     23  C   UNL     1      -3.742  13.721  20.842  0.00  0.00    +0.000 A 
ATOM     24  C   UNL     1      -4.874  13.346  21.570  0.00  0.00    +0.000 A 
ATOM     25  C   UNL     1      -4.850  13.319  22.973  0.00  0.00    +0.000 A 
ATOM     26  C   UNL     1      -3.681  13.710  23.639  0.00  0.00    +0.000 A 
ATOM     27  C   UNL     1      -2.560  14.111  22.913  0.00  0.00    +0.000 A 
BRANCH  25  28
ATOM     28  C   UNL     1      -6.046  12.862  23.766  0.00  0.00    +0.000 C 
ATOM     29  F   UNL     1      -6.783  13.885  24.282  0.00  0.00    +0.000 F 
ATOM     30  F   UNL     1      -6.913  12.118  23.025  0.00  0.00    +0.000 F 
ATOM     31  F   UNL     1      -5.704  12.082  24.832  0.00  0.00    +0.000 F 
ENDBRANCH  25  28
ENDBRANCH  13  22
TORSDOF 3
ENDMDL
MODEL 6
REMARK VINA RESULT:      -7.0      2.560      3.394
REMARK  Name = 
REMARK  3 active torsions:
REMARK  status: ('A' for Active; 'I' for Inactive)
REMARK    1  A    between atoms: N_3  and  C_4
REMARK    2  A    between atoms: C_20  and  C_21
REMARK    3  A    between atoms: C_24  and  C_25
REMARK                            x       y       z     vdW  Elec       q    Type
REMARK                         _______ _______ _______ _____ _____    ______ ____
ROOT
ATOM      1  O   UNL     1      -1.139  11.558  21.268  0.00  0.00    +0.000 OA
ATOM      2  C   UNL     1      -0.469  11.992  20.337  0.00  0.00    +0.000 C 
ATOM      3  N   UNL     1       0.488  11.231  19.699  0.00  0.00    +0.000 N 
ATOM      4  N   UNL     1      -0.536  13.321  19.862  0.00  0.00    +0.000 N 
ATOM      5  C   UNL     1       0.070  13.739  18.576  0.00  0.00    +0.000 C 
ATOM      6  C   UNL     1       0.668  15.136  18.610  0.00  0.00    +0.000 C 
ATOM      7  C   UNL     1      -0.427  16.095  18.942  0.00  0.00    +0.000 A 
ATOM      8  C   UNL     1      -0.574  17.290  18.227  0.00  0.00    +0.000 A 
ATOM      9  C   UNL     1      -1.599  18.172  18.550  0.00  0.00    +0.000 A 
ATOM     10  C   UNL     1      -2.446  17.881  19.614  0.00  0.00    +0.000 A 
ATOM     11  C   UNL     1      -2.285  16.698  20.340  0.00  0.00    +0.000 A 
ATOM     12  C   UNL     1      -1.304  15.754  19.988  0.00  0.00    +0.000 A 
ATOM     13  C   UNL     1      -1.116  14.405  20.729  0.00  0.00    +0.000 C 
ATOM     14  H   UNL     1       1.232  11.766  19.298  0.00  0.00    +0.000 HD
ENDROOT
BRANCH   3  15
ATOM     15  C   UNL     1       0.867   9.898  19.934  0.00  0.00    +0.000 A 
ATOM     16  C   UNL     1       0.681   9.204  21.129  0.00  0.00    +0.000 A 
ATOM     17  C   UNL     1       1.175   7.899  21.250  0.00  0.00    +0.000 A 
ATOM     18  C   UNL     1       1.843   7.301  20.184  0.00  0.00    +0.000 A 
ATOM     19  F   UNL     1       2.342   6.070  20.314  0.00  0.00    +0.000 F 
ATOM     20  C   UNL     1       2.006   7.973  18.978  0.00  0.00    +0.000 A 
ATOM     21  C   UNL     1       1.503   9.263  18.854  0.00  0.00    +0.000 A 
ENDBRANCH   3  15
BRANCH  13  22
ATOM     22  C   UNL     1      -2.346  14.009  21.549  0.00  0.00    +0.000 A 
ATOM     23  C   UNL     1      -2.332  14.023  22.952  0.00  0.00    +0.000 A 
ATOM     24  C   UNL     1      -3.454  13.610  23.674  0.00  0.00    +0.000 A 
ATOM     25  C   UNL     1      -4.628  13.214  23.014  0.00  0.00    +0.000 A 
ATOM     26  C   UNL     1      -4.648  13.203  21.614  0.00  0.00    +0.000 A 
ATOM     27  C   UNL     1      -3.518  13.588  20.892  0.00  0.00    +0.000 A 
BRANCH  25  28
ATOM     28  C   UNL     1      -5.862  12.822  23.784  0.00  0.00    +0.000 C 
ATOM     29  F   UNL     1      -5.605  12.032  24.864  0.00  0.00    +0.000 F 
ATOM     30  F   UNL     1      -6.543  13.899  24.267  0.00  0.00    +0.000 F 
ATOM     31  F   UNL     1      -6.758  12.127  23.024  0.00  0.00    +0.000 F 
ENDBRANCH  25  28
ENDBRANCH  13  22
TORSDOF 3
ENDMDL
MODEL 7
REMARK VINA RESULT:      -7.0      1.907      2.440
REMARK  Name = 
REMARK  3 active torsions:
REMARK  status: ('A' for Active; 'I' for Inactive)
REMARK    1  A    between atoms: N_3  and  C_4
REMARK    2  A    between atoms: C_20  and  C_21
REMARK    3  A    between atoms: C_24  and  C_25
REMARK                            x       y       z     vdW  Elec       q    Type
REMARK                         _______ _______ _______ _____ _____    ______ ____
ROOT
ATOM      1  O   UNL     1       0.278  10.558  20.573  0.00  0.00    +0.000 OA
ATOM      2  C   UNL     1       1.113  10.848  19.723  0.00  0.00    +0.000 C 
ATOM      3  N   UNL     1       1.903   9.899  19.109  0.00  0.00    +0.000 N 
ATOM      4  N   UNL     1       1.418  12.170  19.329  0.00  0.00    +0.000 N 
ATOM      5  C   UNL     1       2.218  12.478  18.121  0.00  0.00    +0.000 C 
ATOM      6  C   UNL     1       3.139  13.676  18.286  0.00  0.00    +0.000 C 
ATOM      7  C   UNL     1       2.291  14.864  18.598  0.00  0.00    +0.000 A 
ATOM      8  C   UNL     1       2.507  16.088  17.951  0.00  0.00    +0.000 A 
ATOM      9  C   UNL     1       1.709  17.184  18.254  0.00  0.00    +0.000 A 
ATOM     10  C   UNL     1       0.728  17.072  19.233  0.00  0.00    +0.000 A 
ATOM     11  C   UNL     1       0.526  15.856  19.892  0.00  0.00    +0.000 A 
ATOM     12  C   UNL     1       1.270  14.711  19.553  0.00  0.00    +0.000 A 
ATOM     13  C   UNL     1       1.053  13.327  20.219  0.00  0.00    +0.000 C 
ATOM     14  H   UNL     1       2.787  10.246  18.799  0.00  0.00    +0.000 HD
ENDROOT
BRANCH   3  15
ATOM     15  C   UNL     1       1.917   8.504  19.287  0.00  0.00    +0.000 A 
ATOM     16  C   UNL     1       1.610   7.837  20.472  0.00  0.00    +0.000 A 
ATOM     17  C   UNL     1       1.737   6.444  20.528  0.00  0.00    +0.000 A 
ATOM     18  C   UNL     1       2.164   5.732  19.409  0.00  0.00    +0.000 A 
ATOM     19  F   UNL     1       2.316   4.408  19.477  0.00  0.00    +0.000 F 
ATOM     20  C   UNL     1       2.442   6.385  18.214  0.00  0.00    +0.000 A 
ATOM     21  C   UNL     1       2.302   7.767  18.154  0.00  0.00    +0.000 A 
ENDBRANCH   3  15
BRANCH  13  22
ATOM     22  C   UNL     1      -0.303  13.220  20.920  0.00  0.00    +0.000 A 
ATOM     23  C   UNL     1      -0.410  13.193  22.319  0.00  0.00    +0.000 A 
ATOM     24  C   UNL     1      -1.656  13.045  22.931  0.00  0.00    +0.000 A 
ATOM     25  C   UNL     1      -2.829  12.962  22.162  0.00  0.00    +0.000 A 
ATOM     26  C   UNL     1      -2.728  12.993  20.766  0.00  0.00    +0.000 A 
ATOM     27  C   UNL     1      -1.480  13.112  20.154  0.00  0.00    +0.000 A 
BRANCH  25  28
ATOM     28  C   UNL     1      -4.184  12.861  22.813  0.00  0.00    +0.000 C 
ATOM     29  F   UNL     1      -4.192  12.098  23.942  0.00  0.00    +0.000 F 
ATOM     30  F   UNL     1      -4.680  14.075  23.183  0.00  0.00    +0.000 F 
ATOM     31  F   UNL     1      -5.123  12.311  21.991  0.00  0.00    +0.000 F 
ENDBRANCH  25  28
ENDBRANCH  13  22
TORSDOF 3
ENDMDL
MODEL 8
REMARK VINA RESULT:      -6.9      7.560      9.601
REMARK  Name = 
REMARK  3 active torsions:
REMARK  status: ('A' for Active; 'I' for Inactive)
REMARK    1  A    between atoms: N_3  and  C_4
REMARK    2  A    between atoms: C_20  and  C_21
REMARK    3  A    between atoms: C_24  and  C_25
REMARK                            x       y       z     vdW  Elec       q    Type
REMARK                         _______ _______ _______ _____ _____    ______ ____
ROOT
ATOM      1  O   UNL     1       6.739  14.090  21.612  0.00  0.00    +0.000 OA
ATOM      2  C   UNL     1       7.927  13.806  21.705  0.00  0.00    +0.000 C 
ATOM      3  N   UNL     1       8.429  13.058  22.749  0.00  0.00    +0.000 N 
ATOM      4  N   UNL     1       8.926  14.263  20.815  0.00  0.00    +0.000 N 
ATOM      5  C   UNL     1      10.291  13.688  20.785  0.00  0.00    +0.000 C 
ATOM      6  C   UNL     1      11.378  14.714  20.508  0.00  0.00    +0.000 C 
ATOM      7  C   UNL     1      11.101  15.326  19.174  0.00  0.00    +0.000 A 
ATOM      8  C   UNL     1      12.129  15.502  18.240  0.00  0.00    +0.000 A 
ATOM      9  C   UNL     1      11.854  16.074  17.003  0.00  0.00    +0.000 A 
ATOM     10  C   UNL     1      10.564  16.510  16.719  0.00  0.00    +0.000 A 
ATOM     11  C   UNL     1       9.543  16.352  17.661  0.00  0.00    +0.000 A 
ATOM     12  C   UNL     1       9.778  15.710  18.889  0.00  0.00    +0.000 A 
ATOM     13  C   UNL     1       8.671  15.466  19.948  0.00  0.00    +0.000 C 
ATOM     14  H   UNL     1       9.385  13.250  22.965  0.00  0.00    +0.000 HD
ENDROOT
BRANCH   3  15
ATOM     15  C   UNL     1       7.749  12.484  23.839  0.00  0.00    +0.000 A 
ATOM     16  C   UNL     1       6.643  11.640  23.748  0.00  0.00    +0.000 A 
ATOM     17  C   UNL     1       6.017  11.200  24.920  0.00  0.00    +0.000 A 
ATOM     18  C   UNL     1       6.496  11.600  26.165  0.00  0.00    +0.000 A 
ATOM     19  F   UNL     1       5.876  11.206  27.278  0.00  0.00    +0.000 F 
ATOM     20  C   UNL     1       7.617  12.417  26.267  0.00  0.00    +0.000 A 
ATOM     21  C   UNL     1       8.247  12.842  25.103  0.00  0.00    +0.000 A 
ENDBRANCH   3  15
BRANCH  13  22
ATOM     22  C   UNL     1       7.263  15.570  19.358  0.00  0.00    +0.000 A 
ATOM     23  C   UNL     1       6.783  14.635  18.427  0.00  0.00    +0.000 A 
ATOM     24  C   UNL     1       5.512  14.782  17.869  0.00  0.00    +0.000 A 
ATOM     25  C   UNL     1       4.674  15.840  18.257  0.00  0.00    +0.000 A 
ATOM     26  C   UNL     1       5.146  16.772  19.189  0.00  0.00    +0.000 A 
ATOM     27  C   UNL     1       6.427  16.642  19.726  0.00  0.00    +0.000 A 
BRANCH  25  28
ATOM     28  C   UNL     1       3.279  15.974  17.705  0.00  0.00    +0.000 C 
ATOM     29  F   UNL     1       2.557  16.976  18.282  0.00  0.00    +0.000 F 
ATOM     30  F   UNL     1       3.267  16.233  16.367  0.00  0.00    +0.000 F 
ATOM     31  F   UNL     1       2.535  14.842  17.870  0.00  0.00    +0.000 F 
ENDBRANCH  25  28
ENDBRANCH  13  22
TORSDOF 3
ENDMDL
MODEL 9
REMARK VINA RESULT:      -6.9      3.951      6.602
REMARK  Name = 
REMARK  3 active torsions:
REMARK  status: ('A' for Active; 'I' for Inactive)
REMARK    1  A    between atoms: N_3  and  C_4
REMARK    2  A    between atoms: C_20  and  C_21
REMARK    3  A    between atoms: C_24  and  C_25
REMARK                            x       y       z     vdW  Elec       q    Type
REMARK                         _______ _______ _______ _____ _____    ______ ____
ROOT
ATOM      1  O   UNL     1       1.145  13.553  19.876  0.00  0.00    +0.000 OA
ATOM      2  C   UNL     1       1.022  14.376  20.776  0.00  0.00    +0.000 C 
ATOM      3  N   UNL     1       1.932  15.393  20.976  0.00  0.00    +0.000 N 
ATOM      4  N   UNL     1      -0.002  14.342  21.750  0.00  0.00    +0.000 N 
ATOM      5  C   UNL     1      -0.289  15.487  22.646  0.00  0.00    +0.000 C 
ATOM      6  C   UNL     1      -0.698  15.075  24.050  0.00  0.00    +0.000 C 
ATOM      7  C   UNL     1      -1.936  14.247  23.941  0.00  0.00    +0.000 A 
ATOM      8  C   UNL     1      -3.022  14.467  24.798  0.00  0.00    +0.000 A 
ATOM      9  C   UNL     1      -4.166  13.687  24.684  0.00  0.00    +0.000 A 
ATOM     10  C   UNL     1      -4.208  12.660  23.747  0.00  0.00    +0.000 A 
ATOM     11  C   UNL     1      -3.116  12.429  22.906  0.00  0.00    +0.000 A 
ATOM     12  C   UNL     1      -1.975  13.250  22.950  0.00  0.00    +0.000 A 
ATOM     13  C   UNL     1      -0.757  13.067  22.007  0.00  0.00    +0.000 C 
ATOM     14  H   UNL     1       1.991  15.705  21.923  0.00  0.00    +0.000 HD
ENDROOT
BRANCH   3  15
ATOM     15  C   UNL     1       3.093  15.704  20.246  0.00  0.00    +0.000 A 
ATOM     16  C   UNL     1       3.123  16.364  19.018  0.00  0.00    +0.000 A 
ATOM     17  C   UNL     1       4.348  16.542  18.364  0.00  0.00    +0.000 A 
ATOM     18  C   UNL     1       5.525  16.065  18.937  0.00  0.00    +0.000 A 
ATOM     19  F   UNL     1       6.686  16.207  18.295  0.00  0.00    +0.000 F 
ATOM     20  C   UNL     1       5.509  15.433  20.175  0.00  0.00    +0.000 A 
ATOM     21  C   UNL     1       4.294  15.270  20.831  0.00  0.00    +0.000 A 
ENDBRANCH   3  15
BRANCH  13  22
ATOM     22  C   UNL     1      -1.095  12.236  20.767  0.00  0.00    +0.000 A 
ATOM     23  C   UNL     1      -0.531  10.969  20.554  0.00  0.00    +0.000 A 
ATOM     24  C   UNL     1      -0.820  10.254  19.389  0.00  0.00    +0.000 A 
ATOM     25  C   UNL     1      -1.709  10.768  18.432  0.00  0.00    +0.000 A 
ATOM     26  C   UNL     1      -2.277  12.031  18.643  0.00  0.00    +0.000 A 
ATOM     27  C   UNL     1      -1.967  12.757  19.792  0.00  0.00    +0.000 A 
BRANCH  25  28
ATOM     28  C   UNL     1      -2.072   9.980  17.200  0.00  0.00    +0.000 C 
ATOM     29  F   UNL     1      -3.206   9.238  17.342  0.00  0.00    +0.000 F 
ATOM     30  F   UNL     1      -2.283  10.773  16.113  0.00  0.00    +0.000 F 
ATOM     31  F   UNL     1      -1.098   9.098  16.833  0.00  0.00    +0.000 F 
ENDBRANCH  25  28
ENDBRANCH  13  22
TORSDOF 3
ENDMDL
