MODEL 1
REMARK VINA RESULT:      -7.1      0.000      0.000
REMARK  Name = 
REMARK  8 active torsions:
REMARK  status: ('A' for Active; 'I' for Inactive)
REMARK    1  A    between atoms: C_1  and  O_2
REMARK    2  A    between atoms: O_2  and  C_3
REMARK    3  A    between atoms: C_6  and  C_7
REMARK    4  A    between atoms: C_9  and  S_10
REMARK    5  A    between atoms: S_10  and  N_13
REMARK    6  A    between atoms: N_13  and  C_14
REMARK    7  A    between atoms: N_13  and  C_15
REMARK    8  A    between atoms: C_15  and  C_16
REMARK                            x       y       z     vdW  Elec       q    Type
REMARK                         _______ _______ _______ _____ _____    ______ ____
ROOT
ATOM      1  S   UNL     1       4.159   3.280  18.696  0.00  0.00    +0.000 S 
ATOM      2  O   UNL     1       3.563   2.158  17.992  0.00  0.00    +0.000 OA
ATOM      3  O   UNL     1       4.854   3.055  19.950  0.00  0.00    +0.000 OA
ENDROOT
BRANCH   1  10
ATOM      4  C   UNL     1       6.342   4.887  17.955  0.00  0.00    +0.000 A 
ATOM      5  C   UNL     1       7.174   5.431  16.965  0.00  0.00    +0.000 A 
ATOM      6  C   UNL     1       6.958   5.172  15.609  0.00  0.00    +0.000 A 
ATOM      7  C   UNL     1       5.913   4.346  15.207  0.00  0.00    +0.000 A 
ATOM      8  C   UNL     1       5.681   4.039  13.759  0.00  0.00    +0.000 C 
ATOM      9  C   UNL     1       5.086   3.786  16.185  0.00  0.00    +0.000 A 
ATOM     10  C   UNL     1       5.296   4.047  17.554  0.00  0.00    +0.000 A 
BRANCH   4  12
ATOM     11  C   UNL     1       7.822   5.621  19.654  0.00  0.00    +0.000 C 
ATOM     12  O   UNL     1       6.531   5.131  19.287  0.00  0.00    +0.000 OA
ENDBRANCH   4  12
ENDBRANCH   1  10
BRANCH   1  13
ATOM     13  N   UNL     1       2.881   4.365  18.930  0.00  0.00    +0.000 NA
ATOM     14  C   UNL     1       1.549   3.823  19.243  0.00  0.00    +0.000 C 
BRANCH  13  15
ATOM     15  C   UNL     1       3.223   5.635  19.619  0.00  0.00    +0.000 C 
BRANCH  15  16
ATOM     16  C   UNL     1       2.742   6.877  18.882  0.00  0.00    +0.000 C 
ATOM     17  O   UNL     1       3.060   7.071  17.708  0.00  0.00    +0.000 OA
ATOM     18  N   UNL     1       1.976   7.778  19.588  0.00  0.00    +0.000 N 
ATOM     19  C   UNL     1       1.575   7.682  20.977  0.00  0.00    +0.000 C 
ATOM     20  C   UNL     1       0.386   8.622  21.055  0.00  0.00    +0.000 C 
ATOM     21  C   UNL     1       0.747   9.739  20.080  0.00  0.00    +0.000 C 
ATOM     22  C   UNL     1       1.626   9.069  19.029  0.00  0.00    +0.000 C 
ENDBRANCH  15  16
ENDBRANCH  13  15
ENDBRANCH   1  13
TORSDOF 5
ENDMDL
MODEL 2
REMARK VINA RESULT:      -6.9      2.169      6.571
REMARK  Name = 
REMARK  8 active torsions:
REMARK  status: ('A' for Active; 'I' for Inactive)
REMARK    1  A    between atoms: C_1  and  O_2
REMARK    2  A    between atoms: O_2  and  C_3
REMARK    3  A    between atoms: C_6  and  C_7
REMARK    4  A    between atoms: C_9  and  S_10
REMARK    5  A    between atoms: S_10  and  N_13
REMARK    6  A    between atoms: N_13  and  C_14
REMARK    7  A    between atoms: N_13  and  C_15
REMARK    8  A    between atoms: C_15  and  C_16
REMARK                            x       y       z     vdW  Elec       q    Type
REMARK                         _______ _______ _______ _____ _____    ______ ____
ROOT
ATOM      1  S   UNL     1       4.468   3.751  18.523  0.00  0.00    +0.000 S 
ATOM      2  O   UNL     1       5.204   3.268  19.678  0.00  0.00    +0.000 OA
ATOM      3  O   UNL     1       3.667   2.828  17.742  0.00  0.00    +0.000 OA
ENDROOT
BRANCH   1  10
ATOM      4  C   UNL     1       2.621   4.950  20.268  0.00  0.00    +0.000 A 
ATOM      5  C   UNL     1       1.823   6.045  20.635  0.00  0.00    +0.000 A 
ATOM      6  C   UNL     1       1.782   7.207  19.859  0.00  0.00    +0.000 A 
ATOM      7  C   UNL     1       2.551   7.312  18.706  0.00  0.00    +0.000 A 
ATOM      8  C   UNL     1       2.537   8.560  17.875  0.00  0.00    +0.000 C 
ATOM      9  C   UNL     1       3.361   6.233  18.338  0.00  0.00    +0.000 A 
ATOM     10  C   UNL     1       3.404   5.057  19.113  0.00  0.00    +0.000 A 
BRANCH   4  12
ATOM     11  C   UNL     1       1.537   2.940  20.903  0.00  0.00    +0.000 C 
ATOM     12  O   UNL     1       2.672   3.801  21.007  0.00  0.00    +0.000 OA
ENDBRANCH   4  12
ENDBRANCH   1  10
BRANCH   1  13
ATOM     13  N   UNL     1       5.643   4.473  17.539  0.00  0.00    +0.000 NA
ATOM     14  C   UNL     1       7.020   4.573  18.049  0.00  0.00    +0.000 C 
BRANCH  13  15
ATOM     15  C   UNL     1       5.526   4.205  16.083  0.00  0.00    +0.000 C 
BRANCH  15  16
ATOM     16  C   UNL     1       6.634   4.842  15.256  0.00  0.00    +0.000 C 
ATOM     17  O   UNL     1       7.417   5.643  15.770  0.00  0.00    +0.000 OA
ATOM     18  N   UNL     1       6.698   4.517  13.920  0.00  0.00    +0.000 N 
ATOM     19  C   UNL     1       5.812   3.628  13.196  0.00  0.00    +0.000 C 
ATOM     20  C   UNL     1       6.625   3.261  11.968  0.00  0.00    +0.000 C 
ATOM     21  C   UNL     1       7.408   4.534  11.663  0.00  0.00    +0.000 C 
ATOM     22  C   UNL     1       7.598   5.208  13.018  0.00  0.00    +0.000 C 
ENDBRANCH  15  16
ENDBRANCH  13  15
ENDBRANCH   1  13
TORSDOF 5
ENDMDL
MODEL 3
REMARK VINA RESULT:      -6.8      2.296      6.773
REMARK  Name = 
REMARK  8 active torsions:
REMARK  status: ('A' for Active; 'I' for Inactive)
REMARK    1  A    between atoms: C_1  and  O_2
REMARK    2  A    between atoms: O_2  and  C_3
REMARK    3  A    between atoms: C_6  and  C_7
REMARK    4  A    between atoms: C_9  and  S_10
REMARK    5  A    between atoms: S_10  and  N_13
REMARK    6  A    between atoms: N_13  and  C_14
REMARK    7  A    between atoms: N_13  and  C_15
REMARK    8  A    between atoms: C_15  and  C_16
REMARK                            x       y       z     vdW  Elec       q    Type
REMARK                         _______ _______ _______ _____ _____    ______ ____
ROOT
ATOM      1  S   UNL     1       5.255   4.923  18.665  0.00  0.00    +0.000 S 
ATOM      2  O   UNL     1       5.944   6.164  18.975  0.00  0.00    +0.000 OA
ATOM      3  O   UNL     1       5.874   3.654  18.998  0.00  0.00    +0.000 OA
ENDROOT
BRANCH   1  10
ATOM      4  C   UNL     1       2.852   6.141  19.462  0.00  0.00    +0.000 A 
ATOM      5  C   UNL     1       1.625   6.088  20.141  0.00  0.00    +0.000 A 
ATOM      6  C   UNL     1       1.232   4.948  20.848  0.00  0.00    +0.000 A 
ATOM      7  C   UNL     1       2.050   3.823  20.879  0.00  0.00    +0.000 A 
ATOM      8  C   UNL     1       1.635   2.583  21.614  0.00  0.00    +0.000 C 
ATOM      9  C   UNL     1       3.268   3.858  20.194  0.00  0.00    +0.000 A 
ATOM     10  C   UNL     1       3.671   5.006  19.483  0.00  0.00    +0.000 A 
BRANCH   4  12
ATOM     11  C   UNL     1       2.222   8.141  18.356  0.00  0.00    +0.000 C 
ATOM     12  O   UNL     1       3.257   7.248  18.769  0.00  0.00    +0.000 OA
ENDBRANCH   4  12
ENDBRANCH   1  10
BRANCH   1  13
ATOM     13  N   UNL     1       4.959   5.003  17.000  0.00  0.00    +0.000 NA
ATOM     14  C   UNL     1       4.920   6.327  16.357  0.00  0.00    +0.000 C 
BRANCH  13  15
ATOM     15  C   UNL     1       5.559   3.920  16.179  0.00  0.00    +0.000 C 
BRANCH  15  16
ATOM     16  C   UNL     1       6.756   4.373  15.355  0.00  0.00    +0.000 C 
ATOM     17  O   UNL     1       7.742   4.870  15.903  0.00  0.00    +0.000 OA
ATOM     18  N   UNL     1       6.674   4.238  13.987  0.00  0.00    +0.000 N 
ATOM     19  C   UNL     1       5.558   3.712  13.228  0.00  0.00    +0.000 C 
ATOM     20  C   UNL     1       6.192   3.335  11.903  0.00  0.00    +0.000 C 
ATOM     21  C   UNL     1       7.264   4.402  11.701  0.00  0.00    +0.000 C 
ATOM     22  C   UNL     1       7.682   4.804  13.112  0.00  0.00    +0.000 C 
ENDBRANCH  15  16
ENDBRANCH  13  15
ENDBRANCH   1  13
TORSDOF 5
ENDMDL
MODEL 4
REMARK VINA RESULT:      -6.7      0.971      1.362
REMARK  Name = 
REMARK  8 active torsions:
REMARK  status: ('A' for Active; 'I' for Inactive)
REMARK    1  A    between atoms: C_1  and  O_2
REMARK    2  A    between atoms: O_2  and  C_3
REMARK    3  A    between atoms: C_6  and  C_7
REMARK    4  A    between atoms: C_9  and  S_10
REMARK    5  A    between atoms: S_10  and  N_13
REMARK    6  A    between atoms: N_13  and  C_14
REMARK    7  A    between atoms: N_13  and  C_15
REMARK    8  A    between atoms: C_15  and  C_16
REMARK                            x       y       z     vdW  Elec       q    Type
REMARK                         _______ _______ _______ _____ _____    ______ ____
ROOT
ATOM      1  S   UNL     1       3.969   3.430  18.201  0.00  0.00    +0.000 S 
ATOM      2  O   UNL     1       3.478   2.157  17.701  0.00  0.00    +0.000 OA
ATOM      3  O   UNL     1       4.447   3.529  19.567  0.00  0.00    +0.000 OA
ENDROOT
BRANCH   1  10
ATOM      4  C   UNL     1       6.493   4.482  17.556  0.00  0.00    +0.000 A 
ATOM      5  C   UNL     1       7.459   4.833  16.600  0.00  0.00    +0.000 A 
ATOM      6  C   UNL     1       7.226   4.666  15.232  0.00  0.00    +0.000 A 
ATOM      7  C   UNL     1       6.025   4.125  14.784  0.00  0.00    +0.000 A 
ATOM      8  C   UNL     1       5.766   3.917  13.322  0.00  0.00    +0.000 C 
ATOM      9  C   UNL     1       5.060   3.757  15.727  0.00  0.00    +0.000 A 
ATOM     10  C   UNL     1       5.289   3.928  17.107  0.00  0.00    +0.000 A 
BRANCH   4  12
ATOM     11  C   UNL     1       7.464   5.785  19.280  0.00  0.00    +0.000 C 
ATOM     12  O   UNL     1       6.698   4.642  18.897  0.00  0.00    +0.000 OA
ENDBRANCH   4  12
ENDBRANCH   1  10
BRANCH   1  13
ATOM     13  N   UNL     1       2.687   4.508  17.958  0.00  0.00    +0.000 NA
ATOM     14  C   UNL     1       1.370   4.173  18.523  0.00  0.00    +0.000 C 
BRANCH  13  15
ATOM     15  C   UNL     1       3.036   5.951  17.985  0.00  0.00    +0.000 C 
BRANCH  15  16
ATOM     16  C   UNL     1       2.560   6.670  19.240  0.00  0.00    +0.000 C 
ATOM     17  O   UNL     1       2.652   6.129  20.343  0.00  0.00    +0.000 OA
ATOM     18  N   UNL     1       1.997   7.916  19.084  0.00  0.00    +0.000 N 
ATOM     19  C   UNL     1       1.795   8.633  17.841  0.00  0.00    +0.000 C 
ATOM     20  C   UNL     1       1.635  10.071  18.297  0.00  0.00    +0.000 C 
ATOM     21  C   UNL     1       0.910   9.945  19.634  0.00  0.00    +0.000 C 
ATOM     22  C   UNL     1       1.353   8.596  20.191  0.00  0.00    +0.000 C 
ENDBRANCH  15  16
ENDBRANCH  13  15
ENDBRANCH   1  13
TORSDOF 5
ENDMDL
MODEL 5
REMARK VINA RESULT:      -6.7      2.418      6.735
REMARK  Name = 
REMARK  8 active torsions:
REMARK  status: ('A' for Active; 'I' for Inactive)
REMARK    1  A    between atoms: C_1  and  O_2
REMARK    2  A    between atoms: O_2  and  C_3
REMARK    3  A    between atoms: C_6  and  C_7
REMARK    4  A    between atoms: C_9  and  S_10
REMARK    5  A    between atoms: S_10  and  N_13
REMARK    6  A    between atoms: N_13  and  C_14
REMARK    7  A    between atoms: N_13  and  C_15
REMARK    8  A    between atoms: C_15  and  C_16
REMARK                            x       y       z     vdW  Elec       q    Type
REMARK                         _______ _______ _______ _____ _____    ______ ____
ROOT
ATOM      1  S   UNL     1       5.548   5.141  18.291  0.00  0.00    +0.000 S 
ATOM      2  O   UNL     1       5.996   6.489  17.988  0.00  0.00    +0.000 OA
ATOM      3  O   UNL     1       6.386   4.267  19.089  0.00  0.00    +0.000 OA
ENDROOT
BRANCH   1  10
ATOM      4  C   UNL     1       3.069   6.344  18.845  0.00  0.00    +0.000 A 
ATOM      5  C   UNL     1       1.857   6.369  19.551  0.00  0.00    +0.000 A 
ATOM      6  C   UNL     1       1.557   5.404  20.518  0.00  0.00    +0.000 A 
ATOM      7  C   UNL     1       2.455   4.378  20.790  0.00  0.00    +0.000 A 
ATOM      8  C   UNL     1       2.141   3.321  21.806  0.00  0.00    +0.000 C 
ATOM      9  C   UNL     1       3.660   4.334  20.082  0.00  0.00    +0.000 A 
ATOM     10  C   UNL     1       3.970   5.306  19.111  0.00  0.00    +0.000 A 
BRANCH   4  12
ATOM     11  C   UNL     1       2.595   8.470  17.912  0.00  0.00    +0.000 C 
ATOM     12  O   UNL     1       3.385   7.281  17.901  0.00  0.00    +0.000 OA
ENDBRANCH   4  12
ENDBRANCH   1  10
BRANCH   1  13
ATOM     13  N   UNL     1       5.252   4.439  16.780  0.00  0.00    +0.000 NA
ATOM     14  C   UNL     1       4.215   3.399  16.680  0.00  0.00    +0.000 C 
BRANCH  13  15
ATOM     15  C   UNL     1       5.349   5.348  15.609  0.00  0.00    +0.000 C 
BRANCH  15  16
ATOM     16  C   UNL     1       6.592   5.119  14.762  0.00  0.00    +0.000 C 
ATOM     17  O   UNL     1       7.680   5.582  15.110  0.00  0.00    +0.000 OA
ATOM     18  N   UNL     1       6.442   4.414  13.589  0.00  0.00    +0.000 N 
ATOM     19  C   UNL     1       5.214   3.861  13.055  0.00  0.00    +0.000 C 
ATOM     20  C   UNL     1       5.708   2.810  12.079  0.00  0.00    +0.000 C 
ATOM     21  C   UNL     1       6.987   3.419  11.512  0.00  0.00    +0.000 C 
ATOM     22  C   UNL     1       7.526   4.303  12.633  0.00  0.00    +0.000 C 
ENDBRANCH  15  16
ENDBRANCH  13  15
ENDBRANCH   1  13
TORSDOF 5
ENDMDL
MODEL 6
REMARK VINA RESULT:      -6.6      2.340      6.843
REMARK  Name = 
REMARK  8 active torsions:
REMARK  status: ('A' for Active; 'I' for Inactive)
REMARK    1  A    between atoms: C_1  and  O_2
REMARK    2  A    between atoms: O_2  and  C_3
REMARK    3  A    between atoms: C_6  and  C_7
REMARK    4  A    between atoms: C_9  and  S_10
REMARK    5  A    between atoms: S_10  and  N_13
REMARK    6  A    between atoms: N_13  and  C_14
REMARK    7  A    between atoms: N_13  and  C_15
REMARK    8  A    between atoms: C_15  and  C_16
REMARK                            x       y       z     vdW  Elec       q    Type
REMARK                         _______ _______ _______ _____ _____    ______ ____
ROOT
ATOM      1  S   UNL     1       5.317   5.183  18.531  0.00  0.00    +0.000 S 
ATOM      2  O   UNL     1       5.701   6.563  18.774  0.00  0.00    +0.000 OA
ATOM      3  O   UNL     1       6.205   4.108  18.934  0.00  0.00    +0.000 OA
ENDROOT
BRANCH   1  10
ATOM      4  C   UNL     1       3.127   3.697  19.473  0.00  0.00    +0.000 A 
ATOM      5  C   UNL     1       1.890   3.633  20.133  0.00  0.00    +0.000 A 
ATOM      6  C   UNL     1       1.267   4.784  20.626  0.00  0.00    +0.000 A 
ATOM      7  C   UNL     1       1.875   6.028  20.487  0.00  0.00    +0.000 A 
ATOM      8  C   UNL     1       1.233   7.269  21.030  0.00  0.00    +0.000 C 
ATOM      9  C   UNL     1       3.115   6.102  19.844  0.00  0.00    +0.000 A 
ATOM     10  C   UNL     1       3.744   4.946  19.342  0.00  0.00    +0.000 A 
BRANCH   4  12
ATOM     11  C   UNL     1       2.892   1.553  18.492  0.00  0.00    +0.000 C 
ATOM     12  O   UNL     1       3.750   2.585  18.978  0.00  0.00    +0.000 OA
ENDBRANCH   4  12
ENDBRANCH   1  10
BRANCH   1  13
ATOM     13  N   UNL     1       5.034   5.105  16.864  0.00  0.00    +0.000 NA
ATOM     14  C   UNL     1       4.747   6.355  16.141  0.00  0.00    +0.000 C 
BRANCH  13  15
ATOM     15  C   UNL     1       5.844   4.113  16.112  0.00  0.00    +0.000 C 
BRANCH  15  16
ATOM     16  C   UNL     1       6.893   4.744  15.206  0.00  0.00    +0.000 C 
ATOM     17  O   UNL     1       7.737   5.514  15.668  0.00  0.00    +0.000 OA
ATOM     18  N   UNL     1       6.833   4.449  13.863  0.00  0.00    +0.000 N 
ATOM     19  C   UNL     1       5.867   3.598  13.199  0.00  0.00    +0.000 C 
ATOM     20  C   UNL     1       6.562   3.242  11.898  0.00  0.00    +0.000 C 
ATOM     21  C   UNL     1       7.348   4.503  11.554  0.00  0.00    +0.000 C 
ATOM     22  C   UNL     1       7.671   5.140  12.902  0.00  0.00    +0.000 C 
ENDBRANCH  15  16
ENDBRANCH  13  15
ENDBRANCH   1  13
TORSDOF 5
ENDMDL
MODEL 7
REMARK VINA RESULT:      -6.6      1.038      1.184
REMARK  Name = 
REMARK  8 active torsions:
REMARK  status: ('A' for Active; 'I' for Inactive)
REMARK    1  A    between atoms: C_1  and  O_2
REMARK    2  A    between atoms: O_2  and  C_3
REMARK    3  A    between atoms: C_6  and  C_7
REMARK    4  A    between atoms: C_9  and  S_10
REMARK    5  A    between atoms: S_10  and  N_13
REMARK    6  A    between atoms: N_13  and  C_14
REMARK    7  A    between atoms: N_13  and  C_15
REMARK    8  A    between atoms: C_15  and  C_16
REMARK                            x       y       z     vdW  Elec       q    Type
REMARK                         _______ _______ _______ _____ _____    ______ ____
ROOT
ATOM      1  S   UNL     1       4.067   4.300  18.828  0.00  0.00    +0.000 S 
ATOM      2  O   UNL     1       3.630   2.916  18.889  0.00  0.00    +0.000 OA
ATOM      3  O   UNL     1       4.600   4.938  20.017  0.00  0.00    +0.000 OA
ENDROOT
BRANCH   1  10
ATOM      4  C   UNL     1       6.666   4.597  17.800  0.00  0.00    +0.000 A 
ATOM      5  C   UNL     1       7.548   4.640  16.709  0.00  0.00    +0.000 A 
ATOM      6  C   UNL     1       7.089   4.501  15.396  0.00  0.00    +0.000 A 
ATOM      7  C   UNL     1       5.737   4.298  15.140  0.00  0.00    +0.000 A 
ATOM      8  C   UNL     1       5.230   4.123  13.740  0.00  0.00    +0.000 C 
ATOM      9  C   UNL     1       4.850   4.238  16.220  0.00  0.00    +0.000 A 
ATOM     10  C   UNL     1       5.306   4.382  17.545  0.00  0.00    +0.000 A 
BRANCH   4  12
ATOM     11  C   UNL     1       7.902   5.881  19.362  0.00  0.00    +0.000 C 
ATOM     12  O   UNL     1       7.091   4.737  19.091  0.00  0.00    +0.000 OA
ENDBRANCH   4  12
ENDBRANCH   1  10
BRANCH   1  13
ATOM     13  N   UNL     1       2.715   5.151  18.270  0.00  0.00    +0.000 NA
ATOM     14  C   UNL     1       1.569   4.387  17.751  0.00  0.00    +0.000 C 
BRANCH  13  15
ATOM     15  C   UNL     1       2.364   6.382  19.023  0.00  0.00    +0.000 C 
BRANCH  15  16
ATOM     16  C   UNL     1       2.501   7.658  18.205  0.00  0.00    +0.000 C 
ATOM     17  O   UNL     1       3.188   7.674  17.182  0.00  0.00    +0.000 OA
ATOM     18  N   UNL     1       1.863   8.784  18.671  0.00  0.00    +0.000 N 
ATOM     19  C   UNL     1       1.067   8.900  19.877  0.00  0.00    +0.000 C 
ATOM     20  C   UNL     1       0.236  10.143  19.620  0.00  0.00    +0.000 C 
ATOM     21  C   UNL     1       1.173  11.043  18.821  0.00  0.00    +0.000 C 
ATOM     22  C   UNL     1       2.083  10.082  18.062  0.00  0.00    +0.000 C 
ENDBRANCH  15  16
ENDBRANCH  13  15
ENDBRANCH   1  13
TORSDOF 5
ENDMDL
MODEL 8
REMARK VINA RESULT:      -6.4      2.077      6.498
REMARK  Name = 
REMARK  8 active torsions:
REMARK  status: ('A' for Active; 'I' for Inactive)
REMARK    1  A    between atoms: C_1  and  O_2
REMARK    2  A    between atoms: O_2  and  C_3
REMARK    3  A    between atoms: C_6  and  C_7
REMARK    4  A    between atoms: C_9  and  S_10
REMARK    5  A    between atoms: S_10  and  N_13
REMARK    6  A    between atoms: N_13  and  C_14
REMARK    7  A    between atoms: N_13  and  C_15
REMARK    8  A    between atoms: C_15  and  C_16
REMARK                            x       y       z     vdW  Elec       q    Type
REMARK                         _______ _______ _______ _____ _____    ______ ____
ROOT
ATOM      1  S   UNL     1       4.728   4.086  18.424  0.00  0.00    +0.000 S 
ATOM      2  O   UNL     1       5.571   3.375  19.369  0.00  0.00    +0.000 OA
ATOM      3  O   UNL     1       4.268   3.415  17.223  0.00  0.00    +0.000 OA
ENDROOT
BRANCH   1  10
ATOM      4  C   UNL     1       2.379   3.767  19.933  0.00  0.00    +0.000 A 
ATOM      5  C   UNL     1       1.294   4.320  20.630  0.00  0.00    +0.000 A 
ATOM      6  C   UNL     1       1.109   5.703  20.714  0.00  0.00    +0.000 A 
ATOM      7  C   UNL     1       2.017   6.571  20.116  0.00  0.00    +0.000 A 
ATOM      8  C   UNL     1       1.848   8.058  20.215  0.00  0.00    +0.000 C 
ATOM      9  C   UNL     1       3.111   6.033  19.431  0.00  0.00    +0.000 A 
ATOM     10  C   UNL     1       3.299   4.640  19.340  0.00  0.00    +0.000 A 
BRANCH   4  12
ATOM     11  C   UNL     1       1.717   1.728  18.924  0.00  0.00    +0.000 C 
ATOM     12  O   UNL     1       2.575   2.418  19.833  0.00  0.00    +0.000 OA
ENDBRANCH   4  12
ENDBRANCH   1  10
BRANCH   1  13
ATOM     13  N   UNL     1       5.619   5.465  18.011  0.00  0.00    +0.000 NA
ATOM     14  C   UNL     1       6.981   5.608  18.551  0.00  0.00    +0.000 C 
BRANCH  13  15
ATOM     15  C   UNL     1       5.432   5.970  16.627  0.00  0.00    +0.000 C 
BRANCH  15  16
ATOM     16  C   UNL     1       6.652   5.777  15.738  0.00  0.00    +0.000 C 
ATOM     17  O   UNL     1       7.735   6.281  16.043  0.00  0.00    +0.000 OA
ATOM     18  N   UNL     1       6.486   5.057  14.577  0.00  0.00    +0.000 N 
ATOM     19  C   UNL     1       5.260   4.456  14.092  0.00  0.00    +0.000 C 
ATOM     20  C   UNL     1       5.756   3.413  13.107  0.00  0.00    +0.000 C 
ATOM     21  C   UNL     1       6.992   4.062  12.490  0.00  0.00    +0.000 C 
ATOM     22  C   UNL     1       7.539   4.975  13.583  0.00  0.00    +0.000 C 
ENDBRANCH  15  16
ENDBRANCH  13  15
ENDBRANCH   1  13
TORSDOF 5
ENDMDL
MODEL 9
REMARK VINA RESULT:      -6.4      2.172      6.533
REMARK  Name = 
REMARK  8 active torsions:
REMARK  status: ('A' for Active; 'I' for Inactive)
REMARK    1  A    between atoms: C_1  and  O_2
REMARK    2  A    between atoms: O_2  and  C_3
REMARK    3  A    between atoms: C_6  and  C_7
REMARK    4  A    between atoms: C_9  and  S_10
REMARK    5  A    between atoms: S_10  and  N_13
REMARK    6  A    between atoms: N_13  and  C_14
REMARK    7  A    between atoms: N_13  and  C_15
REMARK    8  A    between atoms: C_15  and  C_16
REMARK                            x       y       z     vdW  Elec       q    Type
REMARK                         _______ _______ _______ _____ _____    ______ ____
ROOT
ATOM      1  S   UNL     1       5.243   4.868  18.693  0.00  0.00    +0.000 S 
ATOM      2  O   UNL     1       6.055   6.067  18.586  0.00  0.00    +0.000 OA
ATOM      3  O   UNL     1       5.749   3.718  19.420  0.00  0.00    +0.000 OA
ENDROOT
BRANCH   1  10
ATOM      4  C   UNL     1       2.880   4.500  20.170  0.00  0.00    +0.000 A 
ATOM      5  C   UNL     1       1.690   5.009  20.712  0.00  0.00    +0.000 A 
ATOM      6  C   UNL     1       1.308   6.339  20.513  0.00  0.00    +0.000 A 
ATOM      7  C   UNL     1       2.117   7.200  19.779  0.00  0.00    +0.000 A 
ATOM      8  C   UNL     1       1.735   8.636  19.574  0.00  0.00    +0.000 C 
ATOM      9  C   UNL     1       3.313   6.709  19.246  0.00  0.00    +0.000 A 
ATOM     10  C   UNL     1       3.700   5.368  19.440  0.00  0.00    +0.000 A 
BRANCH   4  12
ATOM     11  C   UNL     1       2.264   2.212  20.124  0.00  0.00    +0.000 C 
ATOM     12  O   UNL     1       3.269   3.202  20.348  0.00  0.00    +0.000 OA
ENDBRANCH   4  12
ENDBRANCH   1  10
BRANCH   1  13
ATOM     13  N   UNL     1       4.903   4.436  17.092  0.00  0.00    +0.000 NA
ATOM     14  C   UNL     1       3.751   3.559  16.831  0.00  0.00    +0.000 C 
BRANCH  13  15
ATOM     15  C   UNL     1       5.140   5.488  16.071  0.00  0.00    +0.000 C 
BRANCH  15  16
ATOM     16  C   UNL     1       6.436   5.303  15.294  0.00  0.00    +0.000 C 
ATOM     17  O   UNL     1       7.501   5.729  15.744  0.00  0.00    +0.000 OA
ATOM     18  N   UNL     1       6.360   4.680  14.069  0.00  0.00    +0.000 N 
ATOM     19  C   UNL     1       5.167   4.178  13.419  0.00  0.00    +0.000 C 
ATOM     20  C   UNL     1       5.718   3.188  12.409  0.00  0.00    +0.000 C 
ATOM     21  C   UNL     1       7.037   3.820  11.971  0.00  0.00    +0.000 C 
ATOM     22  C   UNL     1       7.505   4.621  13.181  0.00  0.00    +0.000 C 
ENDBRANCH  15  16
ENDBRANCH  13  15
ENDBRANCH   1  13
TORSDOF 5
ENDMDL
