MODEL 1
REMARK VINA RESULT:      -7.9      0.000      0.000
REMARK  Name = 
REMARK  7 active torsions:
REMARK  status: ('A' for Active; 'I' for Inactive)
REMARK    1  A    between atoms: C_1  and  C_2
REMARK    2  A    between atoms: C_2  and  C_4
REMARK    3  A    between atoms: C_4  and  S_5
REMARK    4  A    between atoms: N_6  and  N_7
REMARK    5  A    between atoms: N_7  and  C_8
REMARK    6  A    between atoms: C_17  and  C_18
REMARK    7  A    between atoms: N_25  and  C_26
REMARK                            x       y       z     vdW  Elec       q    Type
REMARK                         _______ _______ _______ _____ _____    ______ ____
ROOT
ATOM      1  N   UNL     1       4.792   4.930  16.942  0.00  0.00    +0.000 N 
ATOM      2  C   UNL     1       4.051   6.100  17.134  0.00  0.00    +0.000 A 
ATOM      3  N   UNL     1       4.294   7.275  16.574  0.00  0.00    +0.000 NA
ATOM      4  N   UNL     1       3.495   8.229  17.134  0.00  0.00    +0.000 NA
ATOM      5  C   UNL     1       2.702   7.641  18.002  0.00  0.00    +0.000 A 
ATOM      6  N   UNL     1       2.972   6.269  18.018  0.00  0.00    +0.000 N 
ENDROOT
BRANCH   5   7
ATOM      7  C   UNL     1       1.731   8.360  18.844  0.00  0.00    +0.000 A 
ATOM      8  C   UNL     1       1.695   8.219  20.236  0.00  0.00    +0.000 A 
ATOM      9  C   UNL     1       0.974   9.122  21.023  0.00  0.00    +0.000 A 
ATOM     10  C   UNL     1       0.211  10.113  20.411  0.00  0.00    +0.000 A 
ATOM     11 CL   UNL     1      -0.612  11.274  21.377  0.00  0.00    +0.000 Cl
ATOM     12  C   UNL     1       0.130  10.175  19.024  0.00  0.00    +0.000 A 
ATOM     13  C   UNL     1       0.885   9.301  18.240  0.00  0.00    +0.000 A 
ENDBRANCH   5   7
BRANCH   1  14
ATOM     14  C   UNL     1       5.534   4.808  15.700  0.00  0.00    +0.000 A 
ATOM     15  C   UNL     1       6.837   5.285  15.576  0.00  0.00    +0.000 A 
ATOM     16  C   UNL     1       7.577   5.080  14.402  0.00  0.00    +0.000 A 
ATOM     17  C   UNL     1       7.003   4.422  13.318  0.00  0.00    +0.000 A 
ATOM     18  C   UNL     1       5.682   3.989  13.398  0.00  0.00    +0.000 A 
ATOM     19  C   UNL     1       4.950   4.187  14.567  0.00  0.00    +0.000 A 
ENDBRANCH   1  14
BRANCH   6  20
ATOM     20  C   UNL     1       2.281   5.311  18.801  0.00  0.00    +0.000 A 
ATOM     21  C   UNL     1       2.494   5.225  20.188  0.00  0.00    +0.000 A 
ATOM     22  C   UNL     1       1.817   4.262  20.941  0.00  0.00    +0.000 A 
ATOM     23  C   UNL     1       0.961   3.354  20.316  0.00  0.00    +0.000 A 
ATOM     24  C   UNL     1       0.772   3.408  18.940  0.00  0.00    +0.000 A 
ATOM     25  C   UNL     1       1.411   4.396  18.189  0.00  0.00    +0.000 A 
ENDBRANCH   6  20
BRANCH   1  27
ATOM     26  C   UNL     1       5.003   3.427  18.666  0.00  0.00    +0.000 C 
ATOM     27  N   UNL     1       4.483   3.718  17.517  0.00  0.00    +0.000 NA
BRANCH  26  29
ATOM     28  C   UNL     1       3.627   1.251  18.717  0.00  0.00    +0.000 C 
ATOM     29  C   UNL     1       4.555   2.189  19.446  0.00  0.00    +0.000 C 
ATOM     30  O   UNL     1       4.923   1.970  20.596  0.00  0.00    +0.000 OA
ENDBRANCH  26  29
BRANCH  26  31
ATOM     31  S   UNL     1       6.158   4.286  19.636  0.00  0.00    +0.000 S 
ATOM     32  H   UNL     1       7.199   3.457  19.433  0.00  0.00    +0.000 HD
ENDBRANCH  26  31
ENDBRANCH   1  27
TORSDOF 6
ENDMDL
MODEL 2
REMARK VINA RESULT:      -7.8      0.137      1.232
REMARK  Name = 
REMARK  7 active torsions:
REMARK  status: ('A' for Active; 'I' for Inactive)
REMARK    1  A    between atoms: C_1  and  C_2
REMARK    2  A    between atoms: C_2  and  C_4
REMARK    3  A    between atoms: C_4  and  S_5
REMARK    4  A    between atoms: N_6  and  N_7
REMARK    5  A    between atoms: N_7  and  C_8
REMARK    6  A    between atoms: C_17  and  C_18
REMARK    7  A    between atoms: N_25  and  C_26
REMARK                            x       y       z     vdW  Elec       q    Type
REMARK                         _______ _______ _______ _____ _____    ______ ____
ROOT
ATOM      1  N   UNL     1       4.869   4.831  16.884  0.00  0.00    +0.000 N 
ATOM      2  C   UNL     1       4.132   6.007  17.052  0.00  0.00    +0.000 A 
ATOM      3  N   UNL     1       4.382   7.170  16.470  0.00  0.00    +0.000 NA
ATOM      4  N   UNL     1       3.584   8.138  17.011  0.00  0.00    +0.000 NA
ATOM      5  C   UNL     1       2.787   7.569  17.888  0.00  0.00    +0.000 A 
ATOM      6  N   UNL     1       3.052   6.197  17.930  0.00  0.00    +0.000 N 
ENDROOT
BRANCH   5   7
ATOM      7  C   UNL     1       1.816   8.307  18.713  0.00  0.00    +0.000 A 
ATOM      8  C   UNL     1       1.762   8.175  20.106  0.00  0.00    +0.000 A 
ATOM      9  C   UNL     1       1.044   9.093  20.879  0.00  0.00    +0.000 A 
ATOM     10  C   UNL     1       0.304  10.091  20.252  0.00  0.00    +0.000 A 
ATOM     11 CL   UNL     1      -0.514  11.270  21.201  0.00  0.00    +0.000 Cl
ATOM     12  C   UNL     1       0.240  10.146  18.863  0.00  0.00    +0.000 A 
ATOM     13  C   UNL     1       0.992   9.256  18.093  0.00  0.00    +0.000 A 
ENDBRANCH   5   7
BRANCH   1  14
ATOM     14  C   UNL     1       5.614   4.683  15.646  0.00  0.00    +0.000 A 
ATOM     15  C   UNL     1       5.073   4.032  14.539  0.00  0.00    +0.000 A 
ATOM     16  C   UNL     1       5.765   3.975  13.321  0.00  0.00    +0.000 A 
ATOM     17  C   UNL     1       7.031   4.542  13.206  0.00  0.00    +0.000 A 
ATOM     18  C   UNL     1       7.616   5.146  14.315  0.00  0.00    +0.000 A 
ATOM     19  C   UNL     1       6.926   5.208  15.524  0.00  0.00    +0.000 A 
ENDBRANCH   1  14
BRANCH   6  20
ATOM     20  C   UNL     1       2.355   5.256  18.728  0.00  0.00    +0.000 A 
ATOM     21  C   UNL     1       1.431   4.366  18.152  0.00  0.00    +0.000 A 
ATOM     22  C   UNL     1       0.741   3.457  18.958  0.00  0.00    +0.000 A 
ATOM     23  C   UNL     1       0.933   3.454  20.340  0.00  0.00    +0.000 A 
ATOM     24  C   UNL     1       1.818   4.354  20.923  0.00  0.00    +0.000 A 
ATOM     25  C   UNL     1       2.543   5.234  20.118  0.00  0.00    +0.000 A 
ENDBRANCH   6  20
BRANCH   1  27
ATOM     26  C   UNL     1       5.035   3.379  18.656  0.00  0.00    +0.000 C 
ATOM     27  N   UNL     1       4.554   3.631  17.480  0.00  0.00    +0.000 NA
BRANCH  26  29
ATOM     28  C   UNL     1       3.595   1.247  18.756  0.00  0.00    +0.000 C 
ATOM     29  C   UNL     1       4.574   2.157  19.452  0.00  0.00    +0.000 C 
ATOM     30  O   UNL     1       4.971   1.928  20.591  0.00  0.00    +0.000 OA
ENDBRANCH  26  29
BRANCH  26  31
ATOM     31  S   UNL     1       6.143   4.279  19.643  0.00  0.00    +0.000 S 
ATOM     32  H   UNL     1       5.687   3.857  20.837  0.00  0.00    +0.000 HD
ENDBRANCH  26  31
ENDBRANCH   1  27
TORSDOF 6
ENDMDL
MODEL 3
REMARK VINA RESULT:      -7.1      5.365      8.684
REMARK  Name = 
REMARK  7 active torsions:
REMARK  status: ('A' for Active; 'I' for Inactive)
REMARK    1  A    between atoms: C_1  and  C_2
REMARK    2  A    between atoms: C_2  and  C_4
REMARK    3  A    between atoms: C_4  and  S_5
REMARK    4  A    between atoms: N_6  and  N_7
REMARK    5  A    between atoms: N_7  and  C_8
REMARK    6  A    between atoms: C_17  and  C_18
REMARK    7  A    between atoms: N_25  and  C_26
REMARK                            x       y       z     vdW  Elec       q    Type
REMARK                         _______ _______ _______ _____ _____    ______ ____
ROOT
ATOM      1  N   UNL     1       0.497  10.632  19.199  0.00  0.00    +0.000 N 
ATOM      2  C   UNL     1      -0.845  10.535  18.821  0.00  0.00    +0.000 A 
ATOM      3  N   UNL     1      -1.343   9.691  17.929  0.00  0.00    +0.000 NA
ATOM      4  N   UNL     1      -2.646  10.007  17.671  0.00  0.00    +0.000 NA
ATOM      5  C   UNL     1      -2.986  11.010  18.448  0.00  0.00    +0.000 A 
ATOM      6  N   UNL     1      -1.895  11.368  19.245  0.00  0.00    +0.000 N 
ENDROOT
BRANCH   5   7
ATOM      7  C   UNL     1      -4.307  11.660  18.416  0.00  0.00    +0.000 A 
ATOM      8  C   UNL     1      -4.926  12.158  19.569  0.00  0.00    +0.000 A 
ATOM      9  C   UNL     1      -6.023  13.020  19.470  0.00  0.00    +0.000 A 
ATOM     10  C   UNL     1      -6.560  13.310  18.219  0.00  0.00    +0.000 A 
ATOM     11 CL   UNL     1      -7.857  14.433  18.088  0.00  0.00    +0.000 Cl
ATOM     12  C   UNL     1      -6.038  12.710  17.078  0.00  0.00    +0.000 A 
ATOM     13  C   UNL     1      -4.916  11.885  17.173  0.00  0.00    +0.000 A 
ENDBRANCH   5   7
BRANCH   1  14
ATOM     14  C   UNL     1       1.321   9.447  19.038  0.00  0.00    +0.000 A 
ATOM     15  C   UNL     1       1.456   8.505  20.056  0.00  0.00    +0.000 A 
ATOM     16  C   UNL     1       2.180   7.320  19.857  0.00  0.00    +0.000 A 
ATOM     17  C   UNL     1       2.812   7.080  18.640  0.00  0.00    +0.000 A 
ATOM     18  C   UNL     1       2.740   8.034  17.629  0.00  0.00    +0.000 A 
ATOM     19  C   UNL     1       2.015   9.208  17.824  0.00  0.00    +0.000 A 
ENDBRANCH   1  14
BRANCH   6  20
ATOM     20  C   UNL     1      -1.905  12.380  20.236  0.00  0.00    +0.000 A 
ATOM     21  C   UNL     1      -2.114  12.061  21.590  0.00  0.00    +0.000 A 
ATOM     22  C   UNL     1      -2.138  13.075  22.550  0.00  0.00    +0.000 A 
ATOM     23  C   UNL     1      -1.998  14.410  22.169  0.00  0.00    +0.000 A 
ATOM     24  C   UNL     1      -1.826  14.738  20.829  0.00  0.00    +0.000 A 
ATOM     25  C   UNL     1      -1.756  13.726  19.870  0.00  0.00    +0.000 A 
ENDBRANCH   6  20
BRANCH   1  27
ATOM     26  C   UNL     1       1.657  12.528  19.777  0.00  0.00    +0.000 C 
ATOM     27  N   UNL     1       0.968  11.500  20.157  0.00  0.00    +0.000 NA
BRANCH  26  29
ATOM     28  C   UNL     1       3.207  14.499  20.360  0.00  0.00    +0.000 C 
ATOM     29  C   UNL     1       2.045  13.629  20.765  0.00  0.00    +0.000 C 
ATOM     30  O   UNL     1       1.452  13.796  21.826  0.00  0.00    +0.000 OA
ENDBRANCH  26  29
BRANCH  26  31
ATOM     31  S   UNL     1       2.213  12.997  18.201  0.00  0.00    +0.000 S 
ATOM     32  H   UNL     1       1.571  14.180  18.140  0.00  0.00    +0.000 HD
ENDBRANCH  26  31
ENDBRANCH   1  27
TORSDOF 6
ENDMDL
MODEL 4
REMARK VINA RESULT:      -7.0      5.413      8.759
REMARK  Name = 
REMARK  7 active torsions:
REMARK  status: ('A' for Active; 'I' for Inactive)
REMARK    1  A    between atoms: C_1  and  C_2
REMARK    2  A    between atoms: C_2  and  C_4
REMARK    3  A    between atoms: C_4  and  S_5
REMARK    4  A    between atoms: N_6  and  N_7
REMARK    5  A    between atoms: N_7  and  C_8
REMARK    6  A    between atoms: C_17  and  C_18
REMARK    7  A    between atoms: N_25  and  C_26
REMARK                            x       y       z     vdW  Elec       q    Type
REMARK                         _______ _______ _______ _____ _____    ______ ____
ROOT
ATOM      1  N   UNL     1       0.417  10.683  19.211  0.00  0.00    +0.000 N 
ATOM      2  C   UNL     1      -0.934  10.623  18.855  0.00  0.00    +0.000 A 
ATOM      3  N   UNL     1      -1.467   9.800  17.965  0.00  0.00    +0.000 NA
ATOM      4  N   UNL     1      -2.766  10.151  17.732  0.00  0.00    +0.000 NA
ATOM      5  C   UNL     1      -3.068  11.155  18.524  0.00  0.00    +0.000 A 
ATOM      6  N   UNL     1      -1.954  11.477  19.305  0.00  0.00    +0.000 N 
ENDROOT
BRANCH   5   7
ATOM      7  C   UNL     1      -4.373  11.838  18.521  0.00  0.00    +0.000 A 
ATOM      8  C   UNL     1      -4.930  12.395  19.678  0.00  0.00    +0.000 A 
ATOM      9  C   UNL     1      -6.009  13.280  19.591  0.00  0.00    +0.000 A 
ATOM     10  C   UNL     1      -6.590  13.538  18.353  0.00  0.00    +0.000 A 
ATOM     11 CL   UNL     1      -7.864  14.689  18.232  0.00  0.00    +0.000 Cl
ATOM     12  C   UNL     1      -6.131  12.883  17.216  0.00  0.00    +0.000 A 
ATOM     13  C   UNL     1      -5.027  12.032  17.297  0.00  0.00    +0.000 A 
ENDBRANCH   5   7
BRANCH   1  14
ATOM     14  C   UNL     1       1.209   9.479  19.025  0.00  0.00    +0.000 A 
ATOM     15  C   UNL     1       1.897   9.233  17.839  0.00  0.00    +0.000 A 
ATOM     16  C   UNL     1       2.732   8.113  17.703  0.00  0.00    +0.000 A 
ATOM     17  C   UNL     1       2.859   7.204  18.749  0.00  0.00    +0.000 A 
ATOM     18  C   UNL     1       2.134   7.399  19.921  0.00  0.00    +0.000 A 
ATOM     19  C   UNL     1       1.310   8.514  20.058  0.00  0.00    +0.000 A 
ENDBRANCH   1  14
BRANCH   6  20
ATOM     20  C   UNL     1      -1.922  12.481  20.306  0.00  0.00    +0.000 A 
ATOM     21  C   UNL     1      -1.690  13.827  19.969  0.00  0.00    +0.000 A 
ATOM     22  C   UNL     1      -1.645  14.799  20.971  0.00  0.00    +0.000 A 
ATOM     23  C   UNL     1      -1.785  14.437  22.311  0.00  0.00    +0.000 A 
ATOM     24  C   UNL     1      -1.979  13.104  22.656  0.00  0.00    +0.000 A 
ATOM     25  C   UNL     1      -2.070  12.134  21.657  0.00  0.00    +0.000 A 
ENDBRANCH   6  20
BRANCH   1  27
ATOM     26  C   UNL     1       1.661  12.525  19.788  0.00  0.00    +0.000 C 
ATOM     27  N   UNL     1       0.926  11.530  20.169  0.00  0.00    +0.000 NA
BRANCH  26  29
ATOM     28  C   UNL     1       3.162  14.557  20.287  0.00  0.00    +0.000 C 
ATOM     29  C   UNL     1       2.098  13.609  20.776  0.00  0.00    +0.000 C 
ATOM     30  O   UNL     1       1.616  13.703  21.901  0.00  0.00    +0.000 OA
ENDBRANCH  26  29
BRANCH  26  31
ATOM     31  S   UNL     1       2.239  12.967  18.212  0.00  0.00    +0.000 S 
ATOM     32  H   UNL     1       3.431  12.345  18.288  0.00  0.00    +0.000 HD
ENDBRANCH  26  31
ENDBRANCH   1  27
TORSDOF 6
ENDMDL
MODEL 5
REMARK VINA RESULT:      -7.0      0.375      1.278
REMARK  Name = 
REMARK  7 active torsions:
REMARK  status: ('A' for Active; 'I' for Inactive)
REMARK    1  A    between atoms: C_1  and  C_2
REMARK    2  A    between atoms: C_2  and  C_4
REMARK    3  A    between atoms: C_4  and  S_5
REMARK    4  A    between atoms: N_6  and  N_7
REMARK    5  A    between atoms: N_7  and  C_8
REMARK    6  A    between atoms: C_17  and  C_18
REMARK    7  A    between atoms: N_25  and  C_26
REMARK                            x       y       z     vdW  Elec       q    Type
REMARK                         _______ _______ _______ _____ _____    ______ ____
ROOT
ATOM      1  N   UNL     1       4.875   4.821  16.764  0.00  0.00    +0.000 N 
ATOM      2  C   UNL     1       4.212   6.040  16.926  0.00  0.00    +0.000 A 
ATOM      3  N   UNL     1       4.503   7.172  16.303  0.00  0.00    +0.000 NA
ATOM      4  N   UNL     1       3.782   8.197  16.845  0.00  0.00    +0.000 NA
ATOM      5  C   UNL     1       2.989   7.697  17.766  0.00  0.00    +0.000 A 
ATOM      6  N   UNL     1       3.178   6.314  17.837  0.00  0.00    +0.000 N 
ENDROOT
BRANCH   5   7
ATOM      7  C   UNL     1       2.093   8.511  18.605  0.00  0.00    +0.000 A 
ATOM      8  C   UNL     1       1.249   9.491  18.070  0.00  0.00    +0.000 A 
ATOM      9  C   UNL     1       0.213  10.032  18.837  0.00  0.00    +0.000 A 
ATOM     10  C   UNL     1       0.076   9.659  20.172  0.00  0.00    +0.000 A 
ATOM     11 CL   UNL     1      -1.245  10.260  21.095  0.00  0.00    +0.000 Cl
ATOM     12  C   UNL     1       0.995   8.790  20.751  0.00  0.00    +0.000 A 
ATOM     13  C   UNL     1       2.003   8.218  19.973  0.00  0.00    +0.000 A 
ENDBRANCH   5   7
BRANCH   1  14
ATOM     14  C   UNL     1       5.563   4.598  15.505  0.00  0.00    +0.000 A 
ATOM     15  C   UNL     1       4.942   3.957  14.435  0.00  0.00    +0.000 A 
ATOM     16  C   UNL     1       5.583   3.829  13.194  0.00  0.00    +0.000 A 
ATOM     17  C   UNL     1       6.876   4.314  13.020  0.00  0.00    +0.000 A 
ATOM     18  C   UNL     1       7.538   4.906  14.092  0.00  0.00    +0.000 A 
ATOM     19  C   UNL     1       6.899   5.038  15.323  0.00  0.00    +0.000 A 
ENDBRANCH   1  14
BRANCH   6  20
ATOM     20  C   UNL     1       2.461   5.435  18.687  0.00  0.00    +0.000 A 
ATOM     21  C   UNL     1       2.717   5.402  20.070  0.00  0.00    +0.000 A 
ATOM     22  C   UNL     1       2.012   4.517  20.889  0.00  0.00    +0.000 A 
ATOM     23  C   UNL     1       1.085   3.632  20.337  0.00  0.00    +0.000 A 
ATOM     24  C   UNL     1       0.852   3.632  18.966  0.00  0.00    +0.000 A 
ATOM     25  C   UNL     1       1.520   4.545  18.149  0.00  0.00    +0.000 A 
ENDBRANCH   6  20
BRANCH   1  27
ATOM     26  C   UNL     1       5.022   3.411  18.572  0.00  0.00    +0.000 C 
ATOM     27  N   UNL     1       4.517   3.656  17.405  0.00  0.00    +0.000 NA
BRANCH  26  29
ATOM     28  C   UNL     1       3.570   1.291  18.736  0.00  0.00    +0.000 C 
ATOM     29  C   UNL     1       4.524   2.238  19.418  0.00  0.00    +0.000 C 
ATOM     30  O   UNL     1       4.873   2.075  20.584  0.00  0.00    +0.000 OA
ENDBRANCH  26  29
BRANCH  26  31
ATOM     31  S   UNL     1       6.208   4.278  19.497  0.00  0.00    +0.000 S 
ATOM     32  H   UNL     1       5.518   4.328  20.652  0.00  0.00    +0.000 HD
ENDBRANCH  26  31
ENDBRANCH   1  27
TORSDOF 6
ENDMDL
MODEL 6
REMARK VINA RESULT:      -6.9      0.396      1.286
REMARK  Name = 
REMARK  7 active torsions:
REMARK  status: ('A' for Active; 'I' for Inactive)
REMARK    1  A    between atoms: C_1  and  C_2
REMARK    2  A    between atoms: C_2  and  C_4
REMARK    3  A    between atoms: C_4  and  S_5
REMARK    4  A    between atoms: N_6  and  N_7
REMARK    5  A    between atoms: N_7  and  C_8
REMARK    6  A    between atoms: C_17  and  C_18
REMARK    7  A    between atoms: N_25  and  C_26
REMARK                            x       y       z     vdW  Elec       q    Type
REMARK                         _______ _______ _______ _____ _____    ______ ____
ROOT
ATOM      1  N   UNL     1       4.882   4.850  16.716  0.00  0.00    +0.000 N 
ATOM      2  C   UNL     1       4.212   6.060  16.917  0.00  0.00    +0.000 A 
ATOM      3  N   UNL     1       4.482   7.208  16.315  0.00  0.00    +0.000 NA
ATOM      4  N   UNL     1       3.764   8.215  16.893  0.00  0.00    +0.000 NA
ATOM      5  C   UNL     1       2.993   7.688  17.818  0.00  0.00    +0.000 A 
ATOM      6  N   UNL     1       3.194   6.305  17.854  0.00  0.00    +0.000 N 
ENDROOT
BRANCH   5   7
ATOM      7  C   UNL     1       2.107   8.475  18.692  0.00  0.00    +0.000 A 
ATOM      8  C   UNL     1       1.256   9.471  18.198  0.00  0.00    +0.000 A 
ATOM      9  C   UNL     1       0.229   9.988  18.993  0.00  0.00    +0.000 A 
ATOM     10  C   UNL     1       0.109   9.574  20.317  0.00  0.00    +0.000 A 
ATOM     11 CL   UNL     1      -1.202  10.146  21.274  0.00  0.00    +0.000 Cl
ATOM     12  C   UNL     1       1.034   8.688  20.859  0.00  0.00    +0.000 A 
ATOM     13  C   UNL     1       2.033   8.140  20.051  0.00  0.00    +0.000 A 
ENDBRANCH   5   7
BRANCH   1  14
ATOM     14  C   UNL     1       5.547   4.662  15.438  0.00  0.00    +0.000 A 
ATOM     15  C   UNL     1       6.856   5.089  15.225  0.00  0.00    +0.000 A 
ATOM     16  C   UNL     1       7.519   4.820  14.018  0.00  0.00    +0.000 A 
ATOM     17  C   UNL     1       6.862   4.148  12.992  0.00  0.00    +0.000 A 
ATOM     18  C   UNL     1       5.535   3.764  13.161  0.00  0.00    +0.000 A 
ATOM     19  C   UNL     1       4.878   4.026  14.362  0.00  0.00    +0.000 A 
ENDBRANCH   1  14
BRANCH   6  20
ATOM     20  C   UNL     1       2.501   5.402  18.698  0.00  0.00    +0.000 A 
ATOM     21  C   UNL     1       1.503   4.555  18.182  0.00  0.00    +0.000 A 
ATOM     22  C   UNL     1       0.819   3.683  19.032  0.00  0.00    +0.000 A 
ATOM     23  C   UNL     1       1.090   3.677  20.401  0.00  0.00    +0.000 A 
ATOM     24  C   UNL     1       2.050   4.535  20.926  0.00  0.00    +0.000 A 
ATOM     25  C   UNL     1       2.768   5.376  20.075  0.00  0.00    +0.000 A 
ENDBRANCH   6  20
BRANCH   1  27
ATOM     26  C   UNL     1       5.041   3.422  18.508  0.00  0.00    +0.000 C 
ATOM     27  N   UNL     1       4.545   3.669  17.337  0.00  0.00    +0.000 NA
BRANCH  26  29
ATOM     28  C   UNL     1       3.541   1.336  18.672  0.00  0.00    +0.000 C 
ATOM     29  C   UNL     1       4.562   2.226  19.332  0.00  0.00    +0.000 C 
ATOM     30  O   UNL     1       4.978   2.002  20.465  0.00  0.00    +0.000 OA
ENDBRANCH  26  29
BRANCH  26  31
ATOM     31  S   UNL     1       6.192   4.307  19.459  0.00  0.00    +0.000 S 
ATOM     32  H   UNL     1       5.956   3.687  20.631  0.00  0.00    +0.000 HD
ENDBRANCH  26  31
ENDBRANCH   1  27
TORSDOF 6
ENDMDL
MODEL 7
REMARK VINA RESULT:      -6.5      9.533     11.473
REMARK  Name = 
REMARK  7 active torsions:
REMARK  status: ('A' for Active; 'I' for Inactive)
REMARK    1  A    between atoms: C_1  and  C_2
REMARK    2  A    between atoms: C_2  and  C_4
REMARK    3  A    between atoms: C_4  and  S_5
REMARK    4  A    between atoms: N_6  and  N_7
REMARK    5  A    between atoms: N_7  and  C_8
REMARK    6  A    between atoms: C_17  and  C_18
REMARK    7  A    between atoms: N_25  and  C_26
REMARK                            x       y       z     vdW  Elec       q    Type
REMARK                         _______ _______ _______ _____ _____    ______ ____
ROOT
ATOM      1  N   UNL     1       9.001  14.248  19.818  0.00  0.00    +0.000 N 
ATOM      2  C   UNL     1       8.921  13.360  20.895  0.00  0.00    +0.000 A 
ATOM      3  N   UNL     1       9.381  12.118  20.913  0.00  0.00    +0.000 NA
ATOM      4  N   UNL     1       8.959  11.486  22.047  0.00  0.00    +0.000 NA
ATOM      5  C   UNL     1       8.287  12.351  22.773  0.00  0.00    +0.000 A 
ATOM      6  N   UNL     1       8.265  13.585  22.116  0.00  0.00    +0.000 N 
ENDROOT
BRANCH   5   7
ATOM      7  C   UNL     1       7.632  12.018  24.049  0.00  0.00    +0.000 A 
ATOM      8  C   UNL     1       8.190  12.354  25.289  0.00  0.00    +0.000 A 
ATOM      9  C   UNL     1       7.420  12.292  26.454  0.00  0.00    +0.000 A 
ATOM     10  C   UNL     1       6.117  11.806  26.394  0.00  0.00    +0.000 A 
ATOM     11 CL   UNL     1       5.141  11.805  27.811  0.00  0.00    +0.000 Cl
ATOM     12  C   UNL     1       5.601  11.339  25.190  0.00  0.00    +0.000 A 
ATOM     13  C   UNL     1       6.355  11.442  24.019  0.00  0.00    +0.000 A 
ENDBRANCH   5   7
BRANCH   1  14
ATOM     14  C   UNL     1      10.074  14.040  18.861  0.00  0.00    +0.000 A 
ATOM     15  C   UNL     1       9.918  13.205  17.757  0.00  0.00    +0.000 A 
ATOM     16  C   UNL     1      10.927  13.082  16.791  0.00  0.00    +0.000 A 
ATOM     17  C   UNL     1      12.126  13.773  16.939  0.00  0.00    +0.000 A 
ATOM     18  C   UNL     1      12.327  14.567  18.065  0.00  0.00    +0.000 A 
ATOM     19  C   UNL     1      11.322  14.693  19.021  0.00  0.00    +0.000 A 
ENDBRANCH   1  14
BRANCH   6  20
ATOM     20  C   UNL     1       7.669  14.768  22.621  0.00  0.00    +0.000 A 
ATOM     21  C   UNL     1       8.434  15.716  23.324  0.00  0.00    +0.000 A 
ATOM     22  C   UNL     1       7.826  16.868  23.829  0.00  0.00    +0.000 A 
ATOM     23  C   UNL     1       6.453  17.063  23.678  0.00  0.00    +0.000 A 
ATOM     24  C   UNL     1       5.682  16.114  23.016  0.00  0.00    +0.000 A 
ATOM     25  C   UNL     1       6.291  14.983  22.470  0.00  0.00    +0.000 A 
ENDBRANCH   6  20
BRANCH   1  27
ATOM     26  C   UNL     1       7.472  15.841  19.185  0.00  0.00    +0.000 C 
ATOM     27  N   UNL     1       8.542  15.545  19.852  0.00  0.00    +0.000 NA
BRANCH  26  29
ATOM     28  C   UNL     1       7.475  18.175  20.272  0.00  0.00    +0.000 C 
ATOM     29  C   UNL     1       6.803  17.209  19.332  0.00  0.00    +0.000 C 
ATOM     30  O   UNL     1       5.778  17.505  18.725  0.00  0.00    +0.000 OA
ENDBRANCH  26  29
BRANCH  26  31
ATOM     31  S   UNL     1       6.502  14.877  18.117  0.00  0.00    +0.000 S 
ATOM     32  H   UNL     1       5.844  15.892  17.524  0.00  0.00    +0.000 HD
ENDBRANCH  26  31
ENDBRANCH   1  27
TORSDOF 6
ENDMDL
MODEL 8
REMARK VINA RESULT:      -6.4      9.589     11.381
REMARK  Name = 
REMARK  7 active torsions:
REMARK  status: ('A' for Active; 'I' for Inactive)
REMARK    1  A    between atoms: C_1  and  C_2
REMARK    2  A    between atoms: C_2  and  C_4
REMARK    3  A    between atoms: C_4  and  S_5
REMARK    4  A    between atoms: N_6  and  N_7
REMARK    5  A    between atoms: N_7  and  C_8
REMARK    6  A    between atoms: C_17  and  C_18
REMARK    7  A    between atoms: N_25  and  C_26
REMARK                            x       y       z     vdW  Elec       q    Type
REMARK                         _______ _______ _______ _____ _____    ______ ____
ROOT
ATOM      1  N   UNL     1       8.584  14.480  19.792  0.00  0.00    +0.000 N 
ATOM      2  C   UNL     1       8.659  13.599  20.875  0.00  0.00    +0.000 A 
ATOM      3  N   UNL     1       9.319  12.451  20.899  0.00  0.00    +0.000 NA
ATOM      4  N   UNL     1       9.014  11.766  22.040  0.00  0.00    +0.000 NA
ATOM      5  C   UNL     1       8.211  12.514  22.764  0.00  0.00    +0.000 A 
ATOM      6  N   UNL     1       7.981  13.722  22.099  0.00  0.00    +0.000 N 
ENDROOT
BRANCH   5   7
ATOM      7  C   UNL     1       7.628  12.086  24.047  0.00  0.00    +0.000 A 
ATOM      8  C   UNL     1       8.208  12.410  25.279  0.00  0.00    +0.000 A 
ATOM      9  C   UNL     1       7.488  12.249  26.467  0.00  0.00    +0.000 A 
ATOM     10  C   UNL     1       6.219  11.678  26.431  0.00  0.00    +0.000 A 
ATOM     11 CL   UNL     1       5.298  11.554  27.879  0.00  0.00    +0.000 Cl
ATOM     12  C   UNL     1       5.690  11.226  25.227  0.00  0.00    +0.000 A 
ATOM     13  C   UNL     1       6.392  11.426  24.037  0.00  0.00    +0.000 A 
ENDBRANCH   5   7
BRANCH   1  14
ATOM     14  C   UNL     1       9.671  14.445  18.829  0.00  0.00    +0.000 A 
ATOM     15  C   UNL     1      10.711  15.372  18.867  0.00  0.00    +0.000 A 
ATOM     16  C   UNL     1      11.802  15.274  17.990  0.00  0.00    +0.000 A 
ATOM     17  C   UNL     1      11.846  14.262  17.036  0.00  0.00    +0.000 A 
ATOM     18  C   UNL     1      10.790  13.360  16.942  0.00  0.00    +0.000 A 
ATOM     19  C   UNL     1       9.709  13.454  17.816  0.00  0.00    +0.000 A 
ENDBRANCH   1  14
BRANCH   6  20
ATOM     20  C   UNL     1       7.200  14.793  22.600  0.00  0.00    +0.000 A 
ATOM     21  C   UNL     1       7.798  15.851  23.308  0.00  0.00    +0.000 A 
ATOM     22  C   UNL     1       7.009  16.890  23.809  0.00  0.00    +0.000 A 
ATOM     23  C   UNL     1       5.623  16.862  23.649  0.00  0.00    +0.000 A 
ATOM     24  C   UNL     1       5.019  15.802  22.982  0.00  0.00    +0.000 A 
ATOM     25  C   UNL     1       5.806  14.784  22.440  0.00  0.00    +0.000 A 
ENDBRANCH   6  20
BRANCH   1  27
ATOM     26  C   UNL     1       6.842  15.812  19.109  0.00  0.00    +0.000 C 
ATOM     27  N   UNL     1       7.916  15.683  19.820  0.00  0.00    +0.000 NA
BRANCH  26  29
ATOM     28  C   UNL     1       6.379  18.064  20.267  0.00  0.00    +0.000 C 
ATOM     29  C   UNL     1       5.950  17.047  19.241  0.00  0.00    +0.000 C 
ATOM     30  O   UNL     1       4.942  17.205  18.558  0.00  0.00    +0.000 OA
ENDBRANCH  26  29
BRANCH  26  31
ATOM     31  S   UNL     1       6.091  14.722  17.986  0.00  0.00    +0.000 S 
ATOM     32  H   UNL     1       5.522  15.655  17.199  0.00  0.00    +0.000 HD
ENDBRANCH  26  31
ENDBRANCH   1  27
TORSDOF 6
ENDMDL
MODEL 9
REMARK VINA RESULT:      -6.3      9.641     11.352
REMARK  Name = 
REMARK  7 active torsions:
REMARK  status: ('A' for Active; 'I' for Inactive)
REMARK    1  A    between atoms: C_1  and  C_2
REMARK    2  A    between atoms: C_2  and  C_4
REMARK    3  A    between atoms: C_4  and  S_5
REMARK    4  A    between atoms: N_6  and  N_7
REMARK    5  A    between atoms: N_7  and  C_8
REMARK    6  A    between atoms: C_17  and  C_18
REMARK    7  A    between atoms: N_25  and  C_26
REMARK                            x       y       z     vdW  Elec       q    Type
REMARK                         _______ _______ _______ _____ _____    ______ ____
ROOT
ATOM      1  N   UNL     1       8.337  14.535  19.715  0.00  0.00    +0.000 N 
ATOM      2  C   UNL     1       8.393  13.734  20.860  0.00  0.00    +0.000 A 
ATOM      3  N   UNL     1       9.103  12.624  20.998  0.00  0.00    +0.000 NA
ATOM      4  N   UNL     1       8.768  12.004  22.167  0.00  0.00    +0.000 NA
ATOM      5  C   UNL     1       7.894  12.758  22.795  0.00  0.00    +0.000 A 
ATOM      6  N   UNL     1       7.645  13.906  22.037  0.00  0.00    +0.000 N 
ENDROOT
BRANCH   5   7
ATOM      7  C   UNL     1       7.263  12.390  24.074  0.00  0.00    +0.000 A 
ATOM      8  C   UNL     1       6.113  11.593  24.140  0.00  0.00    +0.000 A 
ATOM      9  C   UNL     1       5.714  11.023  25.353  0.00  0.00    +0.000 A 
ATOM     10  C   UNL     1       6.412  11.323  26.519  0.00  0.00    +0.000 A 
ATOM     11 CL   UNL     1       5.974  10.560  27.997  0.00  0.00    +0.000 Cl
ATOM     12  C   UNL     1       7.472  12.223  26.486  0.00  0.00    +0.000 A 
ATOM     13  C   UNL     1       7.897  12.758  25.268  0.00  0.00    +0.000 A 
ENDBRANCH   5   7
BRANCH   1  14
ATOM     14  C   UNL     1       9.475  14.490  18.814  0.00  0.00    +0.000 A 
ATOM     15  C   UNL     1      10.466  15.468  18.838  0.00  0.00    +0.000 A 
ATOM     16  C   UNL     1      11.606  15.366  18.028  0.00  0.00    +0.000 A 
ATOM     17  C   UNL     1      11.750  14.294  17.153  0.00  0.00    +0.000 A 
ATOM     18  C   UNL     1      10.744  13.335  17.069  0.00  0.00    +0.000 A 
ATOM     19  C   UNL     1       9.615  13.433  17.879  0.00  0.00    +0.000 A 
ENDBRANCH   1  14
BRANCH   6  20
ATOM     20  C   UNL     1       6.789  14.968  22.421  0.00  0.00    +0.000 A 
ATOM     21  C   UNL     1       5.402  14.893  22.195  0.00  0.00    +0.000 A 
ATOM     22  C   UNL     1       4.577  15.958  22.565  0.00  0.00    +0.000 A 
ATOM     23  C   UNL     1       5.125  17.115  23.118  0.00  0.00    +0.000 A 
ATOM     24  C   UNL     1       6.499  17.212  23.312  0.00  0.00    +0.000 A 
ATOM     25  C   UNL     1       7.323  16.135  22.986  0.00  0.00    +0.000 A 
ENDBRANCH   6  20
BRANCH   1  27
ATOM     26  C   UNL     1       6.522  15.702  18.928  0.00  0.00    +0.000 C 
ATOM     27  N   UNL     1       7.613  15.702  19.626  0.00  0.00    +0.000 NA
BRANCH  26  29
ATOM     28  C   UNL     1       4.210  16.674  18.348  0.00  0.00    +0.000 C 
ATOM     29  C   UNL     1       5.575  16.904  18.942  0.00  0.00    +0.000 C 
ATOM     30  O   UNL     1       5.903  17.992  19.405  0.00  0.00    +0.000 OA
ENDBRANCH  26  29
BRANCH  26  31
ATOM     31  S   UNL     1       5.805  14.461  17.949  0.00  0.00    +0.000 S 
ATOM     32  H   UNL     1       6.889  14.191  17.197  0.00  0.00    +0.000 HD
ENDBRANCH  26  31
ENDBRANCH   1  27
TORSDOF 6
ENDMDL
