MODEL 1
REMARK VINA RESULT:      -8.2      0.000      0.000
REMARK  Name = 
REMARK  6 active torsions:
REMARK  status: ('A' for Active; 'I' for Inactive)
REMARK    1  A    between atoms: C_1  and  O_2
REMARK    2  A    between atoms: O_2  and  C_3
REMARK    3  A    between atoms: C_8  and  O_9
REMARK    4  A    between atoms: O_9  and  C_10
REMARK    5  A    between atoms: C_14  and  N_15
REMARK    6  A    between atoms: N_15  and  C_16
REMARK                            x       y       z     vdW  Elec       q    Type
REMARK                         _______ _______ _______ _____ _____    ______ ____
ROOT
ATOM      1  C   UNL     1       4.865   4.863  17.628  0.00  0.00    +0.000 A 
ATOM      2  C   UNL     1       4.291   6.050  17.124  0.00  0.00    +0.000 A 
ATOM      3  C   UNL     1       3.443   6.785  17.931  0.00  0.00    +0.000 A 
ATOM      4  C   UNL     1       3.097   6.283  19.204  0.00  0.00    +0.000 A 
ATOM      5  C   UNL     1       3.578   5.091  19.689  0.00  0.00    +0.000 A 
ATOM      6  C   UNL     1       4.487   4.364  18.902  0.00  0.00    +0.000 A 
ATOM      7  C   UNL     1       2.234   7.253  19.780  0.00  0.00    +0.000 A 
ATOM      8  N   UNL     1       1.565   7.388  20.912  0.00  0.00    +0.000 NA
ATOM      9  N   UNL     1       0.939   8.582  20.723  0.00  0.00    +0.000 N 
ATOM     10  C   UNL     1       1.230   9.195  19.516  0.00  0.00    +0.000 A 
ATOM     11  C   UNL     1       2.072   8.325  18.879  0.00  0.00    +0.000 A 
ATOM     12  C   UNL     1       2.842   8.162  17.621  0.00  0.00    +0.000 C 
ATOM     13  H   UNL     1       0.304   8.908  21.437  0.00  0.00    +0.000 HD
ENDROOT
BRANCH   1  15
ATOM     14  C   UNL     1       7.035   4.874  16.693  0.00  0.00    +0.000 C 
ATOM     15  O   UNL     1       5.795   4.182  16.878  0.00  0.00    +0.000 OA
ENDBRANCH   1  15
BRANCH   6  16
ATOM     16  O   UNL     1       4.918   3.239  19.557  0.00  0.00    +0.000 OA
ATOM     17  C   UNL     1       3.989   2.381  20.195  0.00  0.00    +0.000 C 
ENDBRANCH   6  16
BRANCH  10  18
ATOM     18  N   UNL     1       0.661  10.351  19.109  0.00  0.00    +0.000 N 
ATOM     19  H   UNL     1       1.145  11.227  19.288  0.00  0.00    +0.000 HD
BRANCH  18  20
ATOM     20  C   UNL     1      -0.658  10.546  18.638  0.00  0.00    +0.000 A 
ATOM     21  C   UNL     1      -1.119  10.029  17.423  0.00  0.00    +0.000 A 
ATOM     22  C   UNL     1      -2.424  10.289  16.988  0.00  0.00    +0.000 A 
ATOM     23 CL   UNL     1      -2.980   9.613  15.506  0.00  0.00    +0.000 Cl
ATOM     24  C   UNL     1      -3.280  11.087  17.741  0.00  0.00    +0.000 A 
ATOM     25  C   UNL     1      -2.822  11.615  18.944  0.00  0.00    +0.000 A 
ATOM     26 CL   UNL     1      -3.860  12.615  19.885  0.00  0.00    +0.000 Cl
ATOM     27  C   UNL     1      -1.528  11.347  19.393  0.00  0.00    +0.000 A 
ENDBRANCH  18  20
ENDBRANCH  10  18
TORSDOF 4
ENDMDL
MODEL 2
REMARK VINA RESULT:      -8.0      4.936      8.035
REMARK  Name = 
REMARK  6 active torsions:
REMARK  status: ('A' for Active; 'I' for Inactive)
REMARK    1  A    between atoms: C_1  and  O_2
REMARK    2  A    between atoms: O_2  and  C_3
REMARK    3  A    between atoms: C_8  and  O_9
REMARK    4  A    between atoms: O_9  and  C_10
REMARK    5  A    between atoms: C_14  and  N_15
REMARK    6  A    between atoms: N_15  and  C_16
REMARK                            x       y       z     vdW  Elec       q    Type
REMARK                         _______ _______ _______ _____ _____    ______ ____
ROOT
ATOM      1  C   UNL     1       0.881  10.895  19.820  0.00  0.00    +0.000 A 
ATOM      2  C   UNL     1       1.471  10.139  18.784  0.00  0.00    +0.000 A 
ATOM      3  C   UNL     1       1.750   8.802  18.998  0.00  0.00    +0.000 A 
ATOM      4  C   UNL     1       1.525   8.248  20.276  0.00  0.00    +0.000 A 
ATOM      5  C   UNL     1       1.027   8.980  21.327  0.00  0.00    +0.000 A 
ATOM      6  C   UNL     1       0.683  10.324  21.106  0.00  0.00    +0.000 A 
ATOM      7  C   UNL     1       1.895   6.880  20.175  0.00  0.00    +0.000 A 
ATOM      8  N   UNL     1       1.941   5.838  20.986  0.00  0.00    +0.000 NA
ATOM      9  N   UNL     1       2.430   4.869  20.165  0.00  0.00    +0.000 N 
ATOM     10  C   UNL     1       2.658   5.284  18.864  0.00  0.00    +0.000 A 
ATOM     11  C   UNL     1       2.323   6.611  18.859  0.00  0.00    +0.000 A 
ATOM     12  C   UNL     1       2.250   7.789  17.960  0.00  0.00    +0.000 C 
ATOM     13  H   UNL     1       2.616   3.957  20.557  0.00  0.00    +0.000 HD
ENDROOT
BRANCH   1  15
ATOM     14  C   UNL     1      -0.579  12.338  18.651  0.00  0.00    +0.000 C 
ATOM     15  O   UNL     1       0.496  12.194  19.585  0.00  0.00    +0.000 OA
ENDBRANCH   1  15
BRANCH   6  16
ATOM     16  O   UNL     1       0.141  10.888  22.232  0.00  0.00    +0.000 OA
ATOM     17  C   UNL     1      -0.778  10.160  23.026  0.00  0.00    +0.000 C 
ENDBRANCH   6  16
BRANCH  10  18
ATOM     18  N   UNL     1       3.203   4.495  17.912  0.00  0.00    +0.000 N 
ATOM     19  H   UNL     1       2.706   3.655  17.626  0.00  0.00    +0.000 HD
BRANCH  18  20
ATOM     20  C   UNL     1       4.512   4.557  17.384  0.00  0.00    +0.000 A 
ATOM     21  C   UNL     1       4.823   4.199  16.068  0.00  0.00    +0.000 A 
ATOM     22  C   UNL     1       6.146   4.242  15.611  0.00  0.00    +0.000 A 
ATOM     23 CL   UNL     1       6.497   3.829  13.978  0.00  0.00    +0.000 Cl
ATOM     24  C   UNL     1       7.181   4.616  16.462  0.00  0.00    +0.000 A 
ATOM     25  C   UNL     1       6.879   4.960  17.776  0.00  0.00    +0.000 A 
ATOM     26 CL   UNL     1       8.147   5.413  18.849  0.00  0.00    +0.000 Cl
ATOM     27  C   UNL     1       5.562   4.936  18.235  0.00  0.00    +0.000 A 
ENDBRANCH  18  20
ENDBRANCH  10  18
TORSDOF 4
ENDMDL
MODEL 3
REMARK VINA RESULT:      -8.0      4.713      8.003
REMARK  Name = 
REMARK  6 active torsions:
REMARK  status: ('A' for Active; 'I' for Inactive)
REMARK    1  A    between atoms: C_1  and  O_2
REMARK    2  A    between atoms: O_2  and  C_3
REMARK    3  A    between atoms: C_8  and  O_9
REMARK    4  A    between atoms: O_9  and  C_10
REMARK    5  A    between atoms: C_14  and  N_15
REMARK    6  A    between atoms: N_15  and  C_16
REMARK                            x       y       z     vdW  Elec       q    Type
REMARK                         _______ _______ _______ _____ _____    ______ ____
ROOT
ATOM      1  C   UNL     1       0.614   9.990  19.818  0.00  0.00    +0.000 A 
ATOM      2  C   UNL     1       1.446   9.333  18.885  0.00  0.00    +0.000 A 
ATOM      3  C   UNL     1       1.851   8.036  19.138  0.00  0.00    +0.000 A 
ATOM      4  C   UNL     1       1.502   7.432  20.365  0.00  0.00    +0.000 A 
ATOM      5  C   UNL     1       0.761   8.076  21.326  0.00  0.00    +0.000 A 
ATOM      6  C   UNL     1       0.292   9.373  21.056  0.00  0.00    +0.000 A 
ATOM      7  C   UNL     1       2.048   6.122  20.320  0.00  0.00    +0.000 A 
ATOM      8  N   UNL     1       2.097   5.076  21.127  0.00  0.00    +0.000 NA
ATOM      9  N   UNL     1       2.822   4.191  20.390  0.00  0.00    +0.000 N 
ATOM     10  C   UNL     1       3.195   4.657  19.141  0.00  0.00    +0.000 A 
ATOM     11  C   UNL     1       2.704   5.934  19.087  0.00  0.00    +0.000 A 
ATOM     12  C   UNL     1       2.627   7.113  18.189  0.00  0.00    +0.000 C 
ATOM     13  H   UNL     1       3.056   3.301  20.805  0.00  0.00    +0.000 HD
ENDROOT
BRANCH   1  15
ATOM     14  C   UNL     1      -0.860  11.260  18.478  0.00  0.00    +0.000 C 
ATOM     15  O   UNL     1       0.113  11.237  19.528  0.00  0.00    +0.000 OA
ENDBRANCH   1  15
BRANCH   6  16
ATOM     16  O   UNL     1      -0.482   9.843  22.085  0.00  0.00    +0.000 OA
ATOM     17  C   UNL     1      -0.143   9.551  23.429  0.00  0.00    +0.000 C 
ENDBRANCH   6  16
BRANCH  10  18
ATOM     18  N   UNL     1       3.973   3.960  18.285  0.00  0.00    +0.000 N 
ATOM     19  H   UNL     1       3.964   2.944  18.327  0.00  0.00    +0.000 HD
BRANCH  18  20
ATOM     20  C   UNL     1       4.996   4.458  17.446  0.00  0.00    +0.000 A 
ATOM     21  C   UNL     1       5.840   5.511  17.813  0.00  0.00    +0.000 A 
ATOM     22  C   UNL     1       6.809   5.991  16.923  0.00  0.00    +0.000 A 
ATOM     23 CL   UNL     1       7.859   7.264  17.412  0.00  0.00    +0.000 Cl
ATOM     24  C   UNL     1       6.936   5.449  15.649  0.00  0.00    +0.000 A 
ATOM     25  C   UNL     1       6.090   4.411  15.273  0.00  0.00    +0.000 A 
ATOM     26 CL   UNL     1       6.221   3.734  13.695  0.00  0.00    +0.000 Cl
ATOM     27  C   UNL     1       5.132   3.916  16.159  0.00  0.00    +0.000 A 
ENDBRANCH  18  20
ENDBRANCH  10  18
TORSDOF 4
ENDMDL
MODEL 4
REMARK VINA RESULT:      -8.0      0.198      1.810
REMARK  Name = 
REMARK  6 active torsions:
REMARK  status: ('A' for Active; 'I' for Inactive)
REMARK    1  A    between atoms: C_1  and  O_2
REMARK    2  A    between atoms: O_2  and  C_3
REMARK    3  A    between atoms: C_8  and  O_9
REMARK    4  A    between atoms: O_9  and  C_10
REMARK    5  A    between atoms: C_14  and  N_15
REMARK    6  A    between atoms: N_15  and  C_16
REMARK                            x       y       z     vdW  Elec       q    Type
REMARK                         _______ _______ _______ _____ _____    ______ ____
ROOT
ATOM      1  C   UNL     1       4.871   4.873  17.697  0.00  0.00    +0.000 A 
ATOM      2  C   UNL     1       4.338   6.072  17.175  0.00  0.00    +0.000 A 
ATOM      3  C   UNL     1       3.476   6.822  17.953  0.00  0.00    +0.000 A 
ATOM      4  C   UNL     1       3.076   6.325  19.212  0.00  0.00    +0.000 A 
ATOM      5  C   UNL     1       3.516   5.124  19.712  0.00  0.00    +0.000 A 
ATOM      6  C   UNL     1       4.439   4.380  18.957  0.00  0.00    +0.000 A 
ATOM      7  C   UNL     1       2.212   7.311  19.759  0.00  0.00    +0.000 A 
ATOM      8  N   UNL     1       1.505   7.458  20.867  0.00  0.00    +0.000 NA
ATOM      9  N   UNL     1       0.909   8.663  20.658  0.00  0.00    +0.000 N 
ATOM     10  C   UNL     1       1.254   9.272  19.463  0.00  0.00    +0.000 A 
ATOM     11  C   UNL     1       2.101   8.386  18.854  0.00  0.00    +0.000 A 
ATOM     12  C   UNL     1       2.912   8.210  17.624  0.00  0.00    +0.000 C 
ATOM     13  H   UNL     1       0.255   9.001  21.349  0.00  0.00    +0.000 HD
ENDROOT
BRANCH   1  15
ATOM     14  C   UNL     1       6.738   4.993  16.254  0.00  0.00    +0.000 C 
ATOM     15  O   UNL     1       5.814   4.175  16.980  0.00  0.00    +0.000 OA
ENDBRANCH   1  15
BRANCH   6  16
ATOM     16  O   UNL     1       4.825   3.247  19.625  0.00  0.00    +0.000 OA
ATOM     17  C   UNL     1       4.024   2.080  19.579  0.00  0.00    +0.000 C 
ENDBRANCH   6  16
BRANCH  10  18
ATOM     18  N   UNL     1       0.722  10.439  19.038  0.00  0.00    +0.000 N 
ATOM     19  H   UNL     1       1.265  11.293  19.139  0.00  0.00    +0.000 HD
BRANCH  18  20
ATOM     20  C   UNL     1      -0.613  10.688  18.649  0.00  0.00    +0.000 A 
ATOM     21  C   UNL     1      -1.502  11.452  19.412  0.00  0.00    +0.000 A 
ATOM     22  C   UNL     1      -2.827  11.631  18.997  0.00  0.00    +0.000 A 
ATOM     23 CL   UNL     1      -3.891  12.604  19.937  0.00  0.00    +0.000 Cl
ATOM     24  C   UNL     1      -3.294  11.034  17.831  0.00  0.00    +0.000 A 
ATOM     25  C   UNL     1      -2.419  10.261  17.075  0.00  0.00    +0.000 A 
ATOM     26 CL   UNL     1      -2.980   9.502  15.635  0.00  0.00    +0.000 Cl
ATOM     27  C   UNL     1      -1.092  10.091  17.473  0.00  0.00    +0.000 A 
ENDBRANCH  18  20
ENDBRANCH  10  18
TORSDOF 4
ENDMDL
MODEL 5
REMARK VINA RESULT:      -7.9      5.080      8.194
REMARK  Name = 
REMARK  6 active torsions:
REMARK  status: ('A' for Active; 'I' for Inactive)
REMARK    1  A    between atoms: C_1  and  O_2
REMARK    2  A    between atoms: O_2  and  C_3
REMARK    3  A    between atoms: C_8  and  O_9
REMARK    4  A    between atoms: O_9  and  C_10
REMARK    5  A    between atoms: C_14  and  N_15
REMARK    6  A    between atoms: N_15  and  C_16
REMARK                            x       y       z     vdW  Elec       q    Type
REMARK                         _______ _______ _______ _____ _____    ______ ____
ROOT
ATOM      1  C   UNL     1       0.893  11.232  19.637  0.00  0.00    +0.000 A 
ATOM      2  C   UNL     1       1.498  10.465  18.617  0.00  0.00    +0.000 A 
ATOM      3  C   UNL     1       1.735   9.121  18.834  0.00  0.00    +0.000 A 
ATOM      4  C   UNL     1       1.452   8.567  20.100  0.00  0.00    +0.000 A 
ATOM      5  C   UNL     1       0.937   9.307  21.137  0.00  0.00    +0.000 A 
ATOM      6  C   UNL     1       0.636  10.661  20.911  0.00  0.00    +0.000 A 
ATOM      7  C   UNL     1       1.789   7.191  20.004  0.00  0.00    +0.000 A 
ATOM      8  N   UNL     1       1.781   6.144  20.810  0.00  0.00    +0.000 NA
ATOM      9  N   UNL     1       2.272   5.166  20.001  0.00  0.00    +0.000 N 
ATOM     10  C   UNL     1       2.556   5.581  18.711  0.00  0.00    +0.000 A 
ATOM     11  C   UNL     1       2.255   6.916  18.702  0.00  0.00    +0.000 A 
ATOM     12  C   UNL     1       2.245   8.100  17.808  0.00  0.00    +0.000 C 
ATOM     13  H   UNL     1       2.421   4.248  20.394  0.00  0.00    +0.000 HD
ENDROOT
BRANCH   1  15
ATOM     14  C   UNL     1       1.659  13.443  19.316  0.00  0.00    +0.000 C 
ATOM     15  O   UNL     1       0.550  12.542  19.396  0.00  0.00    +0.000 OA
ENDBRANCH   1  15
BRANCH   6  16
ATOM     16  O   UNL     1       0.070  11.233  22.021  0.00  0.00    +0.000 OA
ATOM     17  C   UNL     1      -0.654  10.441  22.946  0.00  0.00    +0.000 C 
ENDBRANCH   6  16
BRANCH  10  18
ATOM     18  N   UNL     1       3.112   4.782  17.774  0.00  0.00    +0.000 N 
ATOM     19  H   UNL     1       2.559   4.025  17.381  0.00  0.00    +0.000 HD
BRANCH  18  20
ATOM     20  C   UNL     1       4.473   4.712  17.397  0.00  0.00    +0.000 A 
ATOM     21  C   UNL     1       5.522   5.074  18.248  0.00  0.00    +0.000 A 
ATOM     22  C   UNL     1       6.849   5.023  17.806  0.00  0.00    +0.000 A 
ATOM     23 CL   UNL     1       8.124   5.441  18.884  0.00  0.00    +0.000 Cl
ATOM     24  C   UNL     1       7.151   4.637  16.504  0.00  0.00    +0.000 A 
ATOM     25  C   UNL     1       6.110   4.290  15.648  0.00  0.00    +0.000 A 
ATOM     26 CL   UNL     1       6.461   3.823  14.029  0.00  0.00    +0.000 Cl
ATOM     27  C   UNL     1       4.786   4.322  16.086  0.00  0.00    +0.000 A 
ENDBRANCH  18  20
ENDBRANCH  10  18
TORSDOF 4
ENDMDL
MODEL 6
REMARK VINA RESULT:      -7.9      4.940      7.795
REMARK  Name = 
REMARK  6 active torsions:
REMARK  status: ('A' for Active; 'I' for Inactive)
REMARK    1  A    between atoms: C_1  and  O_2
REMARK    2  A    between atoms: O_2  and  C_3
REMARK    3  A    between atoms: C_8  and  O_9
REMARK    4  A    between atoms: O_9  and  C_10
REMARK    5  A    between atoms: C_14  and  N_15
REMARK    6  A    between atoms: N_15  and  C_16
REMARK                            x       y       z     vdW  Elec       q    Type
REMARK                         _______ _______ _______ _____ _____    ______ ____
ROOT
ATOM      1  C   UNL     1       0.757   9.866  19.781  0.00  0.00    +0.000 A 
ATOM      2  C   UNL     1       1.629   9.223  18.875  0.00  0.00    +0.000 A 
ATOM      3  C   UNL     1       2.007   7.916  19.116  0.00  0.00    +0.000 A 
ATOM      4  C   UNL     1       1.591   7.287  20.307  0.00  0.00    +0.000 A 
ATOM      5  C   UNL     1       0.808   7.915  21.246  0.00  0.00    +0.000 A 
ATOM      6  C   UNL     1       0.367   9.223  20.985  0.00  0.00    +0.000 A 
ATOM      7  C   UNL     1       2.126   5.972  20.257  0.00  0.00    +0.000 A 
ATOM      8  N   UNL     1       2.124   4.906  21.039  0.00  0.00    +0.000 NA
ATOM      9  N   UNL     1       2.876   4.031  20.318  0.00  0.00    +0.000 N 
ATOM     10  C   UNL     1       3.317   4.524  19.102  0.00  0.00    +0.000 A 
ATOM     11  C   UNL     1       2.842   5.807  19.054  0.00  0.00    +0.000 A 
ATOM     12  C   UNL     1       2.821   7.008  18.184  0.00  0.00    +0.000 C 
ATOM     13  H   UNL     1       3.081   3.129  20.722  0.00  0.00    +0.000 HD
ENDROOT
BRANCH   1  15
ATOM     14  C   UNL     1       1.271  12.037  19.004  0.00  0.00    +0.000 C 
ATOM     15  O   UNL     1       0.284  11.126  19.498  0.00  0.00    +0.000 OA
ENDBRANCH   1  15
BRANCH   6  16
ATOM     16  O   UNL     1      -0.454   9.676  21.986  0.00  0.00    +0.000 OA
ATOM     17  C   UNL     1      -0.028   9.639  23.335  0.00  0.00    +0.000 C 
ENDBRANCH   6  16
BRANCH  10  18
ATOM     18  N   UNL     1       4.131   3.840  18.269  0.00  0.00    +0.000 N 
ATOM     19  H   UNL     1       4.242   2.838  18.403  0.00  0.00    +0.000 HD
BRANCH  18  20
ATOM     20  C   UNL     1       5.048   4.367  17.331  0.00  0.00    +0.000 A 
ATOM     21  C   UNL     1       5.211   3.843  16.044  0.00  0.00    +0.000 A 
ATOM     22  C   UNL     1       6.165   4.380  15.172  0.00  0.00    +0.000 A 
ATOM     23 CL   UNL     1       6.321   3.741  13.581  0.00  0.00    +0.000 Cl
ATOM     24  C   UNL     1       6.987   5.428  15.574  0.00  0.00    +0.000 A 
ATOM     25  C   UNL     1       6.840   5.943  16.857  0.00  0.00    +0.000 A 
ATOM     26 CL   UNL     1       7.857   7.230  17.380  0.00  0.00    +0.000 Cl
ATOM     27  C   UNL     1       5.880   5.424  17.728  0.00  0.00    +0.000 A 
ENDBRANCH  18  20
ENDBRANCH  10  18
TORSDOF 4
ENDMDL
MODEL 7
REMARK VINA RESULT:      -7.7      5.153      8.603
REMARK  Name = 
REMARK  6 active torsions:
REMARK  status: ('A' for Active; 'I' for Inactive)
REMARK    1  A    between atoms: C_1  and  O_2
REMARK    2  A    between atoms: O_2  and  C_3
REMARK    3  A    between atoms: C_8  and  O_9
REMARK    4  A    between atoms: O_9  and  C_10
REMARK    5  A    between atoms: C_14  and  N_15
REMARK    6  A    between atoms: N_15  and  C_16
REMARK                            x       y       z     vdW  Elec       q    Type
REMARK                         _______ _______ _______ _____ _____    ______ ____
ROOT
ATOM      1  C   UNL     1      -0.313  10.692  22.180  0.00  0.00    +0.000 A 
ATOM      2  C   UNL     1       0.157   9.361  22.134  0.00  0.00    +0.000 A 
ATOM      3  C   UNL     1       0.816   8.917  21.003  0.00  0.00    +0.000 A 
ATOM      4  C   UNL     1       0.920   9.774  19.887  0.00  0.00    +0.000 A 
ATOM      5  C   UNL     1       0.402  11.046  19.874  0.00  0.00    +0.000 A 
ATOM      6  C   UNL     1      -0.217  11.531  21.039  0.00  0.00    +0.000 A 
ATOM      7  C   UNL     1       1.645   9.044  18.907  0.00  0.00    +0.000 A 
ATOM      8  N   UNL     1       2.059   9.252  17.669  0.00  0.00    +0.000 NA
ATOM      9  N   UNL     1       2.670   8.072  17.378  0.00  0.00    +0.000 N 
ATOM     10  C   UNL     1       2.665   7.155  18.416  0.00  0.00    +0.000 A 
ATOM     11  C   UNL     1       1.981   7.777  19.425  0.00  0.00    +0.000 A 
ATOM     12  C   UNL     1       1.520   7.567  20.820  0.00  0.00    +0.000 C 
ATOM     13  H   UNL     1       3.041   7.940  16.449  0.00  0.00    +0.000 HD
ENDROOT
BRANCH   1  15
ATOM     14  C   UNL     1      -2.217  11.647  23.202  0.00  0.00    +0.000 C 
ATOM     15  O   UNL     1      -0.870  11.180  23.339  0.00  0.00    +0.000 OA
ENDBRANCH   1  15
BRANCH   6  16
ATOM     16  O   UNL     1      -0.617  12.832  20.881  0.00  0.00    +0.000 OA
ATOM     17  C   UNL     1      -1.474  13.195  19.813  0.00  0.00    +0.000 C 
ENDBRANCH   6  16
BRANCH  10  18
ATOM     18  N   UNL     1       3.160   5.902  18.309  0.00  0.00    +0.000 N 
ATOM     19  H   UNL     1       2.646   5.133  18.731  0.00  0.00    +0.000 HD
BRANCH  18  20
ATOM     20  C   UNL     1       4.443   5.516  17.859  0.00  0.00    +0.000 A 
ATOM     21  C   UNL     1       4.663   4.881  16.632  0.00  0.00    +0.000 A 
ATOM     22  C   UNL     1       5.952   4.483  16.257  0.00  0.00    +0.000 A 
ATOM     23 CL   UNL     1       6.202   3.735  14.727  0.00  0.00    +0.000 Cl
ATOM     24  C   UNL     1       7.035   4.688  17.105  0.00  0.00    +0.000 A 
ATOM     25  C   UNL     1       6.820   5.306  18.333  0.00  0.00    +0.000 A 
ATOM     26 CL   UNL     1       8.144   5.556  19.403  0.00  0.00    +0.000 Cl
ATOM     27  C   UNL     1       5.541   5.720  18.708  0.00  0.00    +0.000 A 
ENDBRANCH  18  20
ENDBRANCH  10  18
TORSDOF 4
ENDMDL
MODEL 8
REMARK VINA RESULT:      -7.6      1.634      3.331
REMARK  Name = 
REMARK  6 active torsions:
REMARK  status: ('A' for Active; 'I' for Inactive)
REMARK    1  A    between atoms: C_1  and  O_2
REMARK    2  A    between atoms: O_2  and  C_3
REMARK    3  A    between atoms: C_8  and  O_9
REMARK    4  A    between atoms: O_9  and  C_10
REMARK    5  A    between atoms: C_14  and  N_15
REMARK    6  A    between atoms: N_15  and  C_16
REMARK                            x       y       z     vdW  Elec       q    Type
REMARK                         _______ _______ _______ _____ _____    ______ ____
ROOT
ATOM      1  C   UNL     1       2.849   4.247  19.905  0.00  0.00    +0.000 A 
ATOM      2  C   UNL     1       2.244   5.300  20.624  0.00  0.00    +0.000 A 
ATOM      3  C   UNL     1       2.076   6.527  20.010  0.00  0.00    +0.000 A 
ATOM      4  C   UNL     1       2.597   6.725  18.714  0.00  0.00    +0.000 A 
ATOM      5  C   UNL     1       3.261   5.742  18.021  0.00  0.00    +0.000 A 
ATOM      6  C   UNL     1       3.386   4.473  18.610  0.00  0.00    +0.000 A 
ATOM      7  C   UNL     1       2.261   8.060  18.363  0.00  0.00    +0.000 A 
ATOM      8  N   UNL     1       2.457   8.857  17.326  0.00  0.00    +0.000 NA
ATOM      9  N   UNL     1       1.855  10.005  17.741  0.00  0.00    +0.000 N 
ATOM     10  C   UNL     1       1.271   9.924  18.993  0.00  0.00    +0.000 A 
ATOM     11  C   UNL     1       1.542   8.652  19.421  0.00  0.00    +0.000 A 
ATOM     12  C   UNL     1       1.319   7.739  20.569  0.00  0.00    +0.000 C 
ATOM     13  H   UNL     1       1.905  10.815  17.141  0.00  0.00    +0.000 HD
ENDROOT
BRANCH   1  15
ATOM     14  C   UNL     1       2.077   2.795  21.601  0.00  0.00    +0.000 C 
ATOM     15  O   UNL     1       2.922   2.992  20.462  0.00  0.00    +0.000 OA
ENDBRANCH   1  15
BRANCH   6  16
ATOM     16  O   UNL     1       4.012   3.595  17.763  0.00  0.00    +0.000 OA
ATOM     17  C   UNL     1       4.908   4.068  16.774  0.00  0.00    +0.000 C 
ENDBRANCH   6  16
BRANCH  10  18
ATOM     18  N   UNL     1       0.682  10.970  19.612  0.00  0.00    +0.000 N 
ATOM     19  H   UNL     1       1.181  11.442  20.363  0.00  0.00    +0.000 HD
BRANCH  18  20
ATOM     20  C   UNL     1      -0.663  11.391  19.507  0.00  0.00    +0.000 A 
ATOM     21  C   UNL     1      -1.261  12.272  20.414  0.00  0.00    +0.000 A 
ATOM     22  C   UNL     1      -2.611  12.621  20.284  0.00  0.00    +0.000 A 
ATOM     23 CL   UNL     1      -3.314  13.734  21.392  0.00  0.00    +0.000 Cl
ATOM     24  C   UNL     1      -3.391  12.081  19.266  0.00  0.00    +0.000 A 
ATOM     25  C   UNL     1      -2.805  11.194  18.370  0.00  0.00    +0.000 A 
ATOM     26 CL   UNL     1      -3.755  10.504  17.111  0.00  0.00    +0.000 Cl
ATOM     27  C   UNL     1      -1.456  10.853  18.483  0.00  0.00    +0.000 A 
ENDBRANCH  18  20
ENDBRANCH  10  18
TORSDOF 4
ENDMDL
MODEL 9
REMARK VINA RESULT:      -7.5      1.123      2.461
REMARK  Name = 
REMARK  6 active torsions:
REMARK  status: ('A' for Active; 'I' for Inactive)
REMARK    1  A    between atoms: C_1  and  O_2
REMARK    2  A    between atoms: O_2  and  C_3
REMARK    3  A    between atoms: C_8  and  O_9
REMARK    4  A    between atoms: O_9  and  C_10
REMARK    5  A    between atoms: C_14  and  N_15
REMARK    6  A    between atoms: N_15  and  C_16
REMARK                            x       y       z     vdW  Elec       q    Type
REMARK                         _______ _______ _______ _____ _____    ______ ____
ROOT
ATOM      1  C   UNL     1       4.058   4.155  18.993  0.00  0.00    +0.000 A 
ATOM      2  C   UNL     1       3.282   4.945  19.869  0.00  0.00    +0.000 A 
ATOM      3  C   UNL     1       2.852   6.191  19.453  0.00  0.00    +0.000 A 
ATOM      4  C   UNL     1       3.275   6.682  18.199  0.00  0.00    +0.000 A 
ATOM      5  C   UNL     1       4.095   5.968  17.359  0.00  0.00    +0.000 A 
ATOM      6  C   UNL     1       4.491   4.676  17.745  0.00  0.00    +0.000 A 
ATOM      7  C   UNL     1       2.668   7.959  18.060  0.00  0.00    +0.000 A 
ATOM      8  N   UNL     1       2.665   8.925  17.158  0.00  0.00    +0.000 NA
ATOM      9  N   UNL     1       1.863   9.852  17.747  0.00  0.00    +0.000 N 
ATOM     10  C   UNL     1       1.352   9.469  18.976  0.00  0.00    +0.000 A 
ATOM     11  C   UNL     1       1.885   8.228  19.201  0.00  0.00    +0.000 A 
ATOM     12  C   UNL     1       1.890   7.127  20.196  0.00  0.00    +0.000 C 
ATOM     13  H   UNL     1       1.728  10.737  17.280  0.00  0.00    +0.000 HD
ENDROOT
BRANCH   1  15
ATOM     14  C   UNL     1       3.545   1.856  18.811  0.00  0.00    +0.000 C 
ATOM     15  O   UNL     1       4.398   2.872  19.349  0.00  0.00    +0.000 OA
ENDBRANCH   1  15
BRANCH   6  16
ATOM     16  O   UNL     1       5.247   4.080  16.769  0.00  0.00    +0.000 OA
ATOM     17  C   UNL     1       6.489   4.639  16.383  0.00  0.00    +0.000 C 
ENDBRANCH   6  16
BRANCH  10  18
ATOM     18  N   UNL     1       0.590  10.270  19.752  0.00  0.00    +0.000 N 
ATOM     19  H   UNL     1       0.866  10.424  20.719  0.00  0.00    +0.000 HD
BRANCH  18  20
ATOM     20  C   UNL     1      -0.697  10.779  19.467  0.00  0.00    +0.000 A 
ATOM     21  C   UNL     1      -1.454  10.369  18.365  0.00  0.00    +0.000 A 
ATOM     22  C   UNL     1      -2.707  10.939  18.109  0.00  0.00    +0.000 A 
ATOM     23 CL   UNL     1      -3.634  10.393  16.765  0.00  0.00    +0.000 Cl
ATOM     24  C   UNL     1      -3.213  11.942  18.929  0.00  0.00    +0.000 A 
ATOM     25  C   UNL     1      -2.459  12.364  20.019  0.00  0.00    +0.000 A 
ATOM     26 CL   UNL     1      -3.061  13.613  21.038  0.00  0.00    +0.000 Cl
ATOM     27  C   UNL     1      -1.216  11.790  20.290  0.00  0.00    +0.000 A 
ENDBRANCH  18  20
ENDBRANCH  10  18
TORSDOF 4
ENDMDL
