MODEL 1
REMARK VINA RESULT:      -7.8      0.000      0.000
REMARK  Name = 
REMARK  12 active torsions:
REMARK  status: ('A' for Active; 'I' for Inactive)
REMARK    1  A    between atoms: C_1  and  C_2
REMARK    2  A    between atoms: C_5  and  N_6
REMARK    3  A    between atoms: C_10  and  N_11
REMARK    4  A    between atoms: N_11  and  C_12
REMARK    5  A    between atoms: N_11  and  C_20
REMARK    6  A    between atoms: C_12  and  C_13
REMARK    7  A    between atoms: C_13  and  C_14
REMARK    8  A    between atoms: C_20  and  N_22
REMARK    9  A    between atoms: N_22  and  C_23
REMARK   10  A    between atoms: C_26  and  N_27
REMARK   11  A    between atoms: N_27  and  C_28
REMARK   12  A    between atoms: N_27  and  C_29
REMARK                            x       y       z     vdW  Elec       q    Type
REMARK                         _______ _______ _______ _____ _____    ______ ____
ROOT
ATOM      1  N   UNL     1      -0.189  12.227  20.195  0.00  0.00    +0.000 N 
ENDROOT
BRANCH   1   6
ATOM      2  N   UNL     1      -1.702  13.329  23.005  0.00  0.00    +0.000 N 
ATOM      3  C   UNL     1      -2.046  12.004  23.106  0.00  0.00    +0.000 C 
ATOM      4  O   UNL     1      -3.001  11.499  23.688  0.00  0.00    +0.000 OA
ATOM      5  C   UNL     1      -1.000  11.152  22.438  0.00  0.00    +0.000 C 
ATOM      6  C   UNL     1      -0.139  12.148  21.698  0.00  0.00    +0.000 C 
ATOM      7  C   UNL     1      -0.468  13.455  22.415  0.00  0.00    +0.000 C 
ATOM      8  O   UNL     1       0.300  14.412  22.461  0.00  0.00    +0.000 OA
BRANCH   2  13
ATOM      9  C   UNL     1      -4.578  17.866  25.141  0.00  0.00    +0.000 C 
ATOM     10  C   UNL     1      -3.843  16.675  24.601  0.00  0.00    +0.000 A 
ATOM     11  C   UNL     1      -4.089  16.213  23.307  0.00  0.00    +0.000 A 
ATOM     12  C   UNL     1      -3.391  15.113  22.794  0.00  0.00    +0.000 A 
ATOM     13  C   UNL     1      -2.438  14.425  23.557  0.00  0.00    +0.000 A 
ATOM     14  C   UNL     1      -2.219  14.880  24.869  0.00  0.00    +0.000 A 
ATOM     15  C   UNL     1      -2.900  16.000  25.379  0.00  0.00    +0.000 A 
ENDBRANCH   2  13
ENDBRANCH   1   6
BRANCH   1  16
ATOM     16  C   UNL     1       0.935  12.103  19.355  0.00  0.00    +0.000 C 
ATOM     17  S   UNL     1       2.157  13.226  19.168  0.00  0.00    +0.000 S 
BRANCH  16  18
ATOM     18  N   UNL     1       0.951  11.018  18.500  0.00  0.00    +0.000 N 
ATOM     19  H   UNL     1       0.913  11.239  17.511  0.00  0.00    +0.000 HD
BRANCH  18  20
ATOM     20  C   UNL     1       1.392   9.716  18.812  0.00  0.00    +0.000 A 
ATOM     21  C   UNL     1       1.167   9.164  20.061  0.00  0.00    +0.000 A 
ATOM     22  C   UNL     1       1.674   7.882  20.354  0.00  0.00    +0.000 A 
ATOM     23  C   UNL     1       2.370   7.098  19.409  0.00  0.00    +0.000 A 
ATOM     24  C   UNL     1       2.519   7.665  18.147  0.00  0.00    +0.000 A 
ATOM     25  C   UNL     1       2.019   8.932  17.863  0.00  0.00    +0.000 A 
BRANCH  23  26
ATOM     26  N   UNL     1       2.913   5.859  19.729  0.00  0.00    +0.000 N 
ATOM     27  C   UNL     1       2.030   4.764  20.118  0.00  0.00    +0.000 C 
ATOM     28  C   UNL     1       4.201   5.426  19.182  0.00  0.00    +0.000 C 
ENDBRANCH  23  26
ENDBRANCH  18  20
ENDBRANCH  16  18
ENDBRANCH   1  16
BRANCH   1  29
ATOM     29  C   UNL     1      -1.411  12.797  19.532  0.00  0.00    +0.000 C 
BRANCH  29  30
ATOM     30  C   UNL     1      -2.614  11.857  19.382  0.00  0.00    +0.000 C 
BRANCH  30  31
ATOM     31  C   UNL     1      -2.877  11.161  18.064  0.00  0.00    +0.000 A 
ATOM     32  C   UNL     1      -3.956  11.637  17.296  0.00  0.00    +0.000 A 
ATOM     33  C   UNL     1      -4.225  11.121  16.029  0.00  0.00    +0.000 A 
ATOM     34  C   UNL     1      -3.413  10.127  15.498  0.00  0.00    +0.000 A 
ATOM     35  C   UNL     1      -2.326   9.655  16.239  0.00  0.00    +0.000 A 
ATOM     36  C   UNL     1      -2.054  10.171  17.516  0.00  0.00    +0.000 A 
ENDBRANCH  30  31
ENDBRANCH  29  30
ENDBRANCH   1  29
TORSDOF 9
ENDMDL
MODEL 2
REMARK VINA RESULT:      -7.7      7.850     10.976
REMARK  Name = 
REMARK  12 active torsions:
REMARK  status: ('A' for Active; 'I' for Inactive)
REMARK    1  A    between atoms: C_1  and  C_2
REMARK    2  A    between atoms: C_5  and  N_6
REMARK    3  A    between atoms: C_10  and  N_11
REMARK    4  A    between atoms: N_11  and  C_12
REMARK    5  A    between atoms: N_11  and  C_20
REMARK    6  A    between atoms: C_12  and  C_13
REMARK    7  A    between atoms: C_13  and  C_14
REMARK    8  A    between atoms: C_20  and  N_22
REMARK    9  A    between atoms: N_22  and  C_23
REMARK   10  A    between atoms: C_26  and  N_27
REMARK   11  A    between atoms: N_27  and  C_28
REMARK   12  A    between atoms: N_27  and  C_29
REMARK                            x       y       z     vdW  Elec       q    Type
REMARK                         _______ _______ _______ _____ _____    ______ ____
ROOT
ATOM      1  N   UNL     1       6.055   6.876  17.041  0.00  0.00    +0.000 N 
ENDROOT
BRANCH   1   6
ATOM      2  N   UNL     1       3.132   5.927  18.440  0.00  0.00    +0.000 N 
ATOM      3  C   UNL     1       2.892   7.276  18.386  0.00  0.00    +0.000 C 
ATOM      4  O   UNL     1       2.142   7.953  19.082  0.00  0.00    +0.000 OA
ATOM      5  C   UNL     1       3.648   7.885  17.235  0.00  0.00    +0.000 C 
ATOM      6  C   UNL     1       4.574   6.779  16.785  0.00  0.00    +0.000 C 
ATOM      7  C   UNL     1       3.906   5.539  17.374  0.00  0.00    +0.000 C 
ATOM      8  O   UNL     1       4.040   4.412  16.904  0.00  0.00    +0.000 OA
BRANCH   2  13
ATOM      9  C   UNL     1       0.929   2.138  22.210  0.00  0.00    +0.000 C 
ATOM     10  C   UNL     1       1.481   3.133  21.233  0.00  0.00    +0.000 A 
ATOM     11  C   UNL     1       2.535   3.974  21.593  0.00  0.00    +0.000 A 
ATOM     12  C   UNL     1       3.064   4.892  20.678  0.00  0.00    +0.000 A 
ATOM     13  C   UNL     1       2.553   5.015  19.379  0.00  0.00    +0.000 A 
ATOM     14  C   UNL     1       1.473   4.183  19.035  0.00  0.00    +0.000 A 
ATOM     15  C   UNL     1       0.955   3.243  19.944  0.00  0.00    +0.000 A 
ENDBRANCH   2  13
ENDBRANCH   1   6
BRANCH   1  16
ATOM     16  C   UNL     1       6.973   5.836  16.796  0.00  0.00    +0.000 C 
ATOM     17  S   UNL     1       7.626   4.805  17.937  0.00  0.00    +0.000 S 
BRANCH  16  18
ATOM     18  N   UNL     1       7.490   5.756  15.517  0.00  0.00    +0.000 N 
ATOM     19  H   UNL     1       8.445   6.081  15.411  0.00  0.00    +0.000 HD
BRANCH  18  20
ATOM     20  C   UNL     1       7.005   4.948  14.469  0.00  0.00    +0.000 A 
ATOM     21  C   UNL     1       7.663   4.880  13.253  0.00  0.00    +0.000 A 
ATOM     22  C   UNL     1       7.113   4.107  12.211  0.00  0.00    +0.000 A 
ATOM     23  C   UNL     1       5.933   3.345  12.359  0.00  0.00    +0.000 A 
ATOM     24  C   UNL     1       5.340   3.393  13.617  0.00  0.00    +0.000 A 
ATOM     25  C   UNL     1       5.883   4.160  14.642  0.00  0.00    +0.000 A 
BRANCH  23  26
ATOM     26  N   UNL     1       5.374   2.632  11.306  0.00  0.00    +0.000 N 
ATOM     27  C   UNL     1       5.906   1.317  10.963  0.00  0.00    +0.000 C 
ATOM     28  C   UNL     1       3.984   2.844  10.894  0.00  0.00    +0.000 C 
ENDBRANCH  23  26
ENDBRANCH  18  20
ENDBRANCH  16  18
ENDBRANCH   1  16
BRANCH   1  29
ATOM     29  C   UNL     1       6.577   7.986  17.908  0.00  0.00    +0.000 C 
BRANCH  29  30
ATOM     30  C   UNL     1       7.945   8.568  17.531  0.00  0.00    +0.000 C 
BRANCH  30  31
ATOM     31  C   UNL     1       8.434   9.846  18.177  0.00  0.00    +0.000 A 
ATOM     32  C   UNL     1       9.087   9.723  19.419  0.00  0.00    +0.000 A 
ATOM     33  C   UNL     1       9.650  10.831  20.052  0.00  0.00    +0.000 A 
ATOM     34  C   UNL     1       9.584  12.081  19.452  0.00  0.00    +0.000 A 
ATOM     35  C   UNL     1       8.956  12.218  18.211  0.00  0.00    +0.000 A 
ATOM     36  C   UNL     1       8.386  11.106  17.572  0.00  0.00    +0.000 A 
ENDBRANCH  30  31
ENDBRANCH  29  30
ENDBRANCH   1  29
TORSDOF 9
ENDMDL
MODEL 3
REMARK VINA RESULT:      -7.4      7.924     10.946
REMARK  Name = 
REMARK  12 active torsions:
REMARK  status: ('A' for Active; 'I' for Inactive)
REMARK    1  A    between atoms: C_1  and  C_2
REMARK    2  A    between atoms: C_5  and  N_6
REMARK    3  A    between atoms: C_10  and  N_11
REMARK    4  A    between atoms: N_11  and  C_12
REMARK    5  A    between atoms: N_11  and  C_20
REMARK    6  A    between atoms: C_12  and  C_13
REMARK    7  A    between atoms: C_13  and  C_14
REMARK    8  A    between atoms: C_20  and  N_22
REMARK    9  A    between atoms: N_22  and  C_23
REMARK   10  A    between atoms: C_26  and  N_27
REMARK   11  A    between atoms: N_27  and  C_28
REMARK   12  A    between atoms: N_27  and  C_29
REMARK                            x       y       z     vdW  Elec       q    Type
REMARK                         _______ _______ _______ _____ _____    ______ ____
ROOT
ATOM      1  N   UNL     1       6.030   6.836  17.044  0.00  0.00    +0.000 N 
ENDROOT
BRANCH   1   6
ATOM      2  N   UNL     1       3.191   5.760  18.521  0.00  0.00    +0.000 N 
ATOM      3  C   UNL     1       2.915   7.104  18.526  0.00  0.00    +0.000 C 
ATOM      4  O   UNL     1       2.176   7.735  19.275  0.00  0.00    +0.000 OA
ATOM      5  C   UNL     1       3.608   7.772  17.369  0.00  0.00    +0.000 C 
ATOM      6  C   UNL     1       4.543   6.709  16.843  0.00  0.00    +0.000 C 
ATOM      7  C   UNL     1       3.931   5.431  17.412  0.00  0.00    +0.000 C 
ATOM      8  O   UNL     1       4.074   4.326  16.896  0.00  0.00    +0.000 OA
BRANCH   2  13
ATOM      9  C   UNL     1       1.048   2.013  22.367  0.00  0.00    +0.000 C 
ATOM     10  C   UNL     1       1.613   2.968  21.357  0.00  0.00    +0.000 A 
ATOM     11  C   UNL     1       0.770   3.684  20.506  0.00  0.00    +0.000 A 
ATOM     12  C   UNL     1       1.293   4.590  19.575  0.00  0.00    +0.000 A 
ATOM     13  C   UNL     1       2.673   4.799  19.448  0.00  0.00    +0.000 A 
ATOM     14  C   UNL     1       3.515   4.052  20.289  0.00  0.00    +0.000 A 
ATOM     15  C   UNL     1       2.991   3.160  21.242  0.00  0.00    +0.000 A 
ENDBRANCH   2  13
ENDBRANCH   1   6
BRANCH   1  16
ATOM     16  C   UNL     1       6.955   5.800  16.806  0.00  0.00    +0.000 C 
ATOM     17  S   UNL     1       7.632   4.796  17.957  0.00  0.00    +0.000 S 
BRANCH  16  18
ATOM     18  N   UNL     1       7.458   5.703  15.523  0.00  0.00    +0.000 N 
ATOM     19  H   UNL     1       8.435   5.952  15.415  0.00  0.00    +0.000 HD
BRANCH  18  20
ATOM     20  C   UNL     1       6.903   4.956  14.464  0.00  0.00    +0.000 A 
ATOM     21  C   UNL     1       5.677   4.327  14.596  0.00  0.00    +0.000 A 
ATOM     22  C   UNL     1       5.184   3.541  13.535  0.00  0.00    +0.000 A 
ATOM     23  C   UNL     1       5.862   3.399  12.305  0.00  0.00    +0.000 A 
ATOM     24  C   UNL     1       7.059   4.099  12.192  0.00  0.00    +0.000 A 
ATOM     25  C   UNL     1       7.545   4.871  13.243  0.00  0.00    +0.000 A 
BRANCH  23  26
ATOM     26  N   UNL     1       5.390   2.576  11.289  0.00  0.00    +0.000 N 
ATOM     27  C   UNL     1       5.943   1.234  11.133  0.00  0.00    +0.000 C 
ATOM     28  C   UNL     1       4.041   2.737  10.742  0.00  0.00    +0.000 C 
ENDBRANCH  23  26
ENDBRANCH  18  20
ENDBRANCH  16  18
ENDBRANCH   1  16
BRANCH   1  29
ATOM     29  C   UNL     1       6.564   7.985  17.851  0.00  0.00    +0.000 C 
BRANCH  29  30
ATOM     30  C   UNL     1       8.045   8.337  17.652  0.00  0.00    +0.000 C 
BRANCH  30  31
ATOM     31  C   UNL     1       8.596   9.641  18.185  0.00  0.00    +0.000 A 
ATOM     32  C   UNL     1       8.291  10.807  17.457  0.00  0.00    +0.000 A 
ATOM     33  C   UNL     1       8.679  12.066  17.914  0.00  0.00    +0.000 A 
ATOM     34  C   UNL     1       9.367  12.187  19.114  0.00  0.00    +0.000 A 
ATOM     35  C   UNL     1       9.662  11.042  19.859  0.00  0.00    +0.000 A 
ATOM     36  C   UNL     1       9.275   9.773  19.400  0.00  0.00    +0.000 A 
ENDBRANCH  30  31
ENDBRANCH  29  30
ENDBRANCH   1  29
TORSDOF 9
ENDMDL
MODEL 4
REMARK VINA RESULT:      -7.4      1.898      2.912
REMARK  Name = 
REMARK  12 active torsions:
REMARK  status: ('A' for Active; 'I' for Inactive)
REMARK    1  A    between atoms: C_1  and  C_2
REMARK    2  A    between atoms: C_5  and  N_6
REMARK    3  A    between atoms: C_10  and  N_11
REMARK    4  A    between atoms: N_11  and  C_12
REMARK    5  A    between atoms: N_11  and  C_20
REMARK    6  A    between atoms: C_12  and  C_13
REMARK    7  A    between atoms: C_13  and  C_14
REMARK    8  A    between atoms: C_20  and  N_22
REMARK    9  A    between atoms: N_22  and  C_23
REMARK   10  A    between atoms: C_26  and  N_27
REMARK   11  A    between atoms: N_27  and  C_28
REMARK   12  A    between atoms: N_27  and  C_29
REMARK                            x       y       z     vdW  Elec       q    Type
REMARK                         _______ _______ _______ _____ _____    ______ ____
ROOT
ATOM      1  N   UNL     1       0.736   9.877  19.963  0.00  0.00    +0.000 N 
ENDROOT
BRANCH   1   6
ATOM      2  N   UNL     1      -0.477  12.272  22.011  0.00  0.00    +0.000 N 
ATOM      3  C   UNL     1      -1.016  11.182  22.647  0.00  0.00    +0.000 C 
ATOM      4  O   UNL     1      -2.013  11.122  23.359  0.00  0.00    +0.000 OA
ATOM      5  C   UNL     1      -0.141   9.977  22.427  0.00  0.00    +0.000 C 
ATOM      6  C   UNL     1       0.833  10.425  21.363  0.00  0.00    +0.000 C 
ATOM      7  C   UNL     1       0.737  11.946  21.457  0.00  0.00    +0.000 C 
ATOM      8  O   UNL     1       1.645  12.702  21.121  0.00  0.00    +0.000 OA
BRANCH   2  13
ATOM      9  C   UNL     1      -2.523  17.678  21.983  0.00  0.00    +0.000 C 
ATOM     10  C   UNL     1      -2.006  16.270  22.008  0.00  0.00    +0.000 A 
ATOM     11  C   UNL     1      -2.277  15.395  20.955  0.00  0.00    +0.000 A 
ATOM     12  C   UNL     1      -1.781  14.085  20.967  0.00  0.00    +0.000 A 
ATOM     13  C   UNL     1      -1.013  13.599  22.033  0.00  0.00    +0.000 A 
ATOM     14  C   UNL     1      -0.770  14.479  23.101  0.00  0.00    +0.000 A 
ATOM     15  C   UNL     1      -1.246  15.802  23.082  0.00  0.00    +0.000 A 
ENDBRANCH   2  13
ENDBRANCH   1   6
BRANCH   1  16
ATOM     16  C   UNL     1       1.603   8.904  19.429  0.00  0.00    +0.000 C 
ATOM     17  S   UNL     1       1.958   8.677  17.813  0.00  0.00    +0.000 S 
BRANCH  16  18
ATOM     18  N   UNL     1       2.090   7.958  20.311  0.00  0.00    +0.000 N 
ATOM     19  H   UNL     1       2.095   8.232  21.288  0.00  0.00    +0.000 HD
BRANCH  18  20
ATOM     20  C   UNL     1       2.208   6.574  20.069  0.00  0.00    +0.000 A 
ATOM     21  C   UNL     1       3.310   6.054  19.413  0.00  0.00    +0.000 A 
ATOM     22  C   UNL     1       3.364   4.673  19.138  0.00  0.00    +0.000 A 
ATOM     23  C   UNL     1       2.360   3.769  19.547  0.00  0.00    +0.000 A 
ATOM     24  C   UNL     1       1.302   4.325  20.260  0.00  0.00    +0.000 A 
ATOM     25  C   UNL     1       1.251   5.690  20.526  0.00  0.00    +0.000 A 
BRANCH  23  26
ATOM     26  N   UNL     1       2.400   2.418  19.221  0.00  0.00    +0.000 N 
ATOM     27  C   UNL     1       1.215   1.777  18.660  0.00  0.00    +0.000 C 
ATOM     28  C   UNL     1       3.661   1.753  18.881  0.00  0.00    +0.000 C 
ENDBRANCH  23  26
ENDBRANCH  18  20
ENDBRANCH  16  18
ENDBRANCH   1  16
BRANCH   1  29
ATOM     29  C   UNL     1      -0.092  10.610  18.946  0.00  0.00    +0.000 C 
BRANCH  29  30
ATOM     30  C   UNL     1      -1.602  10.337  18.962  0.00  0.00    +0.000 C 
BRANCH  30  31
ATOM     31  C   UNL     1      -2.435  10.586  17.724  0.00  0.00    +0.000 A 
ATOM     32  C   UNL     1      -2.085   9.865  16.566  0.00  0.00    +0.000 A 
ATOM     33  C   UNL     1      -2.844   9.959  15.400  0.00  0.00    +0.000 A 
ATOM     34  C   UNL     1      -3.975  10.764  15.370  0.00  0.00    +0.000 A 
ATOM     35  C   UNL     1      -4.347  11.473  16.516  0.00  0.00    +0.000 A 
ATOM     36  C   UNL     1      -3.584  11.382  17.691  0.00  0.00    +0.000 A 
ENDBRANCH  30  31
ENDBRANCH  29  30
ENDBRANCH   1  29
TORSDOF 9
ENDMDL
MODEL 5
REMARK VINA RESULT:      -7.4      1.870      2.911
REMARK  Name = 
REMARK  12 active torsions:
REMARK  status: ('A' for Active; 'I' for Inactive)
REMARK    1  A    between atoms: C_1  and  C_2
REMARK    2  A    between atoms: C_5  and  N_6
REMARK    3  A    between atoms: C_10  and  N_11
REMARK    4  A    between atoms: N_11  and  C_12
REMARK    5  A    between atoms: N_11  and  C_20
REMARK    6  A    between atoms: C_12  and  C_13
REMARK    7  A    between atoms: C_13  and  C_14
REMARK    8  A    between atoms: C_20  and  N_22
REMARK    9  A    between atoms: N_22  and  C_23
REMARK   10  A    between atoms: C_26  and  N_27
REMARK   11  A    between atoms: N_27  and  C_28
REMARK   12  A    between atoms: N_27  and  C_29
REMARK                            x       y       z     vdW  Elec       q    Type
REMARK                         _______ _______ _______ _____ _____    ______ ____
ROOT
ATOM      1  N   UNL     1       0.794   9.867  19.950  0.00  0.00    +0.000 N 
ENDROOT
BRANCH   1   6
ATOM      2  N   UNL     1      -0.453  12.227  22.018  0.00  0.00    +0.000 N 
ATOM      3  C   UNL     1      -0.953  11.122  22.660  0.00  0.00    +0.000 C 
ATOM      4  O   UNL     1      -1.938  11.035  23.386  0.00  0.00    +0.000 OA
ATOM      5  C   UNL     1      -0.050   9.941  22.426  0.00  0.00    +0.000 C 
ATOM      6  C   UNL     1       0.896  10.416  21.348  0.00  0.00    +0.000 C 
ATOM      7  C   UNL     1       0.762  11.934  21.447  0.00  0.00    +0.000 C 
ATOM      8  O   UNL     1       1.644  12.714  21.099  0.00  0.00    +0.000 OA
BRANCH   2  13
ATOM      9  C   UNL     1      -2.883  17.467  22.255  0.00  0.00    +0.000 C 
ATOM     10  C   UNL     1      -2.238  16.114  22.177  0.00  0.00    +0.000 A 
ATOM     11  C   UNL     1      -1.454  15.639  23.229  0.00  0.00    +0.000 A 
ATOM     12  C   UNL     1      -0.865  14.369  23.167  0.00  0.00    +0.000 A 
ATOM     13  C   UNL     1      -1.024  13.539  22.049  0.00  0.00    +0.000 A 
ATOM     14  C   UNL     1      -1.792  14.039  20.983  0.00  0.00    +0.000 A 
ATOM     15  C   UNL     1      -2.404  15.303  21.053  0.00  0.00    +0.000 A 
ENDBRANCH   2  13
ENDBRANCH   1   6
BRANCH   1  16
ATOM     16  C   UNL     1       1.646   8.878  19.420  0.00  0.00    +0.000 C 
ATOM     17  S   UNL     1       2.008   8.647  17.806  0.00  0.00    +0.000 S 
BRANCH  16  18
ATOM     18  N   UNL     1       2.108   7.922  20.304  0.00  0.00    +0.000 N 
ATOM     19  H   UNL     1       2.092   8.187  21.283  0.00  0.00    +0.000 HD
BRANCH  18  20
ATOM     20  C   UNL     1       2.225   6.540  20.052  0.00  0.00    +0.000 A 
ATOM     21  C   UNL     1       3.334   6.021  19.406  0.00  0.00    +0.000 A 
ATOM     22  C   UNL     1       3.387   4.642  19.120  0.00  0.00    +0.000 A 
ATOM     23  C   UNL     1       2.374   3.738  19.508  0.00  0.00    +0.000 A 
ATOM     24  C   UNL     1       1.309   4.292  20.210  0.00  0.00    +0.000 A 
ATOM     25  C   UNL     1       1.258   5.655  20.488  0.00  0.00    +0.000 A 
BRANCH  23  26
ATOM     26  N   UNL     1       2.414   2.391  19.170  0.00  0.00    +0.000 N 
ATOM     27  C   UNL     1       1.167   1.653  19.000  0.00  0.00    +0.000 C 
ATOM     28  C   UNL     1       3.553   1.819  18.447  0.00  0.00    +0.000 C 
ENDBRANCH  23  26
ENDBRANCH  18  20
ENDBRANCH  16  18
ENDBRANCH   1  16
BRANCH   1  29
ATOM     29  C   UNL     1      -0.018  10.612  18.929  0.00  0.00    +0.000 C 
BRANCH  29  30
ATOM     30  C   UNL     1      -1.544  10.487  19.038  0.00  0.00    +0.000 C 
BRANCH  30  31
ATOM     31  C   UNL     1      -2.401  10.500  17.791  0.00  0.00    +0.000 A 
ATOM     32  C   UNL     1      -3.520  11.355  17.797  0.00  0.00    +0.000 A 
ATOM     33  C   UNL     1      -4.321  11.504  16.665  0.00  0.00    +0.000 A 
ATOM     34  C   UNL     1      -4.012  10.814  15.501  0.00  0.00    +0.000 A 
ATOM     35  C   UNL     1      -2.894   9.976  15.472  0.00  0.00    +0.000 A 
ATOM     36  C   UNL     1      -2.087   9.821  16.610  0.00  0.00    +0.000 A 
ENDBRANCH  30  31
ENDBRANCH  29  30
ENDBRANCH   1  29
TORSDOF 9
ENDMDL
MODEL 6
REMARK VINA RESULT:      -7.2      2.405      8.692
REMARK  Name = 
REMARK  12 active torsions:
REMARK  status: ('A' for Active; 'I' for Inactive)
REMARK    1  A    between atoms: C_1  and  C_2
REMARK    2  A    between atoms: C_5  and  N_6
REMARK    3  A    between atoms: C_10  and  N_11
REMARK    4  A    between atoms: N_11  and  C_12
REMARK    5  A    between atoms: N_11  and  C_20
REMARK    6  A    between atoms: C_12  and  C_13
REMARK    7  A    between atoms: C_13  and  C_14
REMARK    8  A    between atoms: C_20  and  N_22
REMARK    9  A    between atoms: N_22  and  C_23
REMARK   10  A    between atoms: C_26  and  N_27
REMARK   11  A    between atoms: N_27  and  C_28
REMARK   12  A    between atoms: N_27  and  C_29
REMARK                            x       y       z     vdW  Elec       q    Type
REMARK                         _______ _______ _______ _____ _____    ______ ____
ROOT
ATOM      1  N   UNL     1      -0.219  13.801  19.976  0.00  0.00    +0.000 N 
ENDROOT
BRANCH   1   6
ATOM      2  N   UNL     1       0.409  10.737  18.705  0.00  0.00    +0.000 N 
ATOM      3  C   UNL     1      -0.905  10.839  18.324  0.00  0.00    +0.000 C 
ATOM      4  O   UNL     1      -1.713   9.944  18.098  0.00  0.00    +0.000 OA
ATOM      5  C   UNL     1      -1.267  12.286  18.117  0.00  0.00    +0.000 C 
ATOM      6  C   UNL     1      -0.086  13.039  18.683  0.00  0.00    +0.000 C 
ATOM      7  C   UNL     1       1.007  11.973  18.684  0.00  0.00    +0.000 C 
ATOM      8  O   UNL     1       2.206  12.235  18.627  0.00  0.00    +0.000 OA
BRANCH   2  13
ATOM      9  C   UNL     1       3.119   5.714  19.621  0.00  0.00    +0.000 C 
ATOM     10  C   UNL     1       2.432   7.028  19.396  0.00  0.00    +0.000 A 
ATOM     11  C   UNL     1       2.436   7.626  18.135  0.00  0.00    +0.000 A 
ATOM     12  C   UNL     1       1.780   8.844  17.918  0.00  0.00    +0.000 A 
ATOM     13  C   UNL     1       1.112   9.515  18.951  0.00  0.00    +0.000 A 
ATOM     14  C   UNL     1       1.138   8.918  20.224  0.00  0.00    +0.000 A 
ATOM     15  C   UNL     1       1.776   7.683  20.440  0.00  0.00    +0.000 A 
ENDBRANCH   2  13
ENDBRANCH   1   6
BRANCH   1  16
ATOM     16  C   UNL     1      -0.245  15.207  20.070  0.00  0.00    +0.000 C 
ATOM     17  S   UNL     1       1.013  16.187  20.567  0.00  0.00    +0.000 S 
BRANCH  16  18
ATOM     18  N   UNL     1      -1.468  15.817  19.873  0.00  0.00    +0.000 N 
ATOM     19  H   UNL     1      -1.824  15.790  18.924  0.00  0.00    +0.000 HD
BRANCH  18  20
ATOM     20  C   UNL     1      -2.421  16.117  20.868  0.00  0.00    +0.000 A 
ATOM     21  C   UNL     1      -2.089  16.082  22.212  0.00  0.00    +0.000 A 
ATOM     22  C   UNL     1      -3.084  16.329  23.178  0.00  0.00    +0.000 A 
ATOM     23  C   UNL     1      -4.414  16.666  22.842  0.00  0.00    +0.000 A 
ATOM     24  C   UNL     1      -4.688  16.753  21.480  0.00  0.00    +0.000 A 
ATOM     25  C   UNL     1      -3.703  16.503  20.530  0.00  0.00    +0.000 A 
BRANCH  23  26
ATOM     26  N   UNL     1      -5.397  16.853  23.806  0.00  0.00    +0.000 N 
ATOM     27  C   UNL     1      -6.624  16.066  23.746  0.00  0.00    +0.000 C 
ATOM     28  C   UNL     1      -5.069  17.352  25.144  0.00  0.00    +0.000 C 
ENDBRANCH  23  26
ENDBRANCH  18  20
ENDBRANCH  16  18
ENDBRANCH   1  16
BRANCH   1  29
ATOM     29  C   UNL     1       0.023  13.087  21.275  0.00  0.00    +0.000 C 
BRANCH  29  30
ATOM     30  C   UNL     1      -1.009  12.025  21.678  0.00  0.00    +0.000 C 
BRANCH  30  31
ATOM     31  C   UNL     1      -2.405  12.439  22.090  0.00  0.00    +0.000 A 
ATOM     32  C   UNL     1      -3.350  12.609  21.059  0.00  0.00    +0.000 A 
ATOM     33  C   UNL     1      -4.683  12.903  21.343  0.00  0.00    +0.000 A 
ATOM     34  C   UNL     1      -5.104  13.020  22.661  0.00  0.00    +0.000 A 
ATOM     35  C   UNL     1      -4.184  12.835  23.697  0.00  0.00    +0.000 A 
ATOM     36  C   UNL     1      -2.840  12.542  23.415  0.00  0.00    +0.000 A 
ENDBRANCH  30  31
ENDBRANCH  29  30
ENDBRANCH   1  29
TORSDOF 9
ENDMDL
MODEL 7
REMARK VINA RESULT:      -7.1      3.391      5.040
REMARK  Name = 
REMARK  12 active torsions:
REMARK  status: ('A' for Active; 'I' for Inactive)
REMARK    1  A    between atoms: C_1  and  C_2
REMARK    2  A    between atoms: C_5  and  N_6
REMARK    3  A    between atoms: C_10  and  N_11
REMARK    4  A    between atoms: N_11  and  C_12
REMARK    5  A    between atoms: N_11  and  C_20
REMARK    6  A    between atoms: C_12  and  C_13
REMARK    7  A    between atoms: C_13  and  C_14
REMARK    8  A    between atoms: C_20  and  N_22
REMARK    9  A    between atoms: N_22  and  C_23
REMARK   10  A    between atoms: C_26  and  N_27
REMARK   11  A    between atoms: N_27  and  C_28
REMARK   12  A    between atoms: N_27  and  C_29
REMARK                            x       y       z     vdW  Elec       q    Type
REMARK                         _______ _______ _______ _____ _____    ______ ____
ROOT
ATOM      1  N   UNL     1       0.071  10.757  19.797  0.00  0.00    +0.000 N 
ENDROOT
BRANCH   1   6
ATOM      2  N   UNL     1       1.287  13.903  19.633  0.00  0.00    +0.000 N 
ATOM      3  C   UNL     1       0.036  14.152  19.128  0.00  0.00    +0.000 C 
ATOM      4  O   UNL     1      -0.327  15.056  18.381  0.00  0.00    +0.000 OA
ATOM      5  C   UNL     1      -0.950  13.165  19.693  0.00  0.00    +0.000 C 
ATOM      6  C   UNL     1      -0.081  12.138  20.380  0.00  0.00    +0.000 C 
ATOM      7  C   UNL     1       1.230  12.897  20.567  0.00  0.00    +0.000 C 
ATOM      8  O   UNL     1       2.042  12.637  21.450  0.00  0.00    +0.000 OA
BRANCH   2  13
ATOM      9  C   UNL     1       6.144  16.854  18.575  0.00  0.00    +0.000 C 
ATOM     10  C   UNL     1       4.871  16.106  18.840  0.00  0.00    +0.000 A 
ATOM     11  C   UNL     1       4.558  14.955  18.115  0.00  0.00    +0.000 A 
ATOM     12  C   UNL     1       3.379  14.244  18.373  0.00  0.00    +0.000 A 
ATOM     13  C   UNL     1       2.466  14.664  19.350  0.00  0.00    +0.000 A 
ATOM     14  C   UNL     1       2.777  15.840  20.055  0.00  0.00    +0.000 A 
ATOM     15  C   UNL     1       3.971  16.542  19.815  0.00  0.00    +0.000 A 
ENDBRANCH   2  13
ENDBRANCH   1   6
BRANCH   1  16
ATOM     16  C   UNL     1       0.394   9.610  20.548  0.00  0.00    +0.000 C 
ATOM     17  S   UNL     1      -0.504   8.964  21.800  0.00  0.00    +0.000 S 
BRANCH  16  18
ATOM     18  N   UNL     1       1.638   9.054  20.323  0.00  0.00    +0.000 N 
ATOM     19  H   UNL     1       2.419   9.541  20.749  0.00  0.00    +0.000 HD
BRANCH  18  20
ATOM     20  C   UNL     1       1.899   7.728  19.919  0.00  0.00    +0.000 A 
ATOM     21  C   UNL     1       2.415   7.451  18.665  0.00  0.00    +0.000 A 
ATOM     22  C   UNL     1       2.607   6.110  18.276  0.00  0.00    +0.000 A 
ATOM     23  C   UNL     1       2.343   5.017  19.131  0.00  0.00    +0.000 A 
ATOM     24  C   UNL     1       1.886   5.345  20.404  0.00  0.00    +0.000 A 
ATOM     25  C   UNL     1       1.695   6.670  20.783  0.00  0.00    +0.000 A 
BRANCH  23  26
ATOM     26  N   UNL     1       2.484   3.699  18.715  0.00  0.00    +0.000 N 
ATOM     27  C   UNL     1       2.133   2.614  19.625  0.00  0.00    +0.000 C 
ATOM     28  C   UNL     1       2.423   3.337  17.296  0.00  0.00    +0.000 C 
ENDBRANCH  23  26
ENDBRANCH  18  20
ENDBRANCH  16  18
ENDBRANCH   1  16
BRANCH   1  29
ATOM     29  C   UNL     1       0.226  10.604  18.311  0.00  0.00    +0.000 C 
BRANCH  29  30
ATOM     30  C   UNL     1      -0.758   9.657  17.611  0.00  0.00    +0.000 C 
BRANCH  30  31
ATOM     31  C   UNL     1      -2.118  10.158  17.176  0.00  0.00    +0.000 A 
ATOM     32  C   UNL     1      -2.971  10.643  18.186  0.00  0.00    +0.000 A 
ATOM     33  C   UNL     1      -4.209  11.207  17.876  0.00  0.00    +0.000 A 
ATOM     34  C   UNL     1      -4.613  11.310  16.552  0.00  0.00    +0.000 A 
ATOM     35  C   UNL     1      -3.771  10.851  15.536  0.00  0.00    +0.000 A 
ATOM     36  C   UNL     1      -2.526  10.281  15.844  0.00  0.00    +0.000 A 
ENDBRANCH  30  31
ENDBRANCH  29  30
ENDBRANCH   1  29
TORSDOF 9
ENDMDL
MODEL 8
REMARK VINA RESULT:      -7.0      1.938      2.809
REMARK  Name = 
REMARK  12 active torsions:
REMARK  status: ('A' for Active; 'I' for Inactive)
REMARK    1  A    between atoms: C_1  and  C_2
REMARK    2  A    between atoms: C_5  and  N_6
REMARK    3  A    between atoms: C_10  and  N_11
REMARK    4  A    between atoms: N_11  and  C_12
REMARK    5  A    between atoms: N_11  and  C_20
REMARK    6  A    between atoms: C_12  and  C_13
REMARK    7  A    between atoms: C_13  and  C_14
REMARK    8  A    between atoms: C_20  and  N_22
REMARK    9  A    between atoms: N_22  and  C_23
REMARK   10  A    between atoms: C_26  and  N_27
REMARK   11  A    between atoms: N_27  and  C_28
REMARK   12  A    between atoms: N_27  and  C_29
REMARK                            x       y       z     vdW  Elec       q    Type
REMARK                         _______ _______ _______ _____ _____    ______ ____
ROOT
ATOM      1  N   UNL     1       0.130   9.612  20.537  0.00  0.00    +0.000 N 
ENDROOT
BRANCH   1   6
ATOM      2  N   UNL     1      -0.797  12.421  22.164  0.00  0.00    +0.000 N 
ATOM      3  C   UNL     1      -1.505  11.519  22.917  0.00  0.00    +0.000 C 
ATOM      4  O   UNL     1      -2.523  11.699  23.578  0.00  0.00    +0.000 OA
ATOM      5  C   UNL     1      -0.802  10.188  22.914  0.00  0.00    +0.000 C 
ATOM      6  C   UNL     1       0.258  10.340  21.849  0.00  0.00    +0.000 C 
ATOM      7  C   UNL     1       0.376  11.857  21.725  0.00  0.00    +0.000 C 
ATOM      8  O   UNL     1       1.391  12.427  21.334  0.00  0.00    +0.000 OA
BRANCH   2  13
ATOM      9  C   UNL     1      -2.314  17.961  21.508  0.00  0.00    +0.000 C 
ATOM     10  C   UNL     1      -1.906  16.526  21.660  0.00  0.00    +0.000 A 
ATOM     11  C   UNL     1      -1.174  16.109  22.773  0.00  0.00    +0.000 A 
ATOM     12  C   UNL     1      -0.807  14.766  22.927  0.00  0.00    +0.000 A 
ATOM     13  C   UNL     1      -1.142  13.797  21.972  0.00  0.00    +0.000 A 
ATOM     14  C   UNL     1      -1.854  14.233  20.841  0.00  0.00    +0.000 A 
ATOM     15  C   UNL     1      -2.245  15.576  20.695  0.00  0.00    +0.000 A 
ENDBRANCH   2  13
ENDBRANCH   1   6
BRANCH   1  16
ATOM     16  C   UNL     1       1.221   9.147  19.777  0.00  0.00    +0.000 C 
ATOM     17  S   UNL     1       1.534   9.508  18.176  0.00  0.00    +0.000 S 
BRANCH  16  18
ATOM     18  N   UNL     1       2.024   8.190  20.367  0.00  0.00    +0.000 N 
ATOM     19  H   UNL     1       2.333   8.399  21.310  0.00  0.00    +0.000 HD
BRANCH  18  20
ATOM     20  C   UNL     1       2.136   6.840  19.978  0.00  0.00    +0.000 A 
ATOM     21  C   UNL     1       1.369   5.856  20.576  0.00  0.00    +0.000 A 
ATOM     22  C   UNL     1       1.553   4.510  20.201  0.00  0.00    +0.000 A 
ATOM     23  C   UNL     1       2.459   4.111  19.194  0.00  0.00    +0.000 A 
ATOM     24  C   UNL     1       3.163   5.139  18.574  0.00  0.00    +0.000 A 
ATOM     25  C   UNL     1       2.981   6.466  18.950  0.00  0.00    +0.000 A 
BRANCH  23  26
ATOM     26  N   UNL     1       2.669   2.775  18.873  0.00  0.00    +0.000 N 
ATOM     27  C   UNL     1       1.605   1.802  19.103  0.00  0.00    +0.000 C 
ATOM     28  C   UNL     1       3.630   2.380  17.840  0.00  0.00    +0.000 C 
ENDBRANCH  23  26
ENDBRANCH  18  20
ENDBRANCH  16  18
ENDBRANCH   1  16
BRANCH   1  29
ATOM     29  C   UNL     1      -1.179   9.655  19.801  0.00  0.00    +0.000 C 
BRANCH  29  30
ATOM     30  C   UNL     1      -1.491  10.942  19.026  0.00  0.00    +0.000 C 
BRANCH  30  31
ATOM     31  C   UNL     1      -2.391  10.900  17.811  0.00  0.00    +0.000 A 
ATOM     32  C   UNL     1      -1.999  10.053  16.756  0.00  0.00    +0.000 A 
ATOM     33  C   UNL     1      -2.805   9.878  15.632  0.00  0.00    +0.000 A 
ATOM     34  C   UNL     1      -4.025  10.535  15.544  0.00  0.00    +0.000 A 
ATOM     35  C   UNL     1      -4.439  11.365  16.590  0.00  0.00    +0.000 A 
ATOM     36  C   UNL     1      -3.629  11.545  17.722  0.00  0.00    +0.000 A 
ENDBRANCH  30  31
ENDBRANCH  29  30
ENDBRANCH   1  29
TORSDOF 9
ENDMDL
MODEL 9
REMARK VINA RESULT:      -6.9      3.925      7.324
REMARK  Name = 
REMARK  12 active torsions:
REMARK  status: ('A' for Active; 'I' for Inactive)
REMARK    1  A    between atoms: C_1  and  C_2
REMARK    2  A    between atoms: C_5  and  N_6
REMARK    3  A    between atoms: C_10  and  N_11
REMARK    4  A    between atoms: N_11  and  C_12
REMARK    5  A    between atoms: N_11  and  C_20
REMARK    6  A    between atoms: C_12  and  C_13
REMARK    7  A    between atoms: C_13  and  C_14
REMARK    8  A    between atoms: C_20  and  N_22
REMARK    9  A    between atoms: N_22  and  C_23
REMARK   10  A    between atoms: C_26  and  N_27
REMARK   11  A    between atoms: N_27  and  C_28
REMARK   12  A    between atoms: N_27  and  C_29
REMARK                            x       y       z     vdW  Elec       q    Type
REMARK                         _______ _______ _______ _____ _____    ______ ____
ROOT
ATOM      1  N   UNL     1       2.097   7.046  19.938  0.00  0.00    +0.000 N 
ENDROOT
BRANCH   1   6
ATOM      2  N   UNL     1       0.017   9.693  19.682  0.00  0.00    +0.000 N 
ATOM      3  C   UNL     1       0.115   9.656  21.050  0.00  0.00    +0.000 C 
ATOM      4  O   UNL     1      -0.679  10.067  21.890  0.00  0.00    +0.000 OA
ATOM      5  C   UNL     1       1.447   9.080  21.452  0.00  0.00    +0.000 C 
ATOM      6  C   UNL     1       2.009   8.533  20.161  0.00  0.00    +0.000 C 
ATOM      7  C   UNL     1       1.197   9.287  19.110  0.00  0.00    +0.000 C 
ATOM      8  O   UNL     1       1.601   9.502  17.970  0.00  0.00    +0.000 OA
BRANCH   2  13
ATOM      9  C   UNL     1      -4.568  11.731  16.810  0.00  0.00    +0.000 C 
ATOM     10  C   UNL     1      -3.364  11.209  17.538  0.00  0.00    +0.000 A 
ATOM     11  C   UNL     1      -2.892  11.850  18.684  0.00  0.00    +0.000 A 
ATOM     12  C   UNL     1      -1.780  11.354  19.376  0.00  0.00    +0.000 A 
ATOM     13  C   UNL     1      -1.092  10.214  18.941  0.00  0.00    +0.000 A 
ATOM     14  C   UNL     1      -1.558   9.592  17.769  0.00  0.00    +0.000 A 
ATOM     15  C   UNL     1      -2.689  10.073  17.086  0.00  0.00    +0.000 A 
ENDBRANCH   2  13
ENDBRANCH   1   6
BRANCH   1  16
ATOM     16  C   UNL     1       2.547   6.447  18.745  0.00  0.00    +0.000 C 
ATOM     17  S   UNL     1       1.589   5.752  17.567  0.00  0.00    +0.000 S 
BRANCH  16  18
ATOM     18  N   UNL     1       3.913   6.290  18.609  0.00  0.00    +0.000 N 
ATOM     19  H   UNL     1       4.436   6.229  19.476  0.00  0.00    +0.000 HD
BRANCH  18  20
ATOM     20  C   UNL     1       4.589   5.831  17.460  0.00  0.00    +0.000 A 
ATOM     21  C   UNL     1       4.975   6.706  16.459  0.00  0.00    +0.000 A 
ATOM     22  C   UNL     1       5.596   6.200  15.299  0.00  0.00    +0.000 A 
ATOM     23  C   UNL     1       5.896   4.832  15.124  0.00  0.00    +0.000 A 
ATOM     24  C   UNL     1       5.549   3.998  16.182  0.00  0.00    +0.000 A 
ATOM     25  C   UNL     1       4.933   4.500  17.323  0.00  0.00    +0.000 A 
BRANCH  23  26
ATOM     26  N   UNL     1       6.459   4.341  13.951  0.00  0.00    +0.000 N 
ATOM     27  C   UNL     1       5.651   3.527  13.050  0.00  0.00    +0.000 C 
ATOM     28  C   UNL     1       7.583   5.021  13.302  0.00  0.00    +0.000 C 
ENDBRANCH  23  26
ENDBRANCH  18  20
ENDBRANCH  16  18
ENDBRANCH   1  16
BRANCH   1  29
ATOM     29  C   UNL     1       1.370   6.122  20.873  0.00  0.00    +0.000 C 
BRANCH  29  30
ATOM     30  C   UNL     1       2.108   4.843  21.289  0.00  0.00    +0.000 C 
BRANCH  30  31
ATOM     31  C   UNL     1       2.100   3.631  20.383  0.00  0.00    +0.000 A 
ATOM     32  C   UNL     1       0.861   3.259  19.826  0.00  0.00    +0.000 A 
ATOM     33  C   UNL     1       0.765   2.211  18.911  0.00  0.00    +0.000 A 
ATOM     34  C   UNL     1       1.906   1.522  18.523  0.00  0.00    +0.000 A 
ATOM     35  C   UNL     1       3.147   1.890  19.052  0.00  0.00    +0.000 A 
ATOM     36  C   UNL     1       3.247   2.942  19.975  0.00  0.00    +0.000 A 
ENDBRANCH  30  31
ENDBRANCH  29  30
ENDBRANCH   1  29
TORSDOF 9
ENDMDL
