MODEL 1
REMARK VINA RESULT:      -7.6      0.000      0.000
REMARK  Name = 
REMARK  8 active torsions:
REMARK  status: ('A' for Active; 'I' for Inactive)
REMARK    1  A    between atoms: C_1  and  N_2
REMARK    2  A    between atoms: N_6  and  N_7
REMARK    3  A    between atoms: N_7  and  C_8
REMARK    4  A    between atoms: C_8  and  N_10
REMARK    5  A    between atoms: N_10  and  C_11
REMARK    6  A    between atoms: C_11  and  C_12
REMARK    7  A    between atoms: C_20  and  O_21
REMARK    8  A    between atoms: O_21  and  C_22
REMARK                            x       y       z     vdW  Elec       q    Type
REMARK                         _______ _______ _______ _____ _____    ______ ____
ROOT
ATOM      1  C   UNL     1       7.511   7.313  17.725  0.00  0.00    +0.000 C 
ATOM      2  N   UNL     1       6.770   6.099  17.533  0.00  0.00    +0.000 N 
ATOM      3  C   UNL     1       6.027   5.453  18.513  0.00  0.00    +0.000 C 
ATOM      4  O   UNL     1       5.871   5.713  19.686  0.00  0.00    +0.000 OA
ATOM      5  C   UNL     1       5.407   4.248  17.811  0.00  0.00    +0.000 C 
ATOM      6  N   UNL     1       4.568   3.374  18.254  0.00  0.00    +0.000 NA
ATOM      7  C   UNL     1       5.907   4.267  16.443  0.00  0.00    +0.000 A 
ATOM      8  C   UNL     1       5.662   3.389  15.409  0.00  0.00    +0.000 A 
ATOM      9  C   UNL     1       6.316   3.627  14.201  0.00  0.00    +0.000 A 
ATOM     10  C   UNL     1       7.122   4.782  14.057  0.00  0.00    +0.000 A 
ATOM     11  C   UNL     1       7.333   5.675  15.115  0.00  0.00    +0.000 A 
ATOM     12  C   UNL     1       6.724   5.395  16.324  0.00  0.00    +0.000 A 
ENDROOT
BRANCH   6  13
ATOM     13  N   UNL     1       4.193   3.405  19.567  0.00  0.00    +0.000 N 
ATOM     14  H   UNL     1       4.835   3.044  20.271  0.00  0.00    +0.000 HD
BRANCH  13  15
ATOM     15  C   UNL     1       2.951   3.936  19.904  0.00  0.00    +0.000 C 
ATOM     16  S   UNL     1       1.520   3.063  19.784  0.00  0.00    +0.000 S 
BRANCH  15  17
ATOM     17  N   UNL     1       3.044   5.219  20.409  0.00  0.00    +0.000 N 
ATOM     18  H   UNL     1       3.921   5.509  20.817  0.00  0.00    +0.000 HD
BRANCH  17  19
ATOM     19  C   UNL     1       1.909   6.112  20.646  0.00  0.00    +0.000 C 
BRANCH  19  20
ATOM     20  C   UNL     1       1.903   7.353  19.772  0.00  0.00    +0.000 A 
ATOM     21  C   UNL     1       2.523   7.292  18.511  0.00  0.00    +0.000 A 
ATOM     22  C   UNL     1       2.535   8.399  17.656  0.00  0.00    +0.000 A 
ATOM     23  C   UNL     1       1.909   9.581  18.040  0.00  0.00    +0.000 A 
ATOM     24  C   UNL     1       1.257   9.651  19.268  0.00  0.00    +0.000 A 
ATOM     25  C   UNL     1       1.247   8.543  20.126  0.00  0.00    +0.000 A 
ENDBRANCH  19  20
ENDBRANCH  17  19
ENDBRANCH  15  17
ENDBRANCH  13  15
ENDBRANCH   6  13
BRANCH   9  26
ATOM     26  O   UNL     1       6.207   2.859  13.081  0.00  0.00    +0.000 OA
BRANCH  26  27
ATOM     27  C   UNL     1       5.396   3.304  11.998  0.00  0.00    +0.000 C 
ATOM     28  F   UNL     1       4.255   3.920  12.366  0.00  0.00    +0.000 F 
ATOM     29  F   UNL     1       6.115   4.145  11.225  0.00  0.00    +0.000 F 
ATOM     30  F   UNL     1       5.057   2.229  11.251  0.00  0.00    +0.000 F 
ENDBRANCH  26  27
ENDBRANCH   9  26
TORSDOF 7
ENDMDL
MODEL 2
REMARK VINA RESULT:      -7.6      3.390      4.917
REMARK  Name = 
REMARK  8 active torsions:
REMARK  status: ('A' for Active; 'I' for Inactive)
REMARK    1  A    between atoms: C_1  and  N_2
REMARK    2  A    between atoms: N_6  and  N_7
REMARK    3  A    between atoms: N_7  and  C_8
REMARK    4  A    between atoms: C_8  and  N_10
REMARK    5  A    between atoms: N_10  and  C_11
REMARK    6  A    between atoms: C_11  and  C_12
REMARK    7  A    between atoms: C_20  and  O_21
REMARK    8  A    between atoms: O_21  and  C_22
REMARK                            x       y       z     vdW  Elec       q    Type
REMARK                         _______ _______ _______ _____ _____    ______ ____
ROOT
ATOM      1  C   UNL     1       1.416   2.117  19.221  0.00  0.00    +0.000 C 
ATOM      2  N   UNL     1       1.953   3.444  19.107  0.00  0.00    +0.000 N 
ATOM      3  C   UNL     1       1.578   4.528  19.892  0.00  0.00    +0.000 C 
ATOM      4  O   UNL     1       0.742   4.620  20.764  0.00  0.00    +0.000 OA
ATOM      5  C   UNL     1       2.453   5.684  19.415  0.00  0.00    +0.000 C 
ATOM      6  N   UNL     1       2.555   6.886  19.871  0.00  0.00    +0.000 NA
ATOM      7  C   UNL     1       3.254   5.166  18.314  0.00  0.00    +0.000 A 
ATOM      8  C   UNL     1       4.187   5.812  17.531  0.00  0.00    +0.000 A 
ATOM      9  C   UNL     1       4.778   5.076  16.505  0.00  0.00    +0.000 A 
ATOM     10  C   UNL     1       4.469   3.702  16.361  0.00  0.00    +0.000 A 
ATOM     11  C   UNL     1       3.537   3.062  17.188  0.00  0.00    +0.000 A 
ATOM     12  C   UNL     1       2.917   3.818  18.164  0.00  0.00    +0.000 A 
ENDROOT
BRANCH   6  13
ATOM     13  N   UNL     1       1.726   7.299  20.876  0.00  0.00    +0.000 N 
ATOM     14  H   UNL     1       1.546   6.669  21.655  0.00  0.00    +0.000 HD
BRANCH  13  15
ATOM     15  C   UNL     1       1.164   8.571  20.808  0.00  0.00    +0.000 C 
ATOM     16  S   UNL     1       0.634   9.408  22.165  0.00  0.00    +0.000 S 
BRANCH  15  17
ATOM     17  N   UNL     1       1.162   9.081  19.524  0.00  0.00    +0.000 N 
ATOM     18  H   UNL     1       1.556   8.516  18.785  0.00  0.00    +0.000 HD
BRANCH  17  19
ATOM     19  C   UNL     1       0.882  10.474  19.174  0.00  0.00    +0.000 C 
BRANCH  19  20
ATOM     20  C   UNL     1      -0.544  10.725  18.721  0.00  0.00    +0.000 A 
ATOM     21  C   UNL     1      -1.054   9.968  17.651  0.00  0.00    +0.000 A 
ATOM     22  C   UNL     1      -2.366  10.144  17.201  0.00  0.00    +0.000 A 
ATOM     23  C   UNL     1      -3.199  11.066  17.827  0.00  0.00    +0.000 A 
ATOM     24  C   UNL     1      -2.726  11.799  18.912  0.00  0.00    +0.000 A 
ATOM     25  C   UNL     1      -1.410  11.625  19.362  0.00  0.00    +0.000 A 
ENDBRANCH  19  20
ENDBRANCH  17  19
ENDBRANCH  15  17
ENDBRANCH  13  15
ENDBRANCH   6  13
BRANCH   9  26
ATOM     26  O   UNL     1       5.705   5.552  15.628  0.00  0.00    +0.000 OA
BRANCH  26  27
ATOM     27  C   UNL     1       7.092   5.412  15.922  0.00  0.00    +0.000 C 
ATOM     28  F   UNL     1       7.622   6.432  16.626  0.00  0.00    +0.000 F 
ATOM     29  F   UNL     1       7.284   4.265  16.606  0.00  0.00    +0.000 F 
ATOM     30  F   UNL     1       7.768   5.327  14.754  0.00  0.00    +0.000 F 
ENDBRANCH  26  27
ENDBRANCH   9  26
TORSDOF 7
ENDMDL
MODEL 3
REMARK VINA RESULT:      -7.4      3.243      4.767
REMARK  Name = 
REMARK  8 active torsions:
REMARK  status: ('A' for Active; 'I' for Inactive)
REMARK    1  A    between atoms: C_1  and  N_2
REMARK    2  A    between atoms: N_6  and  N_7
REMARK    3  A    between atoms: N_7  and  C_8
REMARK    4  A    between atoms: C_8  and  N_10
REMARK    5  A    between atoms: N_10  and  C_11
REMARK    6  A    between atoms: C_11  and  C_12
REMARK    7  A    between atoms: C_20  and  O_21
REMARK    8  A    between atoms: O_21  and  C_22
REMARK                            x       y       z     vdW  Elec       q    Type
REMARK                         _______ _______ _______ _____ _____    ______ ____
ROOT
ATOM      1  C   UNL     1       2.437   2.322  20.012  0.00  0.00    +0.000 C 
ATOM      2  N   UNL     1       2.690   3.664  19.566  0.00  0.00    +0.000 N 
ATOM      3  C   UNL     1       2.183   4.812  20.162  0.00  0.00    +0.000 C 
ATOM      4  O   UNL     1       1.430   4.948  21.102  0.00  0.00    +0.000 OA
ATOM      5  C   UNL     1       2.764   5.968  19.353  0.00  0.00    +0.000 C 
ATOM      6  N   UNL     1       2.669   7.240  19.543  0.00  0.00    +0.000 NA
ATOM      7  C   UNL     1       3.546   5.367  18.281  0.00  0.00    +0.000 A 
ATOM      8  C   UNL     1       4.257   5.975  17.269  0.00  0.00    +0.000 A 
ATOM      9  C   UNL     1       4.883   5.146  16.340  0.00  0.00    +0.000 A 
ATOM     10  C   UNL     1       4.839   3.741  16.515  0.00  0.00    +0.000 A 
ATOM     11  C   UNL     1       4.133   3.148  17.569  0.00  0.00    +0.000 A 
ATOM     12  C   UNL     1       3.469   3.981  18.448  0.00  0.00    +0.000 A 
ENDROOT
BRANCH   6  13
ATOM     13  N   UNL     1       1.872   7.714  20.546  0.00  0.00    +0.000 N 
ATOM     14  H   UNL     1       1.797   7.180  21.409  0.00  0.00    +0.000 HD
BRANCH  13  15
ATOM     15  C   UNL     1       1.196   8.918  20.361  0.00  0.00    +0.000 C 
ATOM     16  S   UNL     1       0.665   9.873  21.637  0.00  0.00    +0.000 S 
BRANCH  15  17
ATOM     17  N   UNL     1       1.084   9.261  19.027  0.00  0.00    +0.000 N 
ATOM     18  H   UNL     1       1.525   8.665  18.342  0.00  0.00    +0.000 HD
BRANCH  17  19
ATOM     19  C   UNL     1       0.608  10.553  18.530  0.00  0.00    +0.000 C 
BRANCH  19  20
ATOM     20  C   UNL     1      -0.880  10.593  18.233  0.00  0.00    +0.000 A 
ATOM     21  C   UNL     1      -1.676  11.535  18.908  0.00  0.00    +0.000 A 
ATOM     22  C   UNL     1      -3.050  11.629  18.663  0.00  0.00    +0.000 A 
ATOM     23  C   UNL     1      -3.648  10.796  17.723  0.00  0.00    +0.000 A 
ATOM     24  C   UNL     1      -2.871   9.882  17.016  0.00  0.00    +0.000 A 
ATOM     25  C   UNL     1      -1.494   9.785  17.263  0.00  0.00    +0.000 A 
ENDBRANCH  19  20
ENDBRANCH  17  19
ENDBRANCH  15  17
ENDBRANCH  13  15
ENDBRANCH   6  13
BRANCH   9  26
ATOM     26  O   UNL     1       5.613   5.569  15.271  0.00  0.00    +0.000 OA
BRANCH  26  27
ATOM     27  C   UNL     1       6.700   4.778  14.800  0.00  0.00    +0.000 C 
ATOM     28  F   UNL     1       6.342   3.593  14.267  0.00  0.00    +0.000 F 
ATOM     29  F   UNL     1       7.390   5.480  13.878  0.00  0.00    +0.000 F 
ATOM     30  F   UNL     1       7.523   4.525  15.842  0.00  0.00    +0.000 F 
ENDBRANCH  26  27
ENDBRANCH   9  26
TORSDOF 7
ENDMDL
MODEL 4
REMARK VINA RESULT:      -7.4      3.721      5.278
REMARK  Name = 
REMARK  8 active torsions:
REMARK  status: ('A' for Active; 'I' for Inactive)
REMARK    1  A    between atoms: C_1  and  N_2
REMARK    2  A    between atoms: N_6  and  N_7
REMARK    3  A    between atoms: N_7  and  C_8
REMARK    4  A    between atoms: C_8  and  N_10
REMARK    5  A    between atoms: N_10  and  C_11
REMARK    6  A    between atoms: C_11  and  C_12
REMARK    7  A    between atoms: C_20  and  O_21
REMARK    8  A    between atoms: O_21  and  C_22
REMARK                            x       y       z     vdW  Elec       q    Type
REMARK                         _______ _______ _______ _____ _____    ______ ____
ROOT
ATOM      1  C   UNL     1       1.942   2.382  18.585  0.00  0.00    +0.000 C 
ATOM      2  N   UNL     1       2.345   3.748  18.771  0.00  0.00    +0.000 N 
ATOM      3  C   UNL     1       1.710   4.662  19.602  0.00  0.00    +0.000 C 
ATOM      4  O   UNL     1       0.715   4.551  20.284  0.00  0.00    +0.000 OA
ATOM      5  C   UNL     1       2.531   5.943  19.483  0.00  0.00    +0.000 C 
ATOM      6  N   UNL     1       2.412   7.062  20.112  0.00  0.00    +0.000 NA
ATOM      7  C   UNL     1       3.582   5.669  18.512  0.00  0.00    +0.000 A 
ATOM      8  C   UNL     1       4.575   6.499  18.039  0.00  0.00    +0.000 A 
ATOM      9  C   UNL     1       5.430   5.982  17.067  0.00  0.00    +0.000 A 
ATOM     10  C   UNL     1       5.305   4.628  16.673  0.00  0.00    +0.000 A 
ATOM     11  C   UNL     1       4.304   3.795  17.190  0.00  0.00    +0.000 A 
ATOM     12  C   UNL     1       3.428   4.339  18.110  0.00  0.00    +0.000 A 
ENDROOT
BRANCH   6  13
ATOM     13  N   UNL     1       1.364   7.247  20.968  0.00  0.00    +0.000 N 
ATOM     14  H   UNL     1       1.048   6.463  21.535  0.00  0.00    +0.000 HD
BRANCH  13  15
ATOM     15  C   UNL     1       0.768   8.503  21.046  0.00  0.00    +0.000 C 
ATOM     16  S   UNL     1      -0.285   8.939  22.281  0.00  0.00    +0.000 S 
BRANCH  15  17
ATOM     17  N   UNL     1       1.196   9.355  20.046  0.00  0.00    +0.000 N 
ATOM     18  H   UNL     1       2.041   9.118  19.547  0.00  0.00    +0.000 HD
BRANCH  17  19
ATOM     19  C   UNL     1       0.684  10.707  19.819  0.00  0.00    +0.000 C 
BRANCH  19  20
ATOM     20  C   UNL     1      -0.593  10.756  19.000  0.00  0.00    +0.000 A 
ATOM     21  C   UNL     1      -0.706   9.917  17.877  0.00  0.00    +0.000 A 
ATOM     22  C   UNL     1      -1.865   9.908  17.094  0.00  0.00    +0.000 A 
ATOM     23  C   UNL     1      -2.940  10.723  17.433  0.00  0.00    +0.000 A 
ATOM     24  C   UNL     1      -2.864  11.533  18.563  0.00  0.00    +0.000 A 
ATOM     25  C   UNL     1      -1.701  11.545  19.346  0.00  0.00    +0.000 A 
ENDBRANCH  19  20
ENDBRANCH  17  19
ENDBRANCH  15  17
ENDBRANCH  13  15
ENDBRANCH   6  13
BRANCH   9  26
ATOM     26  O   UNL     1       6.454   6.660  16.477  0.00  0.00    +0.000 OA
BRANCH  26  27
ATOM     27  C   UNL     1       7.373   7.391  17.282  0.00  0.00    +0.000 C 
ATOM     28  F   UNL     1       8.479   7.809  16.634  0.00  0.00    +0.000 F 
ATOM     29  F   UNL     1       6.745   8.463  17.807  0.00  0.00    +0.000 F 
ATOM     30  F   UNL     1       7.773   6.595  18.299  0.00  0.00    +0.000 F 
ENDBRANCH  26  27
ENDBRANCH   9  26
TORSDOF 7
ENDMDL
MODEL 5
REMARK VINA RESULT:      -7.3      5.972      9.055
REMARK  Name = 
REMARK  8 active torsions:
REMARK  status: ('A' for Active; 'I' for Inactive)
REMARK    1  A    between atoms: C_1  and  N_2
REMARK    2  A    between atoms: N_6  and  N_7
REMARK    3  A    between atoms: N_7  and  C_8
REMARK    4  A    between atoms: C_8  and  N_10
REMARK    5  A    between atoms: N_10  and  C_11
REMARK    6  A    between atoms: C_11  and  C_12
REMARK    7  A    between atoms: C_20  and  O_21
REMARK    8  A    between atoms: O_21  and  C_22
REMARK                            x       y       z     vdW  Elec       q    Type
REMARK                         _______ _______ _______ _____ _____    ______ ____
ROOT
ATOM      1  C   UNL     1      -1.037  11.637  23.098  0.00  0.00    +0.000 C 
ATOM      2  N   UNL     1      -0.621  10.975  21.893  0.00  0.00    +0.000 N 
ATOM      3  C   UNL     1       0.372  10.007  21.816  0.00  0.00    +0.000 C 
ATOM      4  O   UNL     1       1.100   9.552  22.671  0.00  0.00    +0.000 OA
ATOM      5  C   UNL     1       0.410   9.594  20.347  0.00  0.00    +0.000 C 
ATOM      6  N   UNL     1       1.099   8.673  19.764  0.00  0.00    +0.000 NA
ATOM      7  C   UNL     1      -0.565  10.432  19.660  0.00  0.00    +0.000 A 
ATOM      8  C   UNL     1      -0.902  10.466  18.324  0.00  0.00    +0.000 A 
ATOM      9  C   UNL     1      -1.848  11.410  17.928  0.00  0.00    +0.000 A 
ATOM     10  C   UNL     1      -2.478  12.221  18.903  0.00  0.00    +0.000 A 
ATOM     11  C   UNL     1      -2.138  12.147  20.260  0.00  0.00    +0.000 A 
ATOM     12  C   UNL     1      -1.156  11.247  20.629  0.00  0.00    +0.000 A 
ENDROOT
BRANCH   6  13
ATOM     13  N   UNL     1       2.027   7.971  20.480  0.00  0.00    +0.000 N 
ATOM     14  H   UNL     1       2.412   8.385  21.326  0.00  0.00    +0.000 HD
BRANCH  13  15
ATOM     15  C   UNL     1       2.409   6.707  20.036  0.00  0.00    +0.000 C 
ATOM     16  S   UNL     1       3.350   6.467  18.664  0.00  0.00    +0.000 S 
BRANCH  15  17
ATOM     17  N   UNL     1       1.991   5.700  20.884  0.00  0.00    +0.000 N 
ATOM     18  H   UNL     1       2.383   5.666  21.814  0.00  0.00    +0.000 HD
BRANCH  17  19
ATOM     19  C   UNL     1       1.230   4.519  20.474  0.00  0.00    +0.000 C 
BRANCH  19  20
ATOM     20  C   UNL     1       2.052   3.474  19.744  0.00  0.00    +0.000 A 
ATOM     21  C   UNL     1       1.646   3.076  18.458  0.00  0.00    +0.000 A 
ATOM     22  C   UNL     1       2.374   2.128  17.730  0.00  0.00    +0.000 A 
ATOM     23  C   UNL     1       3.533   1.578  18.268  0.00  0.00    +0.000 A 
ATOM     24  C   UNL     1       3.973   1.987  19.524  0.00  0.00    +0.000 A 
ATOM     25  C   UNL     1       3.243   2.934  20.256  0.00  0.00    +0.000 A 
ENDBRANCH  19  20
ENDBRANCH  17  19
ENDBRANCH  15  17
ENDBRANCH  13  15
ENDBRANCH   6  13
BRANCH   9  26
ATOM     26  O   UNL     1      -2.290  11.597  16.653  0.00  0.00    +0.000 OA
BRANCH  26  27
ATOM     27  C   UNL     1      -3.500  10.978  16.228  0.00  0.00    +0.000 C 
ATOM     28  F   UNL     1      -3.844   9.878  16.926  0.00  0.00    +0.000 F 
ATOM     29  F   UNL     1      -4.505  11.875  16.306  0.00  0.00    +0.000 F 
ATOM     30  F   UNL     1      -3.359  10.613  14.934  0.00  0.00    +0.000 F 
ENDBRANCH  26  27
ENDBRANCH   9  26
TORSDOF 7
ENDMDL
MODEL 6
REMARK VINA RESULT:      -7.3      5.156      8.876
REMARK  Name = 
REMARK  8 active torsions:
REMARK  status: ('A' for Active; 'I' for Inactive)
REMARK    1  A    between atoms: C_1  and  N_2
REMARK    2  A    between atoms: N_6  and  N_7
REMARK    3  A    between atoms: N_7  and  C_8
REMARK    4  A    between atoms: C_8  and  N_10
REMARK    5  A    between atoms: N_10  and  C_11
REMARK    6  A    between atoms: C_11  and  C_12
REMARK    7  A    between atoms: C_20  and  O_21
REMARK    8  A    between atoms: O_21  and  C_22
REMARK                            x       y       z     vdW  Elec       q    Type
REMARK                         _______ _______ _______ _____ _____    ______ ____
ROOT
ATOM      1  C   UNL     1      -0.914  11.777  22.815  0.00  0.00    +0.000 C 
ATOM      2  N   UNL     1      -0.540  11.032  21.646  0.00  0.00    +0.000 N 
ATOM      3  C   UNL     1       0.427  10.034  21.610  0.00  0.00    +0.000 C 
ATOM      4  O   UNL     1       1.161   9.614  22.478  0.00  0.00    +0.000 OA
ATOM      5  C   UNL     1       0.424   9.531  20.169  0.00  0.00    +0.000 C 
ATOM      6  N   UNL     1       1.077   8.558  19.633  0.00  0.00    +0.000 NA
ATOM      7  C   UNL     1      -0.544  10.349  19.450  0.00  0.00    +0.000 A 
ATOM      8  C   UNL     1      -0.908  10.309  18.121  0.00  0.00    +0.000 A 
ATOM      9  C   UNL     1      -1.839  11.251  17.686  0.00  0.00    +0.000 A 
ATOM     10  C   UNL     1      -2.428  12.137  18.621  0.00  0.00    +0.000 A 
ATOM     11  C   UNL     1      -2.061  12.138  19.973  0.00  0.00    +0.000 A 
ATOM     12  C   UNL     1      -1.095  11.238  20.378  0.00  0.00    +0.000 A 
ENDROOT
BRANCH   6  13
ATOM     13  N   UNL     1       2.002   7.877  20.372  0.00  0.00    +0.000 N 
ATOM     14  H   UNL     1       2.365   8.306  21.222  0.00  0.00    +0.000 HD
BRANCH  13  15
ATOM     15  C   UNL     1       2.412   6.616  19.949  0.00  0.00    +0.000 C 
ATOM     16  S   UNL     1       1.868   5.192  20.657  0.00  0.00    +0.000 S 
BRANCH  15  17
ATOM     17  N   UNL     1       3.246   6.672  18.848  0.00  0.00    +0.000 N 
ATOM     18  H   UNL     1       3.705   7.548  18.642  0.00  0.00    +0.000 HD
BRANCH  17  19
ATOM     19  C   UNL     1       3.322   5.655  17.799  0.00  0.00    +0.000 C 
BRANCH  19  20
ATOM     20  C   UNL     1       4.737   5.250  17.430  0.00  0.00    +0.000 A 
ATOM     21  C   UNL     1       5.776   5.531  18.336  0.00  0.00    +0.000 A 
ATOM     22  C   UNL     1       7.098   5.166  18.057  0.00  0.00    +0.000 A 
ATOM     23  C   UNL     1       7.400   4.496  16.876  0.00  0.00    +0.000 A 
ATOM     24  C   UNL     1       6.381   4.175  15.983  0.00  0.00    +0.000 A 
ATOM     25  C   UNL     1       5.057   4.543  16.260  0.00  0.00    +0.000 A 
ENDBRANCH  19  20
ENDBRANCH  17  19
ENDBRANCH  15  17
ENDBRANCH  13  15
ENDBRANCH   6  13
BRANCH   9  26
ATOM     26  O   UNL     1      -2.302  11.370  16.411  0.00  0.00    +0.000 OA
BRANCH  26  27
ATOM     27  C   UNL     1      -3.461  10.645  16.010  0.00  0.00    +0.000 C 
ATOM     28  F   UNL     1      -4.623  11.139  16.482  0.00  0.00    +0.000 F 
ATOM     29  F   UNL     1      -3.517  10.613  14.663  0.00  0.00    +0.000 F 
ATOM     30  F   UNL     1      -3.345   9.376  16.459  0.00  0.00    +0.000 F 
ENDBRANCH  26  27
ENDBRANCH   9  26
TORSDOF 7
ENDMDL
MODEL 7
REMARK VINA RESULT:      -7.2      4.011      5.496
REMARK  Name = 
REMARK  8 active torsions:
REMARK  status: ('A' for Active; 'I' for Inactive)
REMARK    1  A    between atoms: C_1  and  N_2
REMARK    2  A    between atoms: N_6  and  N_7
REMARK    3  A    between atoms: N_7  and  C_8
REMARK    4  A    between atoms: C_8  and  N_10
REMARK    5  A    between atoms: N_10  and  C_11
REMARK    6  A    between atoms: C_11  and  C_12
REMARK    7  A    between atoms: C_20  and  O_21
REMARK    8  A    between atoms: O_21  and  C_22
REMARK                            x       y       z     vdW  Elec       q    Type
REMARK                         _______ _______ _______ _____ _____    ______ ____
ROOT
ATOM      1  C   UNL     1       2.220   4.267  21.272  0.00  0.00    +0.000 C 
ATOM      2  N   UNL     1       2.436   5.267  20.265  0.00  0.00    +0.000 N 
ATOM      3  C   UNL     1       1.836   6.521  20.243  0.00  0.00    +0.000 C 
ATOM      4  O   UNL     1       1.018   7.018  20.986  0.00  0.00    +0.000 OA
ATOM      5  C   UNL     1       2.413   7.214  19.012  0.00  0.00    +0.000 C 
ATOM      6  N   UNL     1       2.244   8.420  18.588  0.00  0.00    +0.000 NA
ATOM      7  C   UNL     1       3.290   6.246  18.368  0.00  0.00    +0.000 A 
ATOM      8  C   UNL     1       4.035   6.371  17.215  0.00  0.00    +0.000 A 
ATOM      9  C   UNL     1       4.760   5.255  16.799  0.00  0.00    +0.000 A 
ATOM     10  C   UNL     1       4.772   4.089  17.603  0.00  0.00    +0.000 A 
ATOM     11  C   UNL     1       4.028   3.997  18.786  0.00  0.00    +0.000 A 
ATOM     12  C   UNL     1       3.269   5.091  19.155  0.00  0.00    +0.000 A 
ENDROOT
BRANCH   6  13
ATOM     13  N   UNL     1       1.362   9.243  19.228  0.00  0.00    +0.000 N 
ATOM     14  H   UNL     1       0.815   8.871  20.002  0.00  0.00    +0.000 HD
BRANCH  13  15
ATOM     15  C   UNL     1       1.246  10.566  18.810  0.00  0.00    +0.000 C 
ATOM     16  S   UNL     1       2.422  11.342  17.895  0.00  0.00    +0.000 S 
BRANCH  15  17
ATOM     17  N   UNL     1       0.036  11.130  19.169  0.00  0.00    +0.000 N 
ATOM     18  H   UNL     1       0.040  12.065  19.551  0.00  0.00    +0.000 HD
BRANCH  17  19
ATOM     19  C   UNL     1      -1.226  10.400  19.294  0.00  0.00    +0.000 C 
BRANCH  19  20
ATOM     20  C   UNL     1      -2.177  10.600  18.128  0.00  0.00    +0.000 A 
ATOM     21  C   UNL     1      -1.936   9.897  16.934  0.00  0.00    +0.000 A 
ATOM     22  C   UNL     1      -2.787  10.029  15.832  0.00  0.00    +0.000 A 
ATOM     23  C   UNL     1      -3.906  10.852  15.912  0.00  0.00    +0.000 A 
ATOM     24  C   UNL     1      -4.183  11.528  17.097  0.00  0.00    +0.000 A 
ATOM     25  C   UNL     1      -3.329  11.398  18.201  0.00  0.00    +0.000 A 
ENDBRANCH  19  20
ENDBRANCH  17  19
ENDBRANCH  15  17
ENDBRANCH  13  15
ENDBRANCH   6  13
BRANCH   9  26
ATOM     26  O   UNL     1       5.536   5.191  15.681  0.00  0.00    +0.000 OA
BRANCH  26  27
ATOM     27  C   UNL     1       6.954   5.228  15.805  0.00  0.00    +0.000 C 
ATOM     28  F   UNL     1       7.430   6.281  16.498  0.00  0.00    +0.000 F 
ATOM     29  F   UNL     1       7.375   4.091  16.396  0.00  0.00    +0.000 F 
ATOM     30  F   UNL     1       7.488   5.281  14.564  0.00  0.00    +0.000 F 
ENDBRANCH  26  27
ENDBRANCH   9  26
TORSDOF 7
ENDMDL
MODEL 8
REMARK VINA RESULT:      -7.2      4.011      8.052
REMARK  Name = 
REMARK  8 active torsions:
REMARK  status: ('A' for Active; 'I' for Inactive)
REMARK    1  A    between atoms: C_1  and  N_2
REMARK    2  A    between atoms: N_6  and  N_7
REMARK    3  A    between atoms: N_7  and  C_8
REMARK    4  A    between atoms: C_8  and  N_10
REMARK    5  A    between atoms: N_10  and  C_11
REMARK    6  A    between atoms: C_11  and  C_12
REMARK    7  A    between atoms: C_20  and  O_21
REMARK    8  A    between atoms: O_21  and  C_22
REMARK                            x       y       z     vdW  Elec       q    Type
REMARK                         _______ _______ _______ _____ _____    ______ ____
ROOT
ATOM      1  C   UNL     1       2.305   3.957  21.340  0.00  0.00    +0.000 C 
ATOM      2  N   UNL     1       2.644   4.797  20.227  0.00  0.00    +0.000 N 
ATOM      3  C   UNL     1       3.457   4.426  19.163  0.00  0.00    +0.000 C 
ATOM      4  O   UNL     1       4.064   3.398  18.955  0.00  0.00    +0.000 OA
ATOM      5  C   UNL     1       3.476   5.638  18.236  0.00  0.00    +0.000 C 
ATOM      6  N   UNL     1       4.016   5.781  17.074  0.00  0.00    +0.000 NA
ATOM      7  C   UNL     1       2.686   6.671  18.894  0.00  0.00    +0.000 A 
ATOM      8  C   UNL     1       2.408   7.956  18.481  0.00  0.00    +0.000 A 
ATOM      9  C   UNL     1       1.654   8.753  19.340  0.00  0.00    +0.000 A 
ATOM     10  C   UNL     1       1.138   8.200  20.537  0.00  0.00    +0.000 A 
ATOM     11  C   UNL     1       1.411   6.880  20.921  0.00  0.00    +0.000 A 
ATOM     12  C   UNL     1       2.209   6.121  20.087  0.00  0.00    +0.000 A 
ENDROOT
BRANCH   6  13
ATOM     13  N   UNL     1       4.783   4.776  16.558  0.00  0.00    +0.000 N 
ATOM     14  H   UNL     1       4.359   3.862  16.408  0.00  0.00    +0.000 HD
BRANCH  13  15
ATOM     15  C   UNL     1       6.115   5.033  16.243  0.00  0.00    +0.000 C 
ATOM     16  S   UNL     1       7.381   4.719  17.303  0.00  0.00    +0.000 S 
BRANCH  15  17
ATOM     17  N   UNL     1       6.272   5.500  14.952  0.00  0.00    +0.000 N 
ATOM     18  H   UNL     1       5.610   6.179  14.606  0.00  0.00    +0.000 HD
BRANCH  17  19
ATOM     19  C   UNL     1       7.155   4.906  13.947  0.00  0.00    +0.000 C 
BRANCH  19  20
ATOM     20  C   UNL     1       6.445   4.004  12.955  0.00  0.00    +0.000 A 
ATOM     21  C   UNL     1       7.211   3.098  12.200  0.00  0.00    +0.000 A 
ATOM     22  C   UNL     1       6.610   2.231  11.282  0.00  0.00    +0.000 A 
ATOM     23  C   UNL     1       5.229   2.239  11.118  0.00  0.00    +0.000 A 
ATOM     24  C   UNL     1       4.448   3.102  11.883  0.00  0.00    +0.000 A 
ATOM     25  C   UNL     1       5.050   3.974  12.801  0.00  0.00    +0.000 A 
ENDBRANCH  19  20
ENDBRANCH  17  19
ENDBRANCH  15  17
ENDBRANCH  13  15
ENDBRANCH   6  13
BRANCH   9  26
ATOM     26  O   UNL     1       1.297  10.047  19.105  0.00  0.00    +0.000 OA
BRANCH  26  27
ATOM     27  C   UNL     1       0.012  10.338  18.564  0.00  0.00    +0.000 C 
ATOM     28  F   UNL     1      -0.184  11.634  18.249  0.00  0.00    +0.000 F 
ATOM     29  F   UNL     1      -0.181   9.588  17.459  0.00  0.00    +0.000 F 
ATOM     30  F   UNL     1      -0.922   9.993  19.478  0.00  0.00    +0.000 F 
ENDBRANCH  26  27
ENDBRANCH   9  26
TORSDOF 7
ENDMDL
MODEL 9
REMARK VINA RESULT:      -7.2      0.912      1.048
REMARK  Name = 
REMARK  8 active torsions:
REMARK  status: ('A' for Active; 'I' for Inactive)
REMARK    1  A    between atoms: C_1  and  N_2
REMARK    2  A    between atoms: N_6  and  N_7
REMARK    3  A    between atoms: N_7  and  C_8
REMARK    4  A    between atoms: C_8  and  N_10
REMARK    5  A    between atoms: N_10  and  C_11
REMARK    6  A    between atoms: C_11  and  C_12
REMARK    7  A    between atoms: C_20  and  O_21
REMARK    8  A    between atoms: O_21  and  C_22
REMARK                            x       y       z     vdW  Elec       q    Type
REMARK                         _______ _______ _______ _____ _____    ______ ____
ROOT
ATOM      1  C   UNL     1       7.896   6.292  18.509  0.00  0.00    +0.000 C 
ATOM      2  N   UNL     1       6.812   5.447  18.092  0.00  0.00    +0.000 N 
ATOM      3  C   UNL     1       5.960   4.761  18.948  0.00  0.00    +0.000 C 
ATOM      4  O   UNL     1       5.950   4.681  20.157  0.00  0.00    +0.000 OA
ATOM      5  C   UNL     1       4.969   4.048  18.033  0.00  0.00    +0.000 C 
ATOM      6  N   UNL     1       3.928   3.346  18.328  0.00  0.00    +0.000 NA
ATOM      7  C   UNL     1       5.381   4.348  16.668  0.00  0.00    +0.000 A 
ATOM      8  C   UNL     1       4.829   3.932  15.475  0.00  0.00    +0.000 A 
ATOM      9  C   UNL     1       5.461   4.340  14.302  0.00  0.00    +0.000 A 
ATOM     10  C   UNL     1       6.571   5.217  14.374  0.00  0.00    +0.000 A 
ATOM     11  C   UNL     1       7.096   5.648  15.599  0.00  0.00    +0.000 A 
ATOM     12  C   UNL     1       6.494   5.189  16.754  0.00  0.00    +0.000 A 
ENDROOT
BRANCH   6  13
ATOM     13  N   UNL     1       3.648   3.073  19.637  0.00  0.00    +0.000 N 
ATOM     14  H   UNL     1       4.231   2.404  20.136  0.00  0.00    +0.000 HD
BRANCH  13  15
ATOM     15  C   UNL     1       2.581   3.726  20.250  0.00  0.00    +0.000 C 
ATOM     16  S   UNL     1       1.662   3.026  21.470  0.00  0.00    +0.000 S 
BRANCH  15  17
ATOM     17  N   UNL     1       2.421   5.021  19.794  0.00  0.00    +0.000 N 
ATOM     18  H   UNL     1       2.796   5.257  18.886  0.00  0.00    +0.000 HD
BRANCH  17  19
ATOM     19  C   UNL     1       1.990   6.152  20.615  0.00  0.00    +0.000 C 
BRANCH  19  20
ATOM     20  C   UNL     1       1.840   7.453  19.849  0.00  0.00    +0.000 A 
ATOM     21  C   UNL     1       2.309   7.512  18.524  0.00  0.00    +0.000 A 
ATOM     22  C   UNL     1       2.183   8.679  17.763  0.00  0.00    +0.000 A 
ATOM     23  C   UNL     1       1.567   9.802  18.307  0.00  0.00    +0.000 A 
ATOM     24  C   UNL     1       1.062   9.752  19.603  0.00  0.00    +0.000 A 
ATOM     25  C   UNL     1       1.190   8.584  20.368  0.00  0.00    +0.000 A 
ENDBRANCH  19  20
ENDBRANCH  17  19
ENDBRANCH  15  17
ENDBRANCH  13  15
ENDBRANCH   6  13
BRANCH   9  26
ATOM     26  O   UNL     1       5.067   4.014  13.040  0.00  0.00    +0.000 OA
BRANCH  26  27
ATOM     27  C   UNL     1       5.939   3.263  12.200  0.00  0.00    +0.000 C 
ATOM     28  F   UNL     1       6.782   4.008  11.457  0.00  0.00    +0.000 F 
ATOM     29  F   UNL     1       6.662   2.415  12.961  0.00  0.00    +0.000 F 
ATOM     30  F   UNL     1       5.184   2.530  11.351  0.00  0.00    +0.000 F 
ENDBRANCH  26  27
ENDBRANCH   9  26
TORSDOF 7
ENDMDL
