MODEL 1
REMARK VINA RESULT:      -8.0      0.000      0.000
REMARK  Name = 
REMARK  9 active torsions:
REMARK  status: ('A' for Active; 'I' for Inactive)
REMARK    1  A    between atoms: P_2  and  O_3
REMARK    2  A    between atoms: P_2  and  O_4
REMARK    3  A    between atoms: P_2  and  C_5
REMARK    4  A    between atoms: C_5  and  O_6
REMARK    5  A    between atoms: C_5  and  C_7
REMARK    6  A    between atoms: C_5  and  P_19
REMARK    7  A    between atoms: C_7  and  N_8
REMARK    8  A    between atoms: P_19  and  O_21
REMARK    9  A    between atoms: P_19  and  O_22
REMARK                            x       y       z     vdW  Elec       q    Type
REMARK                         _______ _______ _______ _____ _____    ______ ____
ROOT
ATOM      1  C   UNL     1       6.780   6.247  17.207  0.00  0.00    +0.000 C 
ENDROOT
BRANCH   1   3
ATOM      2  O   UNL     1       6.641   3.732  14.955  0.00  0.00    +0.000 OA
ATOM      3  P   UNL     1       6.705   4.885  15.987  0.00  0.00    +0.000 P 
BRANCH   3   4
ATOM      4  O   UNL     1       7.902   4.077  16.768  0.00  0.00    +0.000 OA
ATOM      5  H   UNL     1       8.730   4.232  16.261  0.00  0.00    +0.000 HD
ENDBRANCH   3   4
BRANCH   3   6
ATOM      6  O   UNL     1       7.717   5.714  14.980  0.00  0.00    +0.000 OA
ATOM      7  H   UNL     1       7.772   5.198  14.147  0.00  0.00    +0.000 HD
ENDBRANCH   3   6
ENDBRANCH   1   3
BRANCH   1   8
ATOM      8  O   UNL     1       7.566   7.375  16.705  0.00  0.00    +0.000 OA
ATOM      9  H   UNL     1       7.167   8.179  17.088  0.00  0.00    +0.000 HD
ENDBRANCH   1   8
BRANCH   1  10
ATOM     10  P   UNL     1       7.661   5.676  18.705  0.00  0.00    +0.000 P 
ATOM     11  O   UNL     1       8.290   7.046  19.001  0.00  0.00    +0.000 OA
BRANCH  10  12
ATOM     12  O   UNL     1       6.274   5.712  19.598  0.00  0.00    +0.000 OA
ATOM     13  H   UNL     1       6.467   5.971  20.523  0.00  0.00    +0.000 HD
ENDBRANCH  10  12
BRANCH  10  14
ATOM     14  O   UNL     1       8.493   5.136  20.122  0.00  0.00    +0.000 OA
ATOM     15  H   UNL     1       9.297   5.695  20.152  0.00  0.00    +0.000 HD
ENDBRANCH  10  14
ENDBRANCH   1  10
BRANCH   1  16
ATOM     16  C   UNL     1       5.335   6.734  17.460  0.00  0.00    +0.000 C 
BRANCH  16  17
ATOM     17  N   UNL     1       4.293   5.966  16.763  0.00  0.00    +0.000 N 
ATOM     18  C   UNL     1       3.653   5.006  17.539  0.00  0.00    +0.000 A 
ATOM     19  N   UNL     1       3.353   3.844  16.945  0.00  0.00    +0.000 NA
ATOM     20  C   UNL     1       2.751   2.913  17.699  0.00  0.00    +0.000 A 
ATOM     21  C   UNL     1       2.410   3.114  19.037  0.00  0.00    +0.000 A 
ATOM     22  C   UNL     1       1.762   2.167  19.850  0.00  0.00    +0.000 A 
ATOM     23  C   UNL     1       1.452   2.494  21.171  0.00  0.00    +0.000 A 
ATOM     24  C   UNL     1       1.795   3.745  21.668  0.00  0.00    +0.000 A 
ATOM     25  C   UNL     1       2.446   4.665  20.857  0.00  0.00    +0.000 A 
ATOM     26  C   UNL     1       2.760   4.364  19.534  0.00  0.00    +0.000 A 
ATOM     27  N   UNL     1       3.375   5.295  18.815  0.00  0.00    +0.000 NA
ATOM     28  H   UNL     1       4.670   5.408  15.981  0.00  0.00    +0.000 HD
ENDBRANCH  16  17
ENDBRANCH   1  16
TORSDOF 9
ENDMDL
MODEL 2
REMARK VINA RESULT:      -7.9      2.987      4.680
REMARK  Name = 
REMARK  9 active torsions:
REMARK  status: ('A' for Active; 'I' for Inactive)
REMARK    1  A    between atoms: P_2  and  O_3
REMARK    2  A    between atoms: P_2  and  O_4
REMARK    3  A    between atoms: P_2  and  C_5
REMARK    4  A    between atoms: C_5  and  O_6
REMARK    5  A    between atoms: C_5  and  C_7
REMARK    6  A    between atoms: C_5  and  P_19
REMARK    7  A    between atoms: C_7  and  N_8
REMARK    8  A    between atoms: P_19  and  O_21
REMARK    9  A    between atoms: P_19  and  O_22
REMARK                            x       y       z     vdW  Elec       q    Type
REMARK                         _______ _______ _______ _____ _____    ______ ____
ROOT
ATOM      1  C   UNL     1       5.651   4.800  17.025  0.00  0.00    +0.000 C 
ENDROOT
BRANCH   1   3
ATOM      2  O   UNL     1       7.251   5.307  19.957  0.00  0.00    +0.000 OA
ATOM      3  P   UNL     1       6.517   5.074  18.613  0.00  0.00    +0.000 P 
BRANCH   3   4
ATOM      4  O   UNL     1       7.819   4.224  18.086  0.00  0.00    +0.000 OA
ATOM      5  H   UNL     1       7.883   4.371  17.115  0.00  0.00    +0.000 HD
ENDBRANCH   3   4
BRANCH   3   6
ATOM      6  O   UNL     1       5.746   3.773  19.274  0.00  0.00    +0.000 OA
ATOM      7  H   UNL     1       4.783   3.930  19.166  0.00  0.00    +0.000 HD
ENDBRANCH   3   6
ENDBRANCH   1   3
BRANCH   1   8
ATOM      8  O   UNL     1       5.232   3.405  16.876  0.00  0.00    +0.000 OA
ATOM      9  H   UNL     1       4.362   3.425  16.433  0.00  0.00    +0.000 HD
ENDBRANCH   1   8
BRANCH   1  10
ATOM     10  P   UNL     1       6.805   5.107  15.639  0.00  0.00    +0.000 P 
ATOM     11  O   UNL     1       5.749   5.791  14.756  0.00  0.00    +0.000 OA
BRANCH  10  12
ATOM     12  O   UNL     1       7.498   6.378  16.429  0.00  0.00    +0.000 OA
ATOM     13  H   UNL     1       7.346   7.212  15.938  0.00  0.00    +0.000 HD
ENDBRANCH  10  12
BRANCH  10  14
ATOM     14  O   UNL     1       7.896   5.397  14.329  0.00  0.00    +0.000 OA
ATOM     15  H   UNL     1       8.720   4.945  14.602  0.00  0.00    +0.000 HD
ENDBRANCH  10  14
ENDBRANCH   1  10
BRANCH   1  16
ATOM     16  C   UNL     1       4.387   5.691  17.015  0.00  0.00    +0.000 C 
BRANCH  16  17
ATOM     17  N   UNL     1       3.324   5.263  17.935  0.00  0.00    +0.000 N 
ATOM     18  C   UNL     1       2.712   6.290  18.645  0.00  0.00    +0.000 A 
ATOM     19  N   UNL     1       2.393   6.043  19.921  0.00  0.00    +0.000 NA
ATOM     20  C   UNL     1       1.818   7.041  20.609  0.00  0.00    +0.000 A 
ATOM     21  C   UNL     1       1.523   8.285  20.051  0.00  0.00    +0.000 A 
ATOM     22  C   UNL     1       0.904   9.345  20.737  0.00  0.00    +0.000 A 
ATOM     23  C   UNL     1       0.639  10.538  20.063  0.00  0.00    +0.000 A 
ATOM     24  C   UNL     1       0.997  10.666  18.727  0.00  0.00    +0.000 A 
ATOM     25  C   UNL     1       1.620   9.615  18.066  0.00  0.00    +0.000 A 
ATOM     26  C   UNL     1       1.888   8.413  18.715  0.00  0.00    +0.000 A 
ATOM     27  N   UNL     1       2.477   7.449  18.019  0.00  0.00    +0.000 NA
ATOM     28  H   UNL     1       3.674   4.649  18.687  0.00  0.00    +0.000 HD
ENDBRANCH  16  17
ENDBRANCH   1  16
TORSDOF 9
ENDMDL
MODEL 3
REMARK VINA RESULT:      -7.8      2.933      4.531
REMARK  Name = 
REMARK  9 active torsions:
REMARK  status: ('A' for Active; 'I' for Inactive)
REMARK    1  A    between atoms: P_2  and  O_3
REMARK    2  A    between atoms: P_2  and  O_4
REMARK    3  A    between atoms: P_2  and  C_5
REMARK    4  A    between atoms: C_5  and  O_6
REMARK    5  A    between atoms: C_5  and  C_7
REMARK    6  A    between atoms: C_5  and  P_19
REMARK    7  A    between atoms: C_7  and  N_8
REMARK    8  A    between atoms: P_19  and  O_21
REMARK    9  A    between atoms: P_19  and  O_22
REMARK                            x       y       z     vdW  Elec       q    Type
REMARK                         _______ _______ _______ _____ _____    ______ ____
ROOT
ATOM      1  C   UNL     1       5.417   4.670  17.167  0.00  0.00    +0.000 C 
ENDROOT
BRANCH   1   3
ATOM      2  O   UNL     1       7.083   5.297  20.039  0.00  0.00    +0.000 OA
ATOM      3  P   UNL     1       6.319   5.009  18.722  0.00  0.00    +0.000 P 
BRANCH   3   4
ATOM      4  O   UNL     1       7.663   4.266  18.142  0.00  0.00    +0.000 OA
ATOM      5  H   UNL     1       7.379   3.390  17.796  0.00  0.00    +0.000 HD
ENDBRANCH   3   4
BRANCH   3   6
ATOM      6  O   UNL     1       5.679   3.650  19.406  0.00  0.00    +0.000 OA
ATOM      7  H   UNL     1       6.012   3.613  20.329  0.00  0.00    +0.000 HD
ENDBRANCH   3   6
ENDBRANCH   1   3
BRANCH   1   8
ATOM      8  O   UNL     1       5.100   3.247  17.029  0.00  0.00    +0.000 OA
ATOM      9  H   UNL     1       5.953   2.773  17.049  0.00  0.00    +0.000 HD
ENDBRANCH   1   8
BRANCH   1  10
ATOM     10  P   UNL     1       6.492   5.064  15.740  0.00  0.00    +0.000 P 
ATOM     11  O   UNL     1       5.328   5.495  14.832  0.00  0.00    +0.000 OA
BRANCH  10  12
ATOM     12  O   UNL     1       6.966   6.488  16.424  0.00  0.00    +0.000 OA
ATOM     13  H   UNL     1       7.574   6.970  15.826  0.00  0.00    +0.000 HD
ENDBRANCH  10  12
BRANCH  10  14
ATOM     14  O   UNL     1       7.507   5.437  14.390  0.00  0.00    +0.000 OA
ATOM     15  H   UNL     1       7.849   4.565  14.104  0.00  0.00    +0.000 HD
ENDBRANCH  10  14
ENDBRANCH   1  10
BRANCH   1  16
ATOM     16  C   UNL     1       4.090   5.462  17.207  0.00  0.00    +0.000 C 
BRANCH  16  17
ATOM     17  N   UNL     1       4.241   6.922  17.121  0.00  0.00    +0.000 N 
ATOM     18  C   UNL     1       3.268   7.654  17.794  0.00  0.00    +0.000 A 
ATOM     19  N   UNL     1       2.832   8.774  17.203  0.00  0.00    +0.000 NA
ATOM     20  C   UNL     1       1.882   9.470  17.845  0.00  0.00    +0.000 A 
ATOM     21  C   UNL     1       1.365   9.095  19.085  0.00  0.00    +0.000 A 
ATOM     22  C   UNL     1       0.383   9.811  19.795  0.00  0.00    +0.000 A 
ATOM     23  C   UNL     1      -0.040   9.346  21.040  0.00  0.00    +0.000 A 
ATOM     24  C   UNL     1       0.507   8.180  21.561  0.00  0.00    +0.000 A 
ATOM     25  C   UNL     1       1.466   7.476  20.844  0.00  0.00    +0.000 A 
ATOM     26  C   UNL     1       1.909   7.924  19.601  0.00  0.00    +0.000 A 
ATOM     27  N   UNL     1       2.834   7.206  18.976  0.00  0.00    +0.000 NA
ATOM     28  H   UNL     1       4.157   7.273  16.155  0.00  0.00    +0.000 HD
ENDBRANCH  16  17
ENDBRANCH   1  16
TORSDOF 9
ENDMDL
MODEL 4
REMARK VINA RESULT:      -7.6      4.368      5.892
REMARK  Name = 
REMARK  9 active torsions:
REMARK  status: ('A' for Active; 'I' for Inactive)
REMARK    1  A    between atoms: P_2  and  O_3
REMARK    2  A    between atoms: P_2  and  O_4
REMARK    3  A    between atoms: P_2  and  C_5
REMARK    4  A    between atoms: C_5  and  O_6
REMARK    5  A    between atoms: C_5  and  C_7
REMARK    6  A    between atoms: C_5  and  P_19
REMARK    7  A    between atoms: C_7  and  N_8
REMARK    8  A    between atoms: P_19  and  O_21
REMARK    9  A    between atoms: P_19  and  O_22
REMARK                            x       y       z     vdW  Elec       q    Type
REMARK                         _______ _______ _______ _____ _____    ______ ____
ROOT
ATOM      1  C   UNL     1       2.862   3.784  19.009  0.00  0.00    +0.000 C 
ENDROOT
BRANCH   1   3
ATOM      2  O   UNL     1       2.202   3.145  22.260  0.00  0.00    +0.000 OA
ATOM      3  P   UNL     1       2.504   3.438  20.770  0.00  0.00    +0.000 P 
BRANCH   3   4
ATOM      4  O   UNL     1       0.903   3.276  20.446  0.00  0.00    +0.000 OA
ATOM      5  H   UNL     1       0.609   2.437  20.867  0.00  0.00    +0.000 HD
ENDBRANCH   3   4
BRANCH   3   6
ATOM      6  O   UNL     1       2.429   5.057  21.086  0.00  0.00    +0.000 OA
ATOM      7  H   UNL     1       1.477   5.288  21.154  0.00  0.00    +0.000 HD
ENDBRANCH   3   6
ENDBRANCH   1   3
BRANCH   1   8
ATOM      8  O   UNL     1       2.470   2.664  18.151  0.00  0.00    +0.000 OA
ATOM      9  H   UNL     1       2.625   1.853  18.672  0.00  0.00    +0.000 HD
ENDBRANCH   1   8
BRANCH   1  10
ATOM     10  P   UNL     1       4.668   3.959  18.776  0.00  0.00    +0.000 P 
ATOM     11  O   UNL     1       4.810   5.094  19.803  0.00  0.00    +0.000 OA
BRANCH  10  12
ATOM     12  O   UNL     1       4.968   2.611  19.679  0.00  0.00    +0.000 OA
ATOM     13  H   UNL     1       4.612   2.720  20.586  0.00  0.00    +0.000 HD
ENDBRANCH  10  12
BRANCH  10  14
ATOM     14  O   UNL     1       6.376   4.124  18.557  0.00  0.00    +0.000 OA
ATOM     15  H   UNL     1       6.692   4.474  19.415  0.00  0.00    +0.000 HD
ENDBRANCH  10  14
ENDBRANCH   1  10
BRANCH   1  16
ATOM     16  C   UNL     1       2.040   5.026  18.594  0.00  0.00    +0.000 C 
BRANCH  16  17
ATOM     17  N   UNL     1       2.839   6.159  18.106  0.00  0.00    +0.000 N 
ATOM     18  C   UNL     1       2.353   7.415  18.455  0.00  0.00    +0.000 A 
ATOM     19  N   UNL     1       2.446   8.381  17.533  0.00  0.00    +0.000 NA
ATOM     20  C   UNL     1       1.962   9.587  17.866  0.00  0.00    +0.000 A 
ATOM     21  C   UNL     1       1.405   9.871  19.113  0.00  0.00    +0.000 A 
ATOM     22  C   UNL     1       0.906  11.128  19.501  0.00  0.00    +0.000 A 
ATOM     23  C   UNL     1       0.392  11.295  20.787  0.00  0.00    +0.000 A 
ATOM     24  C   UNL     1       0.372  10.218  21.665  0.00  0.00    +0.000 A 
ATOM     25  C   UNL     1       0.856   8.980  21.264  0.00  0.00    +0.000 A 
ATOM     26  C   UNL     1       1.380   8.791  19.987  0.00  0.00    +0.000 A 
ATOM     27  N   UNL     1       1.833   7.583  19.675  0.00  0.00    +0.000 NA
ATOM     28  H   UNL     1       2.868   6.209  17.076  0.00  0.00    +0.000 HD
ENDBRANCH  16  17
ENDBRANCH   1  16
TORSDOF 9
ENDMDL
MODEL 5
REMARK VINA RESULT:      -7.5      0.606      1.023
REMARK  Name = 
REMARK  9 active torsions:
REMARK  status: ('A' for Active; 'I' for Inactive)
REMARK    1  A    between atoms: P_2  and  O_3
REMARK    2  A    between atoms: P_2  and  O_4
REMARK    3  A    between atoms: P_2  and  C_5
REMARK    4  A    between atoms: C_5  and  O_6
REMARK    5  A    between atoms: C_5  and  C_7
REMARK    6  A    between atoms: C_5  and  P_19
REMARK    7  A    between atoms: C_7  and  N_8
REMARK    8  A    between atoms: P_19  and  O_21
REMARK    9  A    between atoms: P_19  and  O_22
REMARK                            x       y       z     vdW  Elec       q    Type
REMARK                         _______ _______ _______ _____ _____    ______ ____
ROOT
ATOM      1  C   UNL     1       6.518   6.399  17.245  0.00  0.00    +0.000 C 
ENDROOT
BRANCH   1   3
ATOM      2  O   UNL     1       6.228   4.032  14.852  0.00  0.00    +0.000 OA
ATOM      3  P   UNL     1       6.361   5.117  15.949  0.00  0.00    +0.000 P 
BRANCH   3   4
ATOM      4  O   UNL     1       7.873   5.442  15.400  0.00  0.00    +0.000 OA
ATOM      5  H   UNL     1       7.887   5.210  14.444  0.00  0.00    +0.000 HD
ENDBRANCH   3   4
BRANCH   3   6
ATOM      6  O   UNL     1       5.605   6.197  14.954  0.00  0.00    +0.000 OA
ATOM      7  H   UNL     1       5.297   6.937  15.522  0.00  0.00    +0.000 HD
ENDBRANCH   3   6
ENDBRANCH   1   3
BRANCH   1   8
ATOM      8  O   UNL     1       7.229   7.579  16.750  0.00  0.00    +0.000 OA
ATOM      9  H   UNL     1       7.983   7.246  16.226  0.00  0.00    +0.000 HD
ENDBRANCH   1   8
BRANCH   1  10
ATOM     10  P   UNL     1       7.546   5.758  18.616  0.00  0.00    +0.000 P 
ATOM     11  O   UNL     1       6.365   5.601  19.586  0.00  0.00    +0.000 OA
BRANCH  10  12
ATOM     12  O   UNL     1       7.643   4.267  17.915  0.00  0.00    +0.000 OA
ATOM     13  H   UNL     1       6.765   3.832  17.912  0.00  0.00    +0.000 HD
ENDBRANCH  10  12
BRANCH  10  14
ATOM     14  O   UNL     1       8.518   5.151  19.912  0.00  0.00    +0.000 OA
ATOM     15  H   UNL     1       8.407   5.815  20.622  0.00  0.00    +0.000 HD
ENDBRANCH  10  14
ENDBRANCH   1  10
BRANCH   1  16
ATOM     16  C   UNL     1       5.092   6.829  17.661  0.00  0.00    +0.000 C 
BRANCH  16  17
ATOM     17  N   UNL     1       4.008   6.113  16.974  0.00  0.00    +0.000 N 
ATOM     18  C   UNL     1       3.408   5.102  17.717  0.00  0.00    +0.000 A 
ATOM     19  N   UNL     1       3.067   3.985  17.061  0.00  0.00    +0.000 NA
ATOM     20  C   UNL     1       2.504   3.004  17.782  0.00  0.00    +0.000 A 
ATOM     21  C   UNL     1       2.243   3.112  19.149  0.00  0.00    +0.000 A 
ATOM     22  C   UNL     1       1.638   2.111  19.931  0.00  0.00    +0.000 A 
ATOM     23  C   UNL     1       1.408   2.345  21.287  0.00  0.00    +0.000 A 
ATOM     24  C   UNL     1       1.786   3.558  21.849  0.00  0.00    +0.000 A 
ATOM     25  C   UNL     1       2.395   4.531  21.068  0.00  0.00    +0.000 A 
ATOM     26  C   UNL     1       2.628   4.324  19.711  0.00  0.00    +0.000 A 
ATOM     27  N   UNL     1       3.206   5.301  19.024  0.00  0.00    +0.000 NA
ATOM     28  H   UNL     1       4.334   5.611  16.134  0.00  0.00    +0.000 HD
ENDBRANCH  16  17
ENDBRANCH   1  16
TORSDOF 9
ENDMDL
MODEL 6
REMARK VINA RESULT:      -7.4      2.959      3.961
REMARK  Name = 
REMARK  9 active torsions:
REMARK  status: ('A' for Active; 'I' for Inactive)
REMARK    1  A    between atoms: P_2  and  O_3
REMARK    2  A    between atoms: P_2  and  O_4
REMARK    3  A    between atoms: P_2  and  C_5
REMARK    4  A    between atoms: C_5  and  O_6
REMARK    5  A    between atoms: C_5  and  C_7
REMARK    6  A    between atoms: C_5  and  P_19
REMARK    7  A    between atoms: C_7  and  N_8
REMARK    8  A    between atoms: P_19  and  O_21
REMARK    9  A    between atoms: P_19  and  O_22
REMARK                            x       y       z     vdW  Elec       q    Type
REMARK                         _______ _______ _______ _____ _____    ______ ____
ROOT
ATOM      1  C   UNL     1       6.652   6.239  17.120  0.00  0.00    +0.000 C 
ENDROOT
BRANCH   1   3
ATOM      2  O   UNL     1       6.643   3.564  15.056  0.00  0.00    +0.000 OA
ATOM      3  P   UNL     1       6.647   4.790  16.002  0.00  0.00    +0.000 P 
BRANCH   3   4
ATOM      4  O   UNL     1       5.362   5.391  15.176  0.00  0.00    +0.000 OA
ATOM      5  H   UNL     1       5.097   4.707  14.520  0.00  0.00    +0.000 HD
ENDBRANCH   3   4
BRANCH   3   6
ATOM      6  O   UNL     1       5.741   3.939  17.089  0.00  0.00    +0.000 OA
ATOM      7  H   UNL     1       6.263   3.896  17.919  0.00  0.00    +0.000 HD
ENDBRANCH   3   6
ENDBRANCH   1   3
BRANCH   1   8
ATOM      8  O   UNL     1       7.606   7.257  16.675  0.00  0.00    +0.000 OA
ATOM      9  H   UNL     1       7.604   7.227  15.699  0.00  0.00    +0.000 HD
ENDBRANCH   1   8
BRANCH   1  10
ATOM     10  P   UNL     1       7.232   5.728  18.778  0.00  0.00    +0.000 P 
ATOM     11  O   UNL     1       8.091   4.568  18.250  0.00  0.00    +0.000 OA
BRANCH  10  12
ATOM     12  O   UNL     1       8.308   6.977  18.843  0.00  0.00    +0.000 OA
ATOM     13  H   UNL     1       7.859   7.803  19.116  0.00  0.00    +0.000 HD
ENDBRANCH  10  12
BRANCH  10  14
ATOM     14  O   UNL     1       7.781   5.245  20.346  0.00  0.00    +0.000 OA
ATOM     15  H   UNL     1       7.418   5.930  20.944  0.00  0.00    +0.000 HD
ENDBRANCH  10  14
ENDBRANCH   1  10
BRANCH   1  16
ATOM     16  C   UNL     1       5.235   6.857  17.099  0.00  0.00    +0.000 C 
BRANCH  16  17
ATOM     17  N   UNL     1       4.212   6.078  17.813  0.00  0.00    +0.000 N 
ATOM     18  C   UNL     1       3.278   6.835  18.510  0.00  0.00    +0.000 A 
ATOM     19  N   UNL     1       2.881   6.367  19.700  0.00  0.00    +0.000 NA
ATOM     20  C   UNL     1       1.991   7.106  20.379  0.00  0.00    +0.000 A 
ATOM     21  C   UNL     1       1.458   8.300  19.892  0.00  0.00    +0.000 A 
ATOM     22  C   UNL     1       0.511   9.090  20.568  0.00  0.00    +0.000 A 
ATOM     23  C   UNL     1       0.035  10.256  19.968  0.00  0.00    +0.000 A 
ATOM     24  C   UNL     1       0.506  10.626  18.714  0.00  0.00    +0.000 A 
ATOM     25  C   UNL     1       1.451   9.843  18.064  0.00  0.00    +0.000 A 
ATOM     26  C   UNL     1       1.937   8.672  18.641  0.00  0.00    +0.000 A 
ATOM     27  N   UNL     1       2.832   7.969  17.959  0.00  0.00    +0.000 NA
ATOM     28  H   UNL     1       4.614   5.481  18.552  0.00  0.00    +0.000 HD
ENDBRANCH  16  17
ENDBRANCH   1  16
TORSDOF 9
ENDMDL
MODEL 7
REMARK VINA RESULT:      -7.3      3.882      4.870
REMARK  Name = 
REMARK  9 active torsions:
REMARK  status: ('A' for Active; 'I' for Inactive)
REMARK    1  A    between atoms: P_2  and  O_3
REMARK    2  A    between atoms: P_2  and  O_4
REMARK    3  A    between atoms: P_2  and  C_5
REMARK    4  A    between atoms: C_5  and  O_6
REMARK    5  A    between atoms: C_5  and  C_7
REMARK    6  A    between atoms: C_5  and  P_19
REMARK    7  A    between atoms: C_7  and  N_8
REMARK    8  A    between atoms: P_19  and  O_21
REMARK    9  A    between atoms: P_19  and  O_22
REMARK                            x       y       z     vdW  Elec       q    Type
REMARK                         _______ _______ _______ _____ _____    ______ ____
ROOT
ATOM      1  C   UNL     1       4.224   4.558  17.704  0.00  0.00    +0.000 C 
ENDROOT
BRANCH   1   3
ATOM      2  O   UNL     1       3.101   1.432  18.323  0.00  0.00    +0.000 OA
ATOM      3  P   UNL     1       3.616   2.865  18.039  0.00  0.00    +0.000 P 
BRANCH   3   4
ATOM      4  O   UNL     1       2.303   3.114  17.084  0.00  0.00    +0.000 OA
ATOM      5  H   UNL     1       2.113   2.261  16.632  0.00  0.00    +0.000 HD
ENDBRANCH   3   4
BRANCH   3   6
ATOM      6  O   UNL     1       2.891   3.386  19.428  0.00  0.00    +0.000 OA
ATOM      7  H   UNL     1       3.418   4.148  19.753  0.00  0.00    +0.000 HD
ENDBRANCH   3   6
ENDBRANCH   1   3
BRANCH   1   8
ATOM      8  O   UNL     1       4.777   4.672  16.353  0.00  0.00    +0.000 OA
ATOM      9  H   UNL     1       4.015   4.787  15.754  0.00  0.00    +0.000 HD
ENDBRANCH   1   8
BRANCH   1  10
ATOM     10  P   UNL     1       5.617   4.939  18.828  0.00  0.00    +0.000 P 
ATOM     11  O   UNL     1       6.101   6.146  18.009  0.00  0.00    +0.000 OA
BRANCH  10  12
ATOM     12  O   UNL     1       4.605   5.631  19.932  0.00  0.00    +0.000 OA
ATOM     13  H   UNL     1       4.859   6.563  20.094  0.00  0.00    +0.000 HD
ENDBRANCH  10  12
BRANCH  10  14
ATOM     14  O   UNL     1       6.934   5.300  19.890  0.00  0.00    +0.000 OA
ATOM     15  H   UNL     1       6.736   6.203  20.213  0.00  0.00    +0.000 HD
ENDBRANCH  10  14
ENDBRANCH   1  10
BRANCH   1  16
ATOM     16  C   UNL     1       3.023   5.524  17.822  0.00  0.00    +0.000 C 
BRANCH  16  17
ATOM     17  N   UNL     1       3.337   6.934  17.545  0.00  0.00    +0.000 N 
ATOM     18  C   UNL     1       2.539   7.855  18.214  0.00  0.00    +0.000 A 
ATOM     19  N   UNL     1       2.176   8.952  17.536  0.00  0.00    +0.000 NA
ATOM     20  C   UNL     1       1.393   9.832  18.176  0.00  0.00    +0.000 A 
ATOM     21  C   UNL     1       0.974   9.665  19.497  0.00  0.00    +0.000 A 
ATOM     22  C   UNL     1       0.169  10.576  20.204  0.00  0.00    +0.000 A 
ATOM     23  C   UNL     1      -0.167  10.309  21.532  0.00  0.00    +0.000 A 
ATOM     24  C   UNL     1       0.292   9.144  22.136  0.00  0.00    +0.000 A 
ATOM     25  C   UNL     1       1.075   8.248  21.421  0.00  0.00    +0.000 A 
ATOM     26  C   UNL     1       1.428   8.496  20.097  0.00  0.00    +0.000 A 
ATOM     27  N   UNL     1       2.186   7.599  19.478  0.00  0.00    +0.000 NA
ATOM     28  H   UNL     1       3.189   7.185  16.556  0.00  0.00    +0.000 HD
ENDBRANCH  16  17
ENDBRANCH   1  16
TORSDOF 9
ENDMDL
MODEL 8
REMARK VINA RESULT:      -7.3      4.736      5.835
REMARK  Name = 
REMARK  9 active torsions:
REMARK  status: ('A' for Active; 'I' for Inactive)
REMARK    1  A    between atoms: P_2  and  O_3
REMARK    2  A    between atoms: P_2  and  O_4
REMARK    3  A    between atoms: P_2  and  C_5
REMARK    4  A    between atoms: C_5  and  O_6
REMARK    5  A    between atoms: C_5  and  C_7
REMARK    6  A    between atoms: C_5  and  P_19
REMARK    7  A    between atoms: C_7  and  N_8
REMARK    8  A    between atoms: P_19  and  O_21
REMARK    9  A    between atoms: P_19  and  O_22
REMARK                            x       y       z     vdW  Elec       q    Type
REMARK                         _______ _______ _______ _____ _____    ______ ____
ROOT
ATOM      1  C   UNL     1       3.128   3.793  18.828  0.00  0.00    +0.000 C 
ENDROOT
BRANCH   1   3
ATOM      2  O   UNL     1       0.108   2.333  18.424  0.00  0.00    +0.000 OA
ATOM      3  P   UNL     1       1.492   3.002  18.610  0.00  0.00    +0.000 P 
BRANCH   3   4
ATOM      4  O   UNL     1       1.084   4.093  17.452  0.00  0.00    +0.000 OA
ATOM      5  H   UNL     1       0.723   3.583  16.692  0.00  0.00    +0.000 HD
ENDBRANCH   3   4
BRANCH   3   6
ATOM      6  O   UNL     1       0.884   3.884  19.866  0.00  0.00    +0.000 OA
ATOM      7  H   UNL     1      -0.060   3.629  19.959  0.00  0.00    +0.000 HD
ENDBRANCH   3   6
ENDBRANCH   1   3
BRANCH   1   8
ATOM      8  O   UNL     1       3.762   4.080  17.540  0.00  0.00    +0.000 OA
ATOM      9  H   UNL     1       3.350   3.479  16.891  0.00  0.00    +0.000 HD
ENDBRANCH   1   8
BRANCH   1  10
ATOM     10  P   UNL     1       4.260   2.629  19.672  0.00  0.00    +0.000 P 
ATOM     11  O   UNL     1       3.913   1.444  18.758  0.00  0.00    +0.000 OA
BRANCH  10  12
ATOM     12  O   UNL     1       5.576   3.289  18.929  0.00  0.00    +0.000 OA
ATOM     13  H   UNL     1       5.338   4.135  18.496  0.00  0.00    +0.000 HD
ENDBRANCH  10  12
BRANCH  10  14
ATOM     14  O   UNL     1       5.330   1.529  20.470  0.00  0.00    +0.000 OA
ATOM     15  H   UNL     1       4.948   1.436  21.367  0.00  0.00    +0.000 HD
ENDBRANCH  10  14
ENDBRANCH   1  10
BRANCH   1  16
ATOM     16  C   UNL     1       2.911   5.130  19.574  0.00  0.00    +0.000 C 
BRANCH  16  17
ATOM     17  N   UNL     1       3.268   6.330  18.804  0.00  0.00    +0.000 N 
ATOM     18  C   UNL     1       2.434   7.425  19.002  0.00  0.00    +0.000 A 
ATOM     19  N   UNL     1       2.144   8.172  17.930  0.00  0.00    +0.000 NA
ATOM     20  C   UNL     1       1.327   9.218  18.120  0.00  0.00    +0.000 A 
ATOM     21  C   UNL     1       0.803   9.563  19.366  0.00  0.00    +0.000 A 
ATOM     22  C   UNL     1      -0.042  10.663  19.604  0.00  0.00    +0.000 A 
ATOM     23  C   UNL     1      -0.485  10.920  20.901  0.00  0.00    +0.000 A 
ATOM     24  C   UNL     1      -0.095  10.083  21.940  0.00  0.00    +0.000 A 
ATOM     25  C   UNL     1       0.728   8.994  21.688  0.00  0.00    +0.000 A 
ATOM     26  C   UNL     1       1.189   8.721  20.402  0.00  0.00    +0.000 A 
ATOM     27  N   UNL     1       1.979   7.668  20.236  0.00  0.00    +0.000 NA
ATOM     28  H   UNL     1       3.203   6.181  17.785  0.00  0.00    +0.000 HD
ENDBRANCH  16  17
ENDBRANCH   1  16
TORSDOF 9
ENDMDL
MODEL 9
REMARK VINA RESULT:      -7.3      3.131      4.831
REMARK  Name = 
REMARK  9 active torsions:
REMARK  status: ('A' for Active; 'I' for Inactive)
REMARK    1  A    between atoms: P_2  and  O_3
REMARK    2  A    between atoms: P_2  and  O_4
REMARK    3  A    between atoms: P_2  and  C_5
REMARK    4  A    between atoms: C_5  and  O_6
REMARK    5  A    between atoms: C_5  and  C_7
REMARK    6  A    between atoms: C_5  and  P_19
REMARK    7  A    between atoms: C_7  and  N_8
REMARK    8  A    between atoms: P_19  and  O_21
REMARK    9  A    between atoms: P_19  and  O_22
REMARK                            x       y       z     vdW  Elec       q    Type
REMARK                         _______ _______ _______ _____ _____    ______ ____
ROOT
ATOM      1  C   UNL     1       5.568   5.064  17.072  0.00  0.00    +0.000 C 
ENDROOT
BRANCH   1   3
ATOM      2  O   UNL     1       8.099   6.220  18.989  0.00  0.00    +0.000 OA
ATOM      3  P   UNL     1       6.939   5.690  18.110  0.00  0.00    +0.000 P 
BRANCH   3   4
ATOM      4  O   UNL     1       7.655   4.213  18.112  0.00  0.00    +0.000 OA
ATOM      5  H   UNL     1       7.697   3.916  19.048  0.00  0.00    +0.000 HD
ENDBRANCH   3   4
BRANCH   3   6
ATOM      6  O   UNL     1       6.045   5.425  19.473  0.00  0.00    +0.000 OA
ATOM      7  H   UNL     1       6.175   4.483  19.717  0.00  0.00    +0.000 HD
ENDBRANCH   3   6
ENDBRANCH   1   3
BRANCH   1   8
ATOM      8  O   UNL     1       5.117   3.744  17.517  0.00  0.00    +0.000 OA
ATOM      9  H   UNL     1       5.005   3.805  18.485  0.00  0.00    +0.000 HD
ENDBRANCH   1   8
BRANCH   1  10
ATOM     10  P   UNL     1       6.163   4.817  15.360  0.00  0.00    +0.000 P 
ATOM     11  O   UNL     1       7.555   5.409  15.633  0.00  0.00    +0.000 OA
BRANCH  10  12
ATOM     12  O   UNL     1       6.397   3.204  15.618  0.00  0.00    +0.000 OA
ATOM     13  H   UNL     1       5.652   2.686  15.248  0.00  0.00    +0.000 HD
ENDBRANCH  10  12
BRANCH  10  14
ATOM     14  O   UNL     1       6.727   4.583  13.741  0.00  0.00    +0.000 OA
ATOM     15  H   UNL     1       5.966   4.849  13.186  0.00  0.00    +0.000 HD
ENDBRANCH  10  14
ENDBRANCH   1  10
BRANCH   1  16
ATOM     16  C   UNL     1       4.386   6.053  17.203  0.00  0.00    +0.000 C 
BRANCH  16  17
ATOM     17  N   UNL     1       3.294   5.596  18.075  0.00  0.00    +0.000 N 
ATOM     18  C   UNL     1       2.635   6.606  18.768  0.00  0.00    +0.000 A 
ATOM     19  N   UNL     1       2.270   6.340  20.028  0.00  0.00    +0.000 NA
ATOM     20  C   UNL     1       1.649   7.321  20.701  0.00  0.00    +0.000 A 
ATOM     21  C   UNL     1       1.353   8.564  20.141  0.00  0.00    +0.000 A 
ATOM     22  C   UNL     1       0.687   9.607  20.811  0.00  0.00    +0.000 A 
ATOM     23  C   UNL     1       0.428  10.801  20.137  0.00  0.00    +0.000 A 
ATOM     24  C   UNL     1       0.837  10.948  18.817  0.00  0.00    +0.000 A 
ATOM     25  C   UNL     1       1.505   9.915  18.173  0.00  0.00    +0.000 A 
ATOM     26  C   UNL     1       1.769   8.712  18.823  0.00  0.00    +0.000 A 
ATOM     27  N   UNL     1       2.404   7.766  18.143  0.00  0.00    +0.000 NA
ATOM     28  H   UNL     1       3.625   4.982  18.835  0.00  0.00    +0.000 HD
ENDBRANCH  16  17
ENDBRANCH   1  16
TORSDOF 9
ENDMDL
