MODEL 1
REMARK VINA RESULT:      -7.8      0.000      0.000
REMARK  Name = 
REMARK  8 active torsions:
REMARK  status: ('A' for Active; 'I' for Inactive)
REMARK    1  A    between atoms: C_1  and  C_2
REMARK    2  A    between atoms: C_2  and  O_3
REMARK    3  A    between atoms: O_3  and  C_4
REMARK    4  A    between atoms: C_5  and  C_6
REMARK    5  A    between atoms: C_9  and  O_10
REMARK    6  A    between atoms: C_11  and  O_12
REMARK    7  A    between atoms: C_17  and  O_18
REMARK    8  A    between atoms: C_20  and  O_21
REMARK                            x       y       z     vdW  Elec       q    Type
REMARK                         _______ _______ _______ _____ _____    ______ ____
ROOT
ATOM      1  C   UNL     1       5.824   5.352  16.997  0.00  0.00    +0.000 A 
ATOM      2  C   UNL     1       4.825   4.475  16.743  0.00  0.00    +0.000 A 
ATOM      3  O   UNL     1       4.698   3.736  15.582  0.00  0.00    +0.000 OA
ATOM      4  C   UNL     1       5.564   3.950  14.550  0.00  0.00    +0.000 A 
ATOM      5  C   UNL     1       5.302   3.219  13.387  0.00  0.00    +0.000 A 
ATOM      6  C   UNL     1       6.117   3.391  12.279  0.00  0.00    +0.000 A 
ATOM      7  C   UNL     1       7.185   4.277  12.319  0.00  0.00    +0.000 A 
ATOM      8  C   UNL     1       7.444   5.001  13.490  0.00  0.00    +0.000 A 
ATOM      9  C   UNL     1       6.632   4.839  14.623  0.00  0.00    +0.000 A 
ATOM     10  C   UNL     1       6.842   5.557  15.902  0.00  0.00    +0.000 A 
ATOM     11  O   UNL     1       7.803   6.294  16.087  0.00  0.00    +0.000 OA
ENDROOT
BRANCH   2  12
ATOM     12  C   UNL     1       3.683   4.187  17.622  0.00  0.00    +0.000 A 
ATOM     13  C   UNL     1       2.953   5.242  18.197  0.00  0.00    +0.000 A 
ATOM     14  C   UNL     1       1.828   4.980  18.986  0.00  0.00    +0.000 A 
ATOM     15  C   UNL     1       1.440   3.663  19.192  0.00  0.00    +0.000 A 
ATOM     16  C   UNL     1       2.164   2.616  18.625  0.00  0.00    +0.000 A 
ATOM     17  C   UNL     1       3.272   2.865  17.831  0.00  0.00    +0.000 A 
BRANCH  15  18
ATOM     18  O   UNL     1       0.343   3.342  19.942  0.00  0.00    +0.000 OA
ATOM     19  H   UNL     1       0.615   2.692  20.612  0.00  0.00    +0.000 HD
ENDBRANCH  15  18
BRANCH  16  20
ATOM     20  O   UNL     1       1.779   1.324  18.842  0.00  0.00    +0.000 OA
ATOM     21  H   UNL     1       2.564   0.896  19.242  0.00  0.00    +0.000 HD
ENDBRANCH  16  20
ENDBRANCH   2  12
BRANCH   6  22
ATOM     22  O   UNL     1       5.895   2.710  11.120  0.00  0.00    +0.000 OA
ATOM     23  H   UNL     1       5.979   3.322  10.367  0.00  0.00    +0.000 HD
ENDBRANCH   6  22
BRANCH   8  24
ATOM     24  O   UNL     1       8.496   5.872  13.493  0.00  0.00    +0.000 OA
ATOM     25  H   UNL     1       8.218   6.736  13.830  0.00  0.00    +0.000 HD
ENDBRANCH   8  24
BRANCH   1  26
ATOM     26  O   UNL     1       6.058   6.105  18.130  0.00  0.00    +0.000 OA
BRANCH  26  28
ATOM     27  C   UNL     1       7.996   5.778  19.502  0.00  0.00    +0.000 C 
ATOM     28  C   UNL     1       6.517   5.486  19.325  0.00  0.00    +0.000 C 
ENDBRANCH  26  28
ENDBRANCH   1  26
TORSDOF 7
ENDMDL
MODEL 2
REMARK VINA RESULT:      -7.4      0.728      1.372
REMARK  Name = 
REMARK  8 active torsions:
REMARK  status: ('A' for Active; 'I' for Inactive)
REMARK    1  A    between atoms: C_1  and  C_2
REMARK    2  A    between atoms: C_2  and  O_3
REMARK    3  A    between atoms: O_3  and  C_4
REMARK    4  A    between atoms: C_5  and  C_6
REMARK    5  A    between atoms: C_9  and  O_10
REMARK    6  A    between atoms: C_11  and  O_12
REMARK    7  A    between atoms: C_17  and  O_18
REMARK    8  A    between atoms: C_20  and  O_21
REMARK                            x       y       z     vdW  Elec       q    Type
REMARK                         _______ _______ _______ _____ _____    ______ ____
ROOT
ATOM      1  C   UNL     1       5.766   5.419  17.081  0.00  0.00    +0.000 A 
ATOM      2  C   UNL     1       4.722   4.596  16.827  0.00  0.00    +0.000 A 
ATOM      3  O   UNL     1       4.556   3.866  15.665  0.00  0.00    +0.000 OA
ATOM      4  C   UNL     1       5.432   4.034  14.634  0.00  0.00    +0.000 A 
ATOM      5  C   UNL     1       5.132   3.319  13.470  0.00  0.00    +0.000 A 
ATOM      6  C   UNL     1       5.955   3.448  12.362  0.00  0.00    +0.000 A 
ATOM      7  C   UNL     1       7.069   4.277  12.403  0.00  0.00    +0.000 A 
ATOM      8  C   UNL     1       7.365   4.985  13.574  0.00  0.00    +0.000 A 
ATOM      9  C   UNL     1       6.546   4.866  14.707  0.00  0.00    +0.000 A 
ATOM     10  C   UNL     1       6.793   5.570  15.986  0.00  0.00    +0.000 A 
ATOM     11  O   UNL     1       7.792   6.256  16.172  0.00  0.00    +0.000 OA
ENDROOT
BRANCH   2  12
ATOM     12  C   UNL     1       3.566   4.369  17.706  0.00  0.00    +0.000 A 
ATOM     13  C   UNL     1       2.688   3.300  17.452  0.00  0.00    +0.000 A 
ATOM     14  C   UNL     1       1.620   3.039  18.316  0.00  0.00    +0.000 A 
ATOM     15  C   UNL     1       1.439   3.848  19.430  0.00  0.00    +0.000 A 
ATOM     16  C   UNL     1       2.307   4.909  19.682  0.00  0.00    +0.000 A 
ATOM     17  C   UNL     1       3.376   5.168  18.839  0.00  0.00    +0.000 A 
BRANCH  15  18
ATOM     18  O   UNL     1       0.422   3.636  20.319  0.00  0.00    +0.000 OA
ATOM     19  H   UNL     1       0.243   2.681  20.353  0.00  0.00    +0.000 HD
ENDBRANCH  15  18
BRANCH  16  20
ATOM     20  O   UNL     1       2.114   5.704  20.775  0.00  0.00    +0.000 OA
ATOM     21  H   UNL     1       3.016   5.907  21.095  0.00  0.00    +0.000 HD
ENDBRANCH  16  20
ENDBRANCH   2  12
BRANCH   6  22
ATOM     22  O   UNL     1       5.698   2.780  11.203  0.00  0.00    +0.000 OA
ATOM     23  H   UNL     1       5.191   1.973  11.404  0.00  0.00    +0.000 HD
ENDBRANCH   6  22
BRANCH   8  24
ATOM     24  O   UNL     1       8.461   5.800  13.578  0.00  0.00    +0.000 OA
ATOM     25  H   UNL     1       8.680   6.078  12.677  0.00  0.00    +0.000 HD
ENDBRANCH   8  24
BRANCH   1  26
ATOM     26  O   UNL     1       6.039   6.158  18.215  0.00  0.00    +0.000 OA
BRANCH  26  28
ATOM     27  C   UNL     1       8.074   5.849  19.442  0.00  0.00    +0.000 C 
ATOM     28  C   UNL     1       6.591   5.534  19.366  0.00  0.00    +0.000 C 
ENDBRANCH  26  28
ENDBRANCH   1  26
TORSDOF 7
ENDMDL
MODEL 3
REMARK VINA RESULT:      -7.2      4.184      7.712
REMARK  Name = 
REMARK  8 active torsions:
REMARK  status: ('A' for Active; 'I' for Inactive)
REMARK    1  A    between atoms: C_1  and  C_2
REMARK    2  A    between atoms: C_2  and  O_3
REMARK    3  A    between atoms: O_3  and  C_4
REMARK    4  A    between atoms: C_5  and  C_6
REMARK    5  A    between atoms: C_9  and  O_10
REMARK    6  A    between atoms: C_11  and  O_12
REMARK    7  A    between atoms: C_17  and  O_18
REMARK    8  A    between atoms: C_20  and  O_21
REMARK                            x       y       z     vdW  Elec       q    Type
REMARK                         _______ _______ _______ _____ _____    ______ ____
ROOT
ATOM      1  C   UNL     1       2.538   7.544  18.369  0.00  0.00    +0.000 A 
ATOM      2  C   UNL     1       2.465   6.767  19.475  0.00  0.00    +0.000 A 
ATOM      3  O   UNL     1       1.804   7.111  20.640  0.00  0.00    +0.000 OA
ATOM      4  C   UNL     1       1.260   8.355  20.762  0.00  0.00    +0.000 A 
ATOM      5  C   UNL     1       0.691   8.640  22.008  0.00  0.00    +0.000 A 
ATOM      6  C   UNL     1       0.135   9.890  22.230  0.00  0.00    +0.000 A 
ATOM      7  C   UNL     1       0.139  10.853  21.230  0.00  0.00    +0.000 A 
ATOM      8  C   UNL     1       0.705  10.558  19.984  0.00  0.00    +0.000 A 
ATOM      9  C   UNL     1       1.271   9.297  19.738  0.00  0.00    +0.000 A 
ATOM     10  C   UNL     1       1.881   8.900  18.447  0.00  0.00    +0.000 A 
ATOM     11  O   UNL     1       1.862   9.630  17.464  0.00  0.00    +0.000 OA
ENDROOT
BRANCH   2  12
ATOM     12  C   UNL     1       3.104   5.456  19.655  0.00  0.00    +0.000 A 
ATOM     13  C   UNL     1       2.407   4.415  20.292  0.00  0.00    +0.000 A 
ATOM     14  C   UNL     1       2.984   3.146  20.415  0.00  0.00    +0.000 A 
ATOM     15  C   UNL     1       4.253   2.929  19.898  0.00  0.00    +0.000 A 
ATOM     16  C   UNL     1       4.947   3.961  19.268  0.00  0.00    +0.000 A 
ATOM     17  C   UNL     1       4.379   5.218  19.130  0.00  0.00    +0.000 A 
BRANCH  15  18
ATOM     18  O   UNL     1       4.866   1.709  19.974  0.00  0.00    +0.000 OA
ATOM     19  H   UNL     1       4.317   1.064  19.496  0.00  0.00    +0.000 HD
ENDBRANCH  15  18
BRANCH  16  20
ATOM     20  O   UNL     1       6.199   3.739  18.772  0.00  0.00    +0.000 OA
ATOM     21  H   UNL     1       6.393   2.807  18.998  0.00  0.00    +0.000 HD
ENDBRANCH  16  20
ENDBRANCH   2  12
BRANCH   6  22
ATOM     22  O   UNL     1      -0.421  10.218  23.430  0.00  0.00    +0.000 OA
ATOM     23  H   UNL     1      -1.391  10.245  23.337  0.00  0.00    +0.000 HD
ENDBRANCH   6  22
BRANCH   8  24
ATOM     24  O   UNL     1       0.703  11.530  19.025  0.00  0.00    +0.000 OA
ATOM     25  H   UNL     1       0.167  12.284  19.309  0.00  0.00    +0.000 HD
ENDBRANCH   8  24
BRANCH   1  26
ATOM     26  O   UNL     1       3.137   7.278  17.154  0.00  0.00    +0.000 OA
BRANCH  26  28
ATOM     27  C   UNL     1       5.046   6.537  15.910  0.00  0.00    +0.000 C 
ATOM     28  C   UNL     1       4.531   7.488  16.975  0.00  0.00    +0.000 C 
ENDBRANCH  26  28
ENDBRANCH   1  26
TORSDOF 7
ENDMDL
MODEL 4
REMARK VINA RESULT:      -7.2      3.082      5.209
REMARK  Name = 
REMARK  8 active torsions:
REMARK  status: ('A' for Active; 'I' for Inactive)
REMARK    1  A    between atoms: C_1  and  C_2
REMARK    2  A    between atoms: C_2  and  O_3
REMARK    3  A    between atoms: O_3  and  C_4
REMARK    4  A    between atoms: C_5  and  C_6
REMARK    5  A    between atoms: C_9  and  O_10
REMARK    6  A    between atoms: C_11  and  O_12
REMARK    7  A    between atoms: C_17  and  O_18
REMARK    8  A    between atoms: C_20  and  O_21
REMARK                            x       y       z     vdW  Elec       q    Type
REMARK                         _______ _______ _______ _____ _____    ______ ____
ROOT
ATOM      1  C   UNL     1       2.313   5.153  18.481  0.00  0.00    +0.000 A 
ATOM      2  C   UNL     1       2.718   6.421  18.234  0.00  0.00    +0.000 A 
ATOM      3  O   UNL     1       3.782   6.766  17.421  0.00  0.00    +0.000 OA
ATOM      4  C   UNL     1       4.569   5.786  16.891  0.00  0.00    +0.000 A 
ATOM      5  C   UNL     1       5.671   6.235  16.155  0.00  0.00    +0.000 A 
ATOM      6  C   UNL     1       6.539   5.309  15.600  0.00  0.00    +0.000 A 
ATOM      7  C   UNL     1       6.322   3.948  15.767  0.00  0.00    +0.000 A 
ATOM      8  C   UNL     1       5.213   3.507  16.500  0.00  0.00    +0.000 A 
ATOM      9  C   UNL     1       4.320   4.429  17.068  0.00  0.00    +0.000 A 
ATOM     10  C   UNL     1       3.120   4.047  17.848  0.00  0.00    +0.000 A 
ATOM     11  O   UNL     1       2.774   2.880  17.985  0.00  0.00    +0.000 OA
ENDROOT
BRANCH   2  12
ATOM     12  C   UNL     1       2.142   7.642  18.813  0.00  0.00    +0.000 A 
ATOM     13  C   UNL     1       1.759   8.705  17.977  0.00  0.00    +0.000 A 
ATOM     14  C   UNL     1       1.155   9.847  18.513  0.00  0.00    +0.000 A 
ATOM     15  C   UNL     1       0.936   9.916  19.882  0.00  0.00    +0.000 A 
ATOM     16  C   UNL     1       1.316   8.864  20.713  0.00  0.00    +0.000 A 
ATOM     17  C   UNL     1       1.904   7.722  20.191  0.00  0.00    +0.000 A 
BRANCH  15  18
ATOM     18  O   UNL     1       0.337  10.999  20.465  0.00  0.00    +0.000 OA
ATOM     19  H   UNL     1      -0.146  10.691  21.251  0.00  0.00    +0.000 HD
ENDBRANCH  15  18
BRANCH  16  20
ATOM     20  O   UNL     1       1.105   8.946  22.059  0.00  0.00    +0.000 OA
ATOM     21  H   UNL     1       0.958   9.898  22.229  0.00  0.00    +0.000 HD
ENDBRANCH  16  20
ENDBRANCH   2  12
BRANCH   6  22
ATOM     22  O   UNL     1       7.631   5.698  14.885  0.00  0.00    +0.000 OA
ATOM     23  H   UNL     1       8.430   5.586  15.431  0.00  0.00    +0.000 HD
ENDBRANCH   6  22
BRANCH   8  24
ATOM     24  O   UNL     1       5.033   2.162  16.655  0.00  0.00    +0.000 OA
ATOM     25  H   UNL     1       5.149   1.909  17.582  0.00  0.00    +0.000 HD
ENDBRANCH   8  24
BRANCH   1  26
ATOM     26  O   UNL     1       1.250   4.710  19.242  0.00  0.00    +0.000 OA
BRANCH  26  28
ATOM     27  C   UNL     1       1.133   3.003  20.920  0.00  0.00    +0.000 C 
ATOM     28  C   UNL     1       1.409   4.468  20.633  0.00  0.00    +0.000 C 
ENDBRANCH  26  28
ENDBRANCH   1  26
TORSDOF 7
ENDMDL
MODEL 5
REMARK VINA RESULT:      -7.1      3.136      5.349
REMARK  Name = 
REMARK  8 active torsions:
REMARK  status: ('A' for Active; 'I' for Inactive)
REMARK    1  A    between atoms: C_1  and  C_2
REMARK    2  A    between atoms: C_2  and  O_3
REMARK    3  A    between atoms: O_3  and  C_4
REMARK    4  A    between atoms: C_5  and  C_6
REMARK    5  A    between atoms: C_9  and  O_10
REMARK    6  A    between atoms: C_11  and  O_12
REMARK    7  A    between atoms: C_17  and  O_18
REMARK    8  A    between atoms: C_20  and  O_21
REMARK                            x       y       z     vdW  Elec       q    Type
REMARK                         _______ _______ _______ _____ _____    ______ ____
ROOT
ATOM      1  C   UNL     1       2.249   5.073  18.426  0.00  0.00    +0.000 A 
ATOM      2  C   UNL     1       2.665   6.350  18.260  0.00  0.00    +0.000 A 
ATOM      3  O   UNL     1       3.763   6.733  17.512  0.00  0.00    +0.000 OA
ATOM      4  C   UNL     1       4.571   5.779  16.967  0.00  0.00    +0.000 A 
ATOM      5  C   UNL     1       5.704   6.262  16.303  0.00  0.00    +0.000 A 
ATOM      6  C   UNL     1       6.594   5.363  15.738  0.00  0.00    +0.000 A 
ATOM      7  C   UNL     1       6.369   3.996  15.827  0.00  0.00    +0.000 A 
ATOM      8  C   UNL     1       5.230   3.521  16.489  0.00  0.00    +0.000 A 
ATOM      9  C   UNL     1       4.314   4.415  17.065  0.00  0.00    +0.000 A 
ATOM     10  C   UNL     1       3.082   3.998  17.772  0.00  0.00    +0.000 A 
ATOM     11  O   UNL     1       2.729   2.826  17.836  0.00  0.00    +0.000 OA
ENDROOT
BRANCH   2  12
ATOM     12  C   UNL     1       2.065   7.543  18.875  0.00  0.00    +0.000 A 
ATOM     13  C   UNL     1       1.860   7.590  20.265  0.00  0.00    +0.000 A 
ATOM     14  C   UNL     1       1.345   8.743  20.867  0.00  0.00    +0.000 A 
ATOM     15  C   UNL     1       1.041   9.841  20.074  0.00  0.00    +0.000 A 
ATOM     16  C   UNL     1       1.242   9.795  18.696  0.00  0.00    +0.000 A 
ATOM     17  C   UNL     1       1.764   8.662  18.091  0.00  0.00    +0.000 A 
BRANCH  15  18
ATOM     18  O   UNL     1       0.548  11.001  20.604  0.00  0.00    +0.000 OA
ATOM     19  H   UNL     1       1.291  11.502  20.981  0.00  0.00    +0.000 HD
ENDBRANCH  15  18
BRANCH  16  20
ATOM     20  O   UNL     1       0.931  10.877  17.924  0.00  0.00    +0.000 OA
ATOM     21  H   UNL     1       1.005  10.554  17.003  0.00  0.00    +0.000 HD
ENDBRANCH  16  20
ENDBRANCH   2  12
BRANCH   6  22
ATOM     22  O   UNL     1       7.716   5.785  15.091  0.00  0.00    +0.000 OA
ATOM     23  H   UNL     1       8.317   5.028  14.964  0.00  0.00    +0.000 HD
ENDBRANCH   6  22
BRANCH   8  24
ATOM     24  O   UNL     1       5.043   2.170  16.568  0.00  0.00    +0.000 OA
ATOM     25  H   UNL     1       5.890   1.706  16.503  0.00  0.00    +0.000 HD
ENDBRANCH   8  24
BRANCH   1  26
ATOM     26  O   UNL     1       1.154   4.595  19.117  0.00  0.00    +0.000 OA
BRANCH  26  28
ATOM     27  C   UNL     1       1.175   2.900  20.811  0.00  0.00    +0.000 C 
ATOM     28  C   UNL     1       1.221   4.389  20.521  0.00  0.00    +0.000 C 
ENDBRANCH  26  28
ENDBRANCH   1  26
TORSDOF 7
ENDMDL
MODEL 6
REMARK VINA RESULT:      -7.1      3.677      7.280
REMARK  Name = 
REMARK  8 active torsions:
REMARK  status: ('A' for Active; 'I' for Inactive)
REMARK    1  A    between atoms: C_1  and  C_2
REMARK    2  A    between atoms: C_2  and  O_3
REMARK    3  A    between atoms: O_3  and  C_4
REMARK    4  A    between atoms: C_5  and  C_6
REMARK    5  A    between atoms: C_9  and  O_10
REMARK    6  A    between atoms: C_11  and  O_12
REMARK    7  A    between atoms: C_17  and  O_18
REMARK    8  A    between atoms: C_20  and  O_21
REMARK                            x       y       z     vdW  Elec       q    Type
REMARK                         _______ _______ _______ _____ _____    ______ ____
ROOT
ATOM      1  C   UNL     1       2.707   7.222  18.037  0.00  0.00    +0.000 A 
ATOM      2  C   UNL     1       2.316   6.235  18.877  0.00  0.00    +0.000 A 
ATOM      3  O   UNL     1       1.535   6.420  20.002  0.00  0.00    +0.000 OA
ATOM      4  C   UNL     1       1.196   7.683  20.387  0.00  0.00    +0.000 A 
ATOM      5  C   UNL     1       0.479   7.774  21.584  0.00  0.00    +0.000 A 
ATOM      6  C   UNL     1       0.113   9.021  22.064  0.00  0.00    +0.000 A 
ATOM      7  C   UNL     1       0.449  10.173  21.366  0.00  0.00    +0.000 A 
ATOM      8  C   UNL     1       1.162  10.074  20.164  0.00  0.00    +0.000 A 
ATOM      9  C   UNL     1       1.540   8.819  19.660  0.00  0.00    +0.000 A 
ATOM     10  C   UNL     1       2.285   8.625  18.395  0.00  0.00    +0.000 A 
ATOM     11  O   UNL     1       2.557   9.557  17.647  0.00  0.00    +0.000 OA
ENDROOT
BRANCH   2  12
ATOM     12  C   UNL     1       2.684   4.816  18.776  0.00  0.00    +0.000 A 
ATOM     13  C   UNL     1       1.982   3.967  17.904  0.00  0.00    +0.000 A 
ATOM     14  C   UNL     1       2.363   2.629  17.756  0.00  0.00    +0.000 A 
ATOM     15  C   UNL     1       3.447   2.152  18.481  0.00  0.00    +0.000 A 
ATOM     16  C   UNL     1       4.143   2.991  19.348  0.00  0.00    +0.000 A 
ATOM     17  C   UNL     1       3.782   4.322  19.492  0.00  0.00    +0.000 A 
BRANCH  15  18
ATOM     18  O   UNL     1       3.877   0.858  18.371  0.00  0.00    +0.000 OA
ATOM     19  H   UNL     1       4.629   0.841  17.755  0.00  0.00    +0.000 HD
ENDBRANCH  15  18
BRANCH  16  20
ATOM     20  O   UNL     1       5.201   2.509  20.063  0.00  0.00    +0.000 OA
ATOM     21  H   UNL     1       5.290   1.578  19.777  0.00  0.00    +0.000 HD
ENDBRANCH  16  20
ENDBRANCH   2  12
BRANCH   6  22
ATOM     22  O   UNL     1      -0.576   9.160  23.231  0.00  0.00    +0.000 OA
ATOM     23  H   UNL     1      -1.523   9.002  23.065  0.00  0.00    +0.000 HD
ENDBRANCH   6  22
BRANCH   8  24
ATOM     24  O   UNL     1       1.487  11.226  19.507  0.00  0.00    +0.000 OA
ATOM     25  H   UNL     1       2.295  11.610  19.877  0.00  0.00    +0.000 HD
ENDBRANCH   8  24
BRANCH   1  26
ATOM     26  O   UNL     1       3.450   7.136  16.877  0.00  0.00    +0.000 OA
BRANCH  26  28
ATOM     27  C   UNL     1       5.201   5.788  15.948  0.00  0.00    +0.000 C 
ATOM     28  C   UNL     1       4.849   6.889  16.932  0.00  0.00    +0.000 C 
ENDBRANCH  26  28
ENDBRANCH   1  26
TORSDOF 7
ENDMDL
MODEL 7
REMARK VINA RESULT:      -7.1      3.823      7.383
REMARK  Name = 
REMARK  8 active torsions:
REMARK  status: ('A' for Active; 'I' for Inactive)
REMARK    1  A    between atoms: C_1  and  C_2
REMARK    2  A    between atoms: C_2  and  O_3
REMARK    3  A    between atoms: O_3  and  C_4
REMARK    4  A    between atoms: C_5  and  C_6
REMARK    5  A    between atoms: C_9  and  O_10
REMARK    6  A    between atoms: C_11  and  O_12
REMARK    7  A    between atoms: C_17  and  O_18
REMARK    8  A    between atoms: C_20  and  O_21
REMARK                            x       y       z     vdW  Elec       q    Type
REMARK                         _______ _______ _______ _____ _____    ______ ____
ROOT
ATOM      1  C   UNL     1       2.685   7.483  18.087  0.00  0.00    +0.000 A 
ATOM      2  C   UNL     1       2.477   6.527  19.022  0.00  0.00    +0.000 A 
ATOM      3  O   UNL     1       1.750   6.704  20.185  0.00  0.00    +0.000 OA
ATOM      4  C   UNL     1       1.276   7.943  20.500  0.00  0.00    +0.000 A 
ATOM      5  C   UNL     1       0.630   8.041  21.737  0.00  0.00    +0.000 A 
ATOM      6  C   UNL     1       0.137   9.268  22.150  0.00  0.00    +0.000 A 
ATOM      7  C   UNL     1       0.278  10.392  21.347  0.00  0.00    +0.000 A 
ATOM      8  C   UNL     1       0.921  10.285  20.108  0.00  0.00    +0.000 A 
ATOM      9  C   UNL     1       1.425   9.050  19.670  0.00  0.00    +0.000 A 
ATOM     10  C   UNL     1       2.108   8.847  18.371  0.00  0.00    +0.000 A 
ATOM     11  O   UNL     1       2.211   9.742  17.541  0.00  0.00    +0.000 OA
ENDROOT
BRANCH   2  12
ATOM     12  C   UNL     1       3.018   5.161  18.999  0.00  0.00    +0.000 A 
ATOM     13  C   UNL     1       4.322   4.912  19.461  0.00  0.00    +0.000 A 
ATOM     14  C   UNL     1       4.824   3.606  19.498  0.00  0.00    +0.000 A 
ATOM     15  C   UNL     1       4.017   2.560  19.074  0.00  0.00    +0.000 A 
ATOM     16  C   UNL     1       2.725   2.805  18.613  0.00  0.00    +0.000 A 
ATOM     17  C   UNL     1       2.213   4.093  18.584  0.00  0.00    +0.000 A 
BRANCH  15  18
ATOM     18  O   UNL     1       4.445   1.261  19.098  0.00  0.00    +0.000 OA
ATOM     19  H   UNL     1       4.030   0.820  19.859  0.00  0.00    +0.000 HD
ENDBRANCH  15  18
BRANCH  16  20
ATOM     20  O   UNL     1       1.943   1.769  18.189  0.00  0.00    +0.000 OA
ATOM     21  H   UNL     1       1.316   1.616  18.924  0.00  0.00    +0.000 HD
ENDBRANCH  16  20
ENDBRANCH   2  12
BRANCH   6  22
ATOM     22  O   UNL     1      -0.490   9.415  23.350  0.00  0.00    +0.000 OA
ATOM     23  H   UNL     1      -0.002   8.916  24.030  0.00  0.00    +0.000 HD
ENDBRANCH   6  22
BRANCH   8  24
ATOM     24  O   UNL     1       1.054  11.411  19.347  0.00  0.00    +0.000 OA
ATOM     25  H   UNL     1       1.151  11.179  18.412  0.00  0.00    +0.000 HD
ENDBRANCH   8  24
BRANCH   1  26
ATOM     26  O   UNL     1       3.359   7.395  16.885  0.00  0.00    +0.000 OA
BRANCH  26  28
ATOM     27  C   UNL     1       5.145   6.084  15.974  0.00  0.00    +0.000 C 
ATOM     28  C   UNL     1       4.773   7.259  16.860  0.00  0.00    +0.000 C 
ENDBRANCH  26  28
ENDBRANCH   1  26
TORSDOF 7
ENDMDL
MODEL 8
REMARK VINA RESULT:      -7.0      1.444      6.413
REMARK  Name = 
REMARK  8 active torsions:
REMARK  status: ('A' for Active; 'I' for Inactive)
REMARK    1  A    between atoms: C_1  and  C_2
REMARK    2  A    between atoms: C_2  and  O_3
REMARK    3  A    between atoms: O_3  and  C_4
REMARK    4  A    between atoms: C_5  and  C_6
REMARK    5  A    between atoms: C_9  and  O_10
REMARK    6  A    between atoms: C_11  and  O_12
REMARK    7  A    between atoms: C_17  and  O_18
REMARK    8  A    between atoms: C_20  and  O_21
REMARK                            x       y       z     vdW  Elec       q    Type
REMARK                         _______ _______ _______ _____ _____    ______ ____
ROOT
ATOM      1  C   UNL     1       5.637   5.220  17.505  0.00  0.00    +0.000 A 
ATOM      2  C   UNL     1       5.158   4.564  16.422  0.00  0.00    +0.000 A 
ATOM      3  O   UNL     1       3.975   3.849  16.392  0.00  0.00    +0.000 OA
ATOM      4  C   UNL     1       3.258   3.685  17.540  0.00  0.00    +0.000 A 
ATOM      5  C   UNL     1       2.123   2.874  17.427  0.00  0.00    +0.000 A 
ATOM      6  C   UNL     1       1.347   2.632  18.550  0.00  0.00    +0.000 A 
ATOM      7  C   UNL     1       1.687   3.188  19.776  0.00  0.00    +0.000 A 
ATOM      8  C   UNL     1       2.821   4.003  19.879  0.00  0.00    +0.000 A 
ATOM      9  C   UNL     1       3.619   4.262  18.753  0.00  0.00    +0.000 A 
ATOM     10  C   UNL     1       4.827   5.119  18.774  0.00  0.00    +0.000 A 
ATOM     11  O   UNL     1       5.174   5.736  19.774  0.00  0.00    +0.000 OA
ENDROOT
BRANCH   2  12
ATOM     12  C   UNL     1       5.821   4.450  15.116  0.00  0.00    +0.000 A 
ATOM     13  C   UNL     1       5.253   3.655  14.105  0.00  0.00    +0.000 A 
ATOM     14  C   UNL     1       5.845   3.589  12.839  0.00  0.00    +0.000 A 
ATOM     15  C   UNL     1       6.999   4.319  12.593  0.00  0.00    +0.000 A 
ATOM     16  C   UNL     1       7.565   5.106  13.595  0.00  0.00    +0.000 A 
ATOM     17  C   UNL     1       6.979   5.190  14.849  0.00  0.00    +0.000 A 
BRANCH  15  18
ATOM     18  O   UNL     1       7.617   4.307  11.374  0.00  0.00    +0.000 OA
ATOM     19  H   UNL     1       7.386   5.129  10.909  0.00  0.00    +0.000 HD
ENDBRANCH  15  18
BRANCH  16  20
ATOM     20  O   UNL     1       8.706   5.813  13.346  0.00  0.00    +0.000 OA
ATOM     21  H   UNL     1       9.226   5.741  14.171  0.00  0.00    +0.000 HD
ENDBRANCH  16  20
ENDBRANCH   2  12
BRANCH   6  22
ATOM     22  O   UNL     1       0.240   1.841  18.491  0.00  0.00    +0.000 OA
ATOM     23  H   UNL     1      -0.128   1.870  17.589  0.00  0.00    +0.000 HD
ENDBRANCH   6  22
BRANCH   8  24
ATOM     24  O   UNL     1       3.134   4.525  21.101  0.00  0.00    +0.000 OA
ATOM     25  H   UNL     1       3.373   3.820  21.720  0.00  0.00    +0.000 HD
ENDBRANCH   8  24
BRANCH   1  26
ATOM     26  O   UNL     1       6.779   5.986  17.626  0.00  0.00    +0.000 OA
BRANCH  26  28
ATOM     27  C   UNL     1       8.035   8.013  17.862  0.00  0.00    +0.000 C 
ATOM     28  C   UNL     1       6.739   7.385  17.382  0.00  0.00    +0.000 C 
ENDBRANCH  26  28
ENDBRANCH   1  26
TORSDOF 7
ENDMDL
MODEL 9
REMARK VINA RESULT:      -6.9      3.433      7.514
REMARK  Name = 
REMARK  8 active torsions:
REMARK  status: ('A' for Active; 'I' for Inactive)
REMARK    1  A    between atoms: C_1  and  C_2
REMARK    2  A    between atoms: C_2  and  O_3
REMARK    3  A    between atoms: O_3  and  C_4
REMARK    4  A    between atoms: C_5  and  C_6
REMARK    5  A    between atoms: C_9  and  O_10
REMARK    6  A    between atoms: C_11  and  O_12
REMARK    7  A    between atoms: C_17  and  O_18
REMARK    8  A    between atoms: C_20  and  O_21
REMARK                            x       y       z     vdW  Elec       q    Type
REMARK                         _______ _______ _______ _____ _____    ______ ____
ROOT
ATOM      1  C   UNL     1       2.821   5.971  19.692  0.00  0.00    +0.000 A 
ATOM      2  C   UNL     1       3.363   6.481  18.561  0.00  0.00    +0.000 A 
ATOM      3  O   UNL     1       3.113   7.747  18.067  0.00  0.00    +0.000 OA
ATOM      4  C   UNL     1       2.181   8.535  18.675  0.00  0.00    +0.000 A 
ATOM      5  C   UNL     1       1.934   9.763  18.051  0.00  0.00    +0.000 A 
ATOM      6  C   UNL     1       0.985  10.618  18.587  0.00  0.00    +0.000 A 
ATOM      7  C   UNL     1       0.285  10.267  19.733  0.00  0.00    +0.000 A 
ATOM      8  C   UNL     1       0.542   9.039  20.355  0.00  0.00    +0.000 A 
ATOM      9  C   UNL     1       1.501   8.160  19.830  0.00  0.00    +0.000 A 
ATOM     10  C   UNL     1       1.841   6.849  20.430  0.00  0.00    +0.000 A 
ATOM     11  O   UNL     1       1.356   6.471  21.490  0.00  0.00    +0.000 OA
ENDROOT
BRANCH   2  12
ATOM     12  C   UNL     1       4.266   5.776  17.641  0.00  0.00    +0.000 A 
ATOM     13  C   UNL     1       3.866   4.562  17.055  0.00  0.00    +0.000 A 
ATOM     14  C   UNL     1       4.693   3.914  16.131  0.00  0.00    +0.000 A 
ATOM     15  C   UNL     1       5.913   4.487  15.799  0.00  0.00    +0.000 A 
ATOM     16  C   UNL     1       6.312   5.689  16.380  0.00  0.00    +0.000 A 
ATOM     17  C   UNL     1       5.494   6.346  17.287  0.00  0.00    +0.000 A 
BRANCH  15  18
ATOM     18  O   UNL     1       6.760   3.910  14.893  0.00  0.00    +0.000 OA
ATOM     19  H   UNL     1       6.390   3.047  14.640  0.00  0.00    +0.000 HD
ENDBRANCH  15  18
BRANCH  16  20
ATOM     20  O   UNL     1       7.518   6.239  16.054  0.00  0.00    +0.000 OA
ATOM     21  H   UNL     1       7.300   6.963  15.433  0.00  0.00    +0.000 HD
ENDBRANCH  16  20
ENDBRANCH   2  12
BRANCH   6  22
ATOM     22  O   UNL     1       0.703  11.819  18.009  0.00  0.00    +0.000 OA
ATOM     23  H   UNL     1       0.054  12.295  18.558  0.00  0.00    +0.000 HD
ENDBRANCH   6  22
BRANCH   8  24
ATOM     24  O   UNL     1      -0.171   8.719  21.475  0.00  0.00    +0.000 OA
ATOM     25  H   UNL     1      -0.107   9.426  22.132  0.00  0.00    +0.000 HD
ENDBRANCH   8  24
BRANCH   1  26
ATOM     26  O   UNL     1       3.034   4.743  20.284  0.00  0.00    +0.000 OA
BRANCH  26  28
ATOM     27  C   UNL     1       1.826   2.965  21.345  0.00  0.00    +0.000 C 
ATOM     28  C   UNL     1       2.151   3.658  20.034  0.00  0.00    +0.000 C 
ENDBRANCH  26  28
ENDBRANCH   1  26
TORSDOF 7
ENDMDL
