MODEL 1
REMARK VINA RESULT:      -7.0      0.000      0.000
REMARK  Name = 
REMARK  6 active torsions:
REMARK  status: ('A' for Active; 'I' for Inactive)
REMARK    1  A    between atoms: C_1  and  C_2
REMARK    2  A    between atoms: C_2  and  C_3
REMARK    3  A    between atoms: C_3  and  O_4
REMARK    4  A    between atoms: O_4  and  N_5
REMARK    5  A    between atoms: N_8  and  C_9
REMARK    6  A    between atoms: C_14  and  N_15
REMARK                            x       y       z     vdW  Elec       q    Type
REMARK                         _______ _______ _______ _____ _____    ______ ____
ROOT
ATOM      1  N   UNL     1       6.642   4.160  18.409  0.00  0.00    +0.000 N 
ATOM      2  C   UNL     1       5.395   4.305  19.016  0.00  0.00    +0.000 C 
ATOM      3  O   UNL     1       5.020   5.317  19.587  0.00  0.00    +0.000 OA
ATOM      4  N   UNL     1       4.667   3.115  18.961  0.00  0.00    +0.000 N 
ATOM      5  H   UNL     1       6.642   3.726  17.495  0.00  0.00    +0.000 HD
ATOM      6  H   UNL     1       5.257   2.285  18.951  0.00  0.00    +0.000 HD
ENDROOT
BRANCH   4   7
ATOM      7  C   UNL     1       3.410   3.022  19.618  0.00  0.00    +0.000 A 
ATOM      8  C   UNL     1       3.428   2.608  20.955  0.00  0.00    +0.000 A 
ATOM      9  C   UNL     1       2.257   2.570  21.719  0.00  0.00    +0.000 A 
ATOM     10  C   UNL     1       1.041   2.949  21.159  0.00  0.00    +0.000 A 
ATOM     11  C   UNL     1       0.989   3.347  19.827  0.00  0.00    +0.000 A 
ATOM     12  C   UNL     1       2.164   3.378  19.052  0.00  0.00    +0.000 A 
BRANCH  12  13
ATOM     13  N   UNL     1       2.015   3.655  17.619  0.00  0.00    +0.000 N 
ATOM     14  O   UNL     1       1.079   4.366  17.256  0.00  0.00    +0.000 OA
ATOM     15  O   UNL     1       2.845   3.141  16.842  0.00  0.00    +0.000 OA
ENDBRANCH  12  13
ENDBRANCH   4   7
BRANCH   1  16
ATOM     16  O   UNL     1       7.428   5.350  18.467  0.00  0.00    +0.000 OA
BRANCH  16  17
ATOM     17  C   UNL     1       7.406   5.971  17.172  0.00  0.00    +0.000 C 
BRANCH  17  19
ATOM     18  C   UNL     1       7.974   8.355  17.765  0.00  0.00    +0.000 C 
ATOM     19  C   UNL     1       6.883   7.396  17.314  0.00  0.00    +0.000 C 
ENDBRANCH  17  19
ENDBRANCH  16  17
ENDBRANCH   1  16
TORSDOF 5
ENDMDL
MODEL 2
REMARK VINA RESULT:      -6.8      0.801      1.351
REMARK  Name = 
REMARK  6 active torsions:
REMARK  status: ('A' for Active; 'I' for Inactive)
REMARK    1  A    between atoms: C_1  and  C_2
REMARK    2  A    between atoms: C_2  and  C_3
REMARK    3  A    between atoms: C_3  and  O_4
REMARK    4  A    between atoms: O_4  and  N_5
REMARK    5  A    between atoms: N_8  and  C_9
REMARK    6  A    between atoms: C_14  and  N_15
REMARK                            x       y       z     vdW  Elec       q    Type
REMARK                         _______ _______ _______ _____ _____    ______ ____
ROOT
ATOM      1  N   UNL     1       6.607   4.147  18.292  0.00  0.00    +0.000 N 
ATOM      2  C   UNL     1       5.363   4.299  18.901  0.00  0.00    +0.000 C 
ATOM      3  O   UNL     1       4.964   5.336  19.408  0.00  0.00    +0.000 OA
ATOM      4  N   UNL     1       4.667   3.089  18.935  0.00  0.00    +0.000 N 
ATOM      5  H   UNL     1       6.610   3.653  17.409  0.00  0.00    +0.000 HD
ATOM      6  H   UNL     1       5.280   2.276  18.974  0.00  0.00    +0.000 HD
ENDROOT
BRANCH   4   7
ATOM      7  C   UNL     1       3.419   3.006  19.611  0.00  0.00    +0.000 A 
ATOM      8  C   UNL     1       3.455   2.607  20.952  0.00  0.00    +0.000 A 
ATOM      9  C   UNL     1       2.295   2.581  21.733  0.00  0.00    +0.000 A 
ATOM     10  C   UNL     1       1.073   2.956  21.186  0.00  0.00    +0.000 A 
ATOM     11  C   UNL     1       1.002   3.338  19.850  0.00  0.00    +0.000 A 
ATOM     12  C   UNL     1       2.166   3.358  19.059  0.00  0.00    +0.000 A 
BRANCH  12  13
ATOM     13  N   UNL     1       1.997   3.618  17.625  0.00  0.00    +0.000 N 
ATOM     14  O   UNL     1       1.030   4.287  17.262  0.00  0.00    +0.000 OA
ATOM     15  O   UNL     1       2.843   3.133  16.845  0.00  0.00    +0.000 OA
ENDBRANCH  12  13
ENDBRANCH   4   7
BRANCH   1  16
ATOM     16  O   UNL     1       7.359   5.359  18.261  0.00  0.00    +0.000 OA
BRANCH  16  17
ATOM     17  C   UNL     1       7.175   5.974  16.976  0.00  0.00    +0.000 C 
BRANCH  17  19
ATOM     18  C   UNL     1       5.893   5.129  14.976  0.00  0.00    +0.000 C 
ATOM     19  C   UNL     1       7.063   4.884  15.916  0.00  0.00    +0.000 C 
ENDBRANCH  17  19
ENDBRANCH  16  17
ENDBRANCH   1  16
TORSDOF 5
ENDMDL
MODEL 3
REMARK VINA RESULT:      -6.7      3.941      5.548
REMARK  Name = 
REMARK  6 active torsions:
REMARK  status: ('A' for Active; 'I' for Inactive)
REMARK    1  A    between atoms: C_1  and  C_2
REMARK    2  A    between atoms: C_2  and  C_3
REMARK    3  A    between atoms: C_3  and  O_4
REMARK    4  A    between atoms: O_4  and  N_5
REMARK    5  A    between atoms: N_8  and  C_9
REMARK    6  A    between atoms: C_14  and  N_15
REMARK                            x       y       z     vdW  Elec       q    Type
REMARK                         _______ _______ _______ _____ _____    ______ ____
ROOT
ATOM      1  N   UNL     1       6.337   3.230  13.905  0.00  0.00    +0.000 N 
ATOM      2  C   UNL     1       5.729   4.044  14.859  0.00  0.00    +0.000 C 
ATOM      3  O   UNL     1       5.328   5.177  14.645  0.00  0.00    +0.000 OA
ATOM      4  N   UNL     1       5.718   3.429  16.113  0.00  0.00    +0.000 N 
ATOM      5  H   UNL     1       6.027   2.268  13.881  0.00  0.00    +0.000 HD
ATOM      6  H   UNL     1       6.499   2.790  16.251  0.00  0.00    +0.000 HD
ENDROOT
BRANCH   4   7
ATOM      7  C   UNL     1       5.237   4.138  17.247  0.00  0.00    +0.000 A 
ATOM      8  C   UNL     1       3.859   4.078  17.489  0.00  0.00    +0.000 A 
ATOM      9  C   UNL     1       3.296   4.664  18.627  0.00  0.00    +0.000 A 
ATOM     10  C   UNL     1       4.103   5.321  19.550  0.00  0.00    +0.000 A 
ATOM     11  C   UNL     1       5.473   5.413  19.327  0.00  0.00    +0.000 A 
ATOM     12  C   UNL     1       6.043   4.833  18.178  0.00  0.00    +0.000 A 
BRANCH  12  13
ATOM     13  N   UNL     1       7.463   5.100  17.926  0.00  0.00    +0.000 N 
ATOM     14  O   UNL     1       8.194   4.154  17.638  0.00  0.00    +0.000 OA
ATOM     15  O   UNL     1       7.856   6.281  18.030  0.00  0.00    +0.000 OA
ENDBRANCH  12  13
ENDBRANCH   4   7
BRANCH   1  16
ATOM     16  O   UNL     1       6.390   3.836  12.614  0.00  0.00    +0.000 OA
BRANCH  16  17
ATOM     17  C   UNL     1       5.663   3.007  11.694  0.00  0.00    +0.000 C 
BRANCH  17  19
ATOM     18  C   UNL     1       3.581   3.474  10.351  0.00  0.00    +0.000 C 
ATOM     19  C   UNL     1       4.187   3.389  11.742  0.00  0.00    +0.000 C 
ENDBRANCH  17  19
ENDBRANCH  16  17
ENDBRANCH   1  16
TORSDOF 5
ENDMDL
MODEL 4
REMARK VINA RESULT:      -6.6      3.934      5.567
REMARK  Name = 
REMARK  6 active torsions:
REMARK  status: ('A' for Active; 'I' for Inactive)
REMARK    1  A    between atoms: C_1  and  C_2
REMARK    2  A    between atoms: C_2  and  C_3
REMARK    3  A    between atoms: C_3  and  O_4
REMARK    4  A    between atoms: O_4  and  N_5
REMARK    5  A    between atoms: N_8  and  C_9
REMARK    6  A    between atoms: C_14  and  N_15
REMARK                            x       y       z     vdW  Elec       q    Type
REMARK                         _______ _______ _______ _____ _____    ______ ____
ROOT
ATOM      1  N   UNL     1       6.328   3.212  13.863  0.00  0.00    +0.000 N 
ATOM      2  C   UNL     1       5.774   4.046  14.831  0.00  0.00    +0.000 C 
ATOM      3  O   UNL     1       5.465   5.212  14.643  0.00  0.00    +0.000 OA
ATOM      4  N   UNL     1       5.699   3.402  16.068  0.00  0.00    +0.000 N 
ATOM      5  H   UNL     1       5.944   2.278  13.810  0.00  0.00    +0.000 HD
ATOM      6  H   UNL     1       6.426   2.701  16.198  0.00  0.00    +0.000 HD
ENDROOT
BRANCH   4   7
ATOM      7  C   UNL     1       5.260   4.117  17.216  0.00  0.00    +0.000 A 
ATOM      8  C   UNL     1       3.895   4.045  17.519  0.00  0.00    +0.000 A 
ATOM      9  C   UNL     1       3.376   4.636  18.676  0.00  0.00    +0.000 A 
ATOM     10  C   UNL     1       4.216   5.311  19.555  0.00  0.00    +0.000 A 
ATOM     11  C   UNL     1       5.573   5.416  19.271  0.00  0.00    +0.000 A 
ATOM     12  C   UNL     1       6.098   4.830  18.103  0.00  0.00    +0.000 A 
BRANCH  12  13
ATOM     13  N   UNL     1       7.503   5.111  17.786  0.00  0.00    +0.000 N 
ATOM     14  O   UNL     1       7.833   6.277  17.573  0.00  0.00    +0.000 OA
ATOM     15  O   UNL     1       8.289   4.142  17.738  0.00  0.00    +0.000 OA
ENDBRANCH  12  13
ENDBRANCH   4   7
BRANCH   1  16
ATOM     16  O   UNL     1       6.445   3.844  12.589  0.00  0.00    +0.000 OA
BRANCH  16  17
ATOM     17  C   UNL     1       5.449   3.289  11.714  0.00  0.00    +0.000 C 
BRANCH  17  19
ATOM     18  C   UNL     1       7.129   1.606  10.876  0.00  0.00    +0.000 C 
ATOM     19  C   UNL     1       5.754   1.811  11.491  0.00  0.00    +0.000 C 
ENDBRANCH  17  19
ENDBRANCH  16  17
ENDBRANCH   1  16
TORSDOF 5
ENDMDL
MODEL 5
REMARK VINA RESULT:      -6.5      2.505      3.403
REMARK  Name = 
REMARK  6 active torsions:
REMARK  status: ('A' for Active; 'I' for Inactive)
REMARK    1  A    between atoms: C_1  and  C_2
REMARK    2  A    between atoms: C_2  and  C_3
REMARK    3  A    between atoms: C_3  and  O_4
REMARK    4  A    between atoms: O_4  and  N_5
REMARK    5  A    between atoms: N_8  and  C_9
REMARK    6  A    between atoms: C_14  and  N_15
REMARK                            x       y       z     vdW  Elec       q    Type
REMARK                         _______ _______ _______ _____ _____    ______ ____
ROOT
ATOM      1  N   UNL     1       5.676   3.670  16.380  0.00  0.00    +0.000 N 
ATOM      2  C   UNL     1       5.122   3.987  17.619  0.00  0.00    +0.000 C 
ATOM      3  O   UNL     1       5.671   4.674  18.466  0.00  0.00    +0.000 OA
ATOM      4  N   UNL     1       3.895   3.346  17.801  0.00  0.00    +0.000 N 
ATOM      5  H   UNL     1       5.056   3.747  15.585  0.00  0.00    +0.000 HD
ATOM      6  H   UNL     1       3.829   2.460  17.302  0.00  0.00    +0.000 HD
ENDROOT
BRANCH   4   7
ATOM      7  C   UNL     1       3.215   3.453  19.045  0.00  0.00    +0.000 A 
ATOM      8  C   UNL     1       2.225   4.439  19.138  0.00  0.00    +0.000 A 
ATOM      9  C   UNL     1       1.435   4.569  20.285  0.00  0.00    +0.000 A 
ATOM     10  C   UNL     1       1.620   3.711  21.364  0.00  0.00    +0.000 A 
ATOM     11  C   UNL     1       2.608   2.734  21.309  0.00  0.00    +0.000 A 
ATOM     12  C   UNL     1       3.412   2.606  20.159  0.00  0.00    +0.000 A 
BRANCH  12  13
ATOM     13  N   UNL     1       4.534   1.663  20.228  0.00  0.00    +0.000 N 
ATOM     14  O   UNL     1       4.691   0.873  19.298  0.00  0.00    +0.000 OA
ATOM     15  O   UNL     1       5.265   1.708  21.239  0.00  0.00    +0.000 OA
ENDBRANCH  12  13
ENDBRANCH   4   7
BRANCH   1  16
ATOM     16  O   UNL     1       6.945   4.288  16.167  0.00  0.00    +0.000 OA
BRANCH  16  17
ATOM     17  C   UNL     1       6.984   4.790  14.822  0.00  0.00    +0.000 C 
BRANCH  17  19
ATOM     18  C   UNL     1       6.200   3.530  12.783  0.00  0.00    +0.000 C 
ATOM     19  C   UNL     1       5.781   4.249  14.056  0.00  0.00    +0.000 C 
ENDBRANCH  17  19
ENDBRANCH  16  17
ENDBRANCH   1  16
TORSDOF 5
ENDMDL
MODEL 6
REMARK VINA RESULT:      -6.5      1.981      5.676
REMARK  Name = 
REMARK  6 active torsions:
REMARK  status: ('A' for Active; 'I' for Inactive)
REMARK    1  A    between atoms: C_1  and  C_2
REMARK    2  A    between atoms: C_2  and  C_3
REMARK    3  A    between atoms: C_3  and  O_4
REMARK    4  A    between atoms: O_4  and  N_5
REMARK    5  A    between atoms: N_8  and  C_9
REMARK    6  A    between atoms: C_14  and  N_15
REMARK                            x       y       z     vdW  Elec       q    Type
REMARK                         _______ _______ _______ _____ _____    ______ ____
ROOT
ATOM      1  N   UNL     1       4.448   2.565  19.342  0.00  0.00    +0.000 N 
ATOM      2  C   UNL     1       4.846   3.899  19.283  0.00  0.00    +0.000 C 
ATOM      3  O   UNL     1       4.176   4.838  19.684  0.00  0.00    +0.000 OA
ATOM      4  N   UNL     1       6.072   4.030  18.628  0.00  0.00    +0.000 N 
ATOM      5  H   UNL     1       5.148   1.906  19.656  0.00  0.00    +0.000 HD
ATOM      6  H   UNL     1       6.232   3.305  17.930  0.00  0.00    +0.000 HD
ENDROOT
BRANCH   4   7
ATOM      7  C   UNL     1       6.604   5.323  18.369  0.00  0.00    +0.000 A 
ATOM      8  C   UNL     1       7.683   5.729  19.162  0.00  0.00    +0.000 A 
ATOM      9  C   UNL     1       8.338   6.943  18.930  0.00  0.00    +0.000 A 
ATOM     10  C   UNL     1       7.926   7.776  17.895  0.00  0.00    +0.000 A 
ATOM     11  C   UNL     1       6.844   7.407  17.102  0.00  0.00    +0.000 A 
ATOM     12  C   UNL     1       6.177   6.190  17.338  0.00  0.00    +0.000 A 
BRANCH  12  13
ATOM     13  N   UNL     1       4.952   5.938  16.570  0.00  0.00    +0.000 N 
ATOM     14  O   UNL     1       4.948   5.006  15.767  0.00  0.00    +0.000 OA
ATOM     15  O   UNL     1       3.980   6.695  16.767  0.00  0.00    +0.000 OA
ENDBRANCH  12  13
ENDBRANCH   4   7
BRANCH   1  16
ATOM     16  O   UNL     1       3.185   2.392  19.983  0.00  0.00    +0.000 OA
BRANCH  16  17
ATOM     17  C   UNL     1       2.237   1.937  19.004  0.00  0.00    +0.000 C 
BRANCH  17  19
ATOM     18  C   UNL     1       0.906   3.669  20.265  0.00  0.00    +0.000 C 
ATOM     19  C   UNL     1       1.068   2.916  18.954  0.00  0.00    +0.000 C 
ENDBRANCH  17  19
ENDBRANCH  16  17
ENDBRANCH   1  16
TORSDOF 5
ENDMDL
MODEL 7
REMARK VINA RESULT:      -6.5      1.870      2.732
REMARK  Name = 
REMARK  6 active torsions:
REMARK  status: ('A' for Active; 'I' for Inactive)
REMARK    1  A    between atoms: C_1  and  C_2
REMARK    2  A    between atoms: C_2  and  C_3
REMARK    3  A    between atoms: C_3  and  O_4
REMARK    4  A    between atoms: O_4  and  N_5
REMARK    5  A    between atoms: N_8  and  C_9
REMARK    6  A    between atoms: C_14  and  N_15
REMARK                            x       y       z     vdW  Elec       q    Type
REMARK                         _______ _______ _______ _____ _____    ______ ____
ROOT
ATOM      1  N   UNL     1       4.986   5.154  16.107  0.00  0.00    +0.000 N 
ATOM      2  C   UNL     1       4.227   5.139  17.276  0.00  0.00    +0.000 C 
ATOM      3  O   UNL     1       4.187   6.051  18.086  0.00  0.00    +0.000 OA
ATOM      4  N   UNL     1       3.586   3.909  17.443  0.00  0.00    +0.000 N 
ATOM      5  H   UNL     1       4.522   4.822  15.273  0.00  0.00    +0.000 HD
ATOM      6  H   UNL     1       4.096   3.133  17.026  0.00  0.00    +0.000 HD
ENDROOT
BRANCH   4   7
ATOM      7  C   UNL     1       2.845   3.651  18.629  0.00  0.00    +0.000 A 
ATOM      8  C   UNL     1       1.496   4.027  18.623  0.00  0.00    +0.000 A 
ATOM      9  C   UNL     1       0.657   3.735  19.703  0.00  0.00    +0.000 A 
ATOM     10  C   UNL     1       1.151   3.058  20.812  0.00  0.00    +0.000 A 
ATOM     11  C   UNL     1       2.491   2.688  20.855  0.00  0.00    +0.000 A 
ATOM     12  C   UNL     1       3.342   2.988  19.774  0.00  0.00    +0.000 A 
BRANCH  12  13
ATOM     13  N   UNL     1       4.772   2.711  19.950  0.00  0.00    +0.000 N 
ATOM     14  O   UNL     1       5.584   3.520  19.503  0.00  0.00    +0.000 OA
ATOM     15  O   UNL     1       5.088   1.655  20.537  0.00  0.00    +0.000 OA
ENDBRANCH  12  13
ENDBRANCH   4   7
BRANCH   1  16
ATOM     16  O   UNL     1       5.678   6.387  15.914  0.00  0.00    +0.000 OA
BRANCH  16  17
ATOM     17  C   UNL     1       7.060   6.190  16.251  0.00  0.00    +0.000 C 
BRANCH  17  19
ATOM     18  C   UNL     1       7.717   6.237  18.685  0.00  0.00    +0.000 C 
ATOM     19  C   UNL     1       7.408   7.067  17.449  0.00  0.00    +0.000 C 
ENDBRANCH  17  19
ENDBRANCH  16  17
ENDBRANCH   1  16
TORSDOF 5
ENDMDL
MODEL 8
REMARK VINA RESULT:      -6.5      1.381      1.527
REMARK  Name = 
REMARK  6 active torsions:
REMARK  status: ('A' for Active; 'I' for Inactive)
REMARK    1  A    between atoms: C_1  and  C_2
REMARK    2  A    between atoms: C_2  and  C_3
REMARK    3  A    between atoms: C_3  and  O_4
REMARK    4  A    between atoms: O_4  and  N_5
REMARK    5  A    between atoms: N_8  and  C_9
REMARK    6  A    between atoms: C_14  and  N_15
REMARK                            x       y       z     vdW  Elec       q    Type
REMARK                         _______ _______ _______ _____ _____    ______ ____
ROOT
ATOM      1  N   UNL     1       6.860   4.460  18.546  0.00  0.00    +0.000 N 
ATOM      2  C   UNL     1       5.469   4.549  18.554  0.00  0.00    +0.000 C 
ATOM      3  O   UNL     1       4.824   5.349  17.896  0.00  0.00    +0.000 OA
ATOM      4  N   UNL     1       4.914   3.662  19.479  0.00  0.00    +0.000 N 
ATOM      5  H   UNL     1       7.244   3.527  18.493  0.00  0.00    +0.000 HD
ATOM      6  H   UNL     1       5.527   3.474  20.271  0.00  0.00    +0.000 HD
ENDROOT
BRANCH   4   7
ATOM      7  C   UNL     1       3.513   3.671  19.719  0.00  0.00    +0.000 A 
ATOM      8  C   UNL     1       3.055   4.514  20.739  0.00  0.00    +0.000 A 
ATOM      9  C   UNL     1       1.688   4.666  20.995  0.00  0.00    +0.000 A 
ATOM     10  C   UNL     1       0.751   3.977  20.233  0.00  0.00    +0.000 A 
ATOM     11  C   UNL     1       1.176   3.118  19.225  0.00  0.00    +0.000 A 
ATOM     12  C   UNL     1       2.551   2.956  18.970  0.00  0.00    +0.000 A 
BRANCH  12  13
ATOM     13  N   UNL     1       2.935   1.921  18.003  0.00  0.00    +0.000 N 
ATOM     14  O   UNL     1       2.430   1.951  16.882  0.00  0.00    +0.000 OA
ATOM     15  O   UNL     1       3.751   1.054  18.379  0.00  0.00    +0.000 OA
ENDBRANCH  12  13
ENDBRANCH   4   7
BRANCH   1  16
ATOM     16  O   UNL     1       7.466   5.371  17.629  0.00  0.00    +0.000 OA
BRANCH  16  17
ATOM     17  C   UNL     1       7.881   6.538  18.357  0.00  0.00    +0.000 C 
BRANCH  17  19
ATOM     18  C   UNL     1       8.272   9.015  18.097  0.00  0.00    +0.000 C 
ATOM     19  C   UNL     1       7.633   7.773  17.497  0.00  0.00    +0.000 C 
ENDBRANCH  17  19
ENDBRANCH  16  17
ENDBRANCH   1  16
TORSDOF 5
ENDMDL
MODEL 9
REMARK VINA RESULT:      -6.4      1.947      2.269
REMARK  Name = 
REMARK  6 active torsions:
REMARK  status: ('A' for Active; 'I' for Inactive)
REMARK    1  A    between atoms: C_1  and  C_2
REMARK    2  A    between atoms: C_2  and  C_3
REMARK    3  A    between atoms: C_3  and  O_4
REMARK    4  A    between atoms: O_4  and  N_5
REMARK    5  A    between atoms: N_8  and  C_9
REMARK    6  A    between atoms: C_14  and  N_15
REMARK                            x       y       z     vdW  Elec       q    Type
REMARK                         _______ _______ _______ _____ _____    ______ ____
ROOT
ATOM      1  N   UNL     1       6.237   5.057  17.375  0.00  0.00    +0.000 N 
ATOM      2  C   UNL     1       5.252   4.562  18.228  0.00  0.00    +0.000 C 
ATOM      3  O   UNL     1       5.471   4.074  19.325  0.00  0.00    +0.000 OA
ATOM      4  N   UNL     1       3.992   4.618  17.628  0.00  0.00    +0.000 N 
ATOM      5  H   UNL     1       6.037   5.945  16.935  0.00  0.00    +0.000 HD
ATOM      6  H   UNL     1       4.029   4.539  16.613  0.00  0.00    +0.000 HD
ENDROOT
BRANCH   4   7
ATOM      7  C   UNL     1       2.865   4.062  18.292  0.00  0.00    +0.000 A 
ATOM      8  C   UNL     1       2.561   2.726  18.004  0.00  0.00    +0.000 A 
ATOM      9  C   UNL     1       1.529   2.057  18.670  0.00  0.00    +0.000 A 
ATOM     10  C   UNL     1       0.780   2.713  19.641  0.00  0.00    +0.000 A 
ATOM     11  C   UNL     1       1.046   4.046  19.935  0.00  0.00    +0.000 A 
ATOM     12  C   UNL     1       2.078   4.726  19.261  0.00  0.00    +0.000 A 
BRANCH  12  13
ATOM     13  N   UNL     1       2.203   6.167  19.505  0.00  0.00    +0.000 N 
ATOM     14  O   UNL     1       2.649   6.877  18.605  0.00  0.00    +0.000 OA
ATOM     15  O   UNL     1       1.858   6.595  20.626  0.00  0.00    +0.000 OA
ENDBRANCH  12  13
ENDBRANCH   4   7
BRANCH   1  16
ATOM     16  O   UNL     1       7.544   4.994  17.944  0.00  0.00    +0.000 OA
BRANCH  16  17
ATOM     17  C   UNL     1       7.845   6.269  18.533  0.00  0.00    +0.000 C 
BRANCH  17  19
ATOM     18  C   UNL     1       8.139   8.704  17.947  0.00  0.00    +0.000 C 
ATOM     19  C   UNL     1       7.563   7.366  17.511  0.00  0.00    +0.000 C 
ENDBRANCH  17  19
ENDBRANCH  16  17
ENDBRANCH   1  16
TORSDOF 5
ENDMDL
