MODEL 1
REMARK VINA RESULT:      -7.0      0.000      0.000
REMARK  Name = 
REMARK  6 active torsions:
REMARK  status: ('A' for Active; 'I' for Inactive)
REMARK    1  A    between atoms: C_1  and  C_2
REMARK    2  A    between atoms: C_2  and  O_3
REMARK    3  A    between atoms: O_3  and  C_4
REMARK    4  A    between atoms: C_7  and  C_8
REMARK    5  A    between atoms: N_10  and  C_11
REMARK    6  A    between atoms: C_14  and  C_15
REMARK                            x       y       z     vdW  Elec       q    Type
REMARK                         _______ _______ _______ _____ _____    ______ ____
ROOT
ATOM      1  C   UNL     1       2.508   7.619  18.484  0.00  0.00    +0.000 C 
ATOM      2  O   UNL     1       2.190   7.509  19.665  0.00  0.00    +0.000 OA
ATOM      3  N   UNL     1       2.101   8.620  17.617  0.00  0.00    +0.000 N 
ATOM      4  H   UNL     1       2.259   8.483  16.626  0.00  0.00    +0.000 HD
ENDROOT
BRANCH   1   8
ATOM      5  C   UNL     1       4.988   4.655  16.672  0.00  0.00    +0.000 A 
ATOM      6  C   UNL     1       5.347   6.001  16.658  0.00  0.00    +0.000 A 
ATOM      7  C   UNL     1       4.539   6.945  17.281  0.00  0.00    +0.000 A 
ATOM      8  C   UNL     1       3.358   6.550  17.919  0.00  0.00    +0.000 A 
ATOM      9  C   UNL     1       2.976   5.205  17.913  0.00  0.00    +0.000 A 
ATOM     10  C   UNL     1       3.793   4.258  17.280  0.00  0.00    +0.000 A 
BRANCH   5  11
ATOM     11  O   UNL     1       5.863   3.828  16.027  0.00  0.00    +0.000 OA
BRANCH  11  13
ATOM     12  C   UNL     1       6.090   3.872  13.667  0.00  0.00    +0.000 C 
ATOM     13  C   UNL     1       6.627   4.417  14.978  0.00  0.00    +0.000 C 
ENDBRANCH  11  13
ENDBRANCH   5  11
ENDBRANCH   1   8
BRANCH   3  14
ATOM     14  C   UNL     1       1.360   9.762  17.994  0.00  0.00    +0.000 A 
ATOM     15  C   UNL     1      -0.031   9.755  18.088  0.00  0.00    +0.000 A 
ATOM     16  C   UNL     1      -0.729  10.879  18.528  0.00  0.00    +0.000 A 
ATOM     17  C   UNL     1      -0.054  12.039  18.922  0.00  0.00    +0.000 A 
ATOM     18  C   UNL     1       1.338  12.074  18.741  0.00  0.00    +0.000 A 
ATOM     19  C   UNL     1       2.042  10.939  18.311  0.00  0.00    +0.000 A 
BRANCH  17  20
ATOM     20  C   UNL     1      -0.817  13.216  19.528  0.00  0.00    +0.000 C 
ATOM     21  C   UNL     1      -2.077  12.827  20.358  0.00  0.00    +0.000 C 
ATOM     22  N   UNL     1      -1.741  12.083  21.591  0.00  0.00    +0.000 NA
ATOM     23  C   UNL     1      -0.846  12.937  22.390  0.00  0.00    +0.000 C 
ATOM     24  C   UNL     1       0.373  13.440  21.603  0.00  0.00    +0.000 C 
ATOM     25  O   UNL     1       0.033  14.051  20.348  0.00  0.00    +0.000 OA
ATOM     26  H   UNL     1      -1.221  11.244  21.319  0.00  0.00    +0.000 HD
ENDBRANCH  17  20
ENDBRANCH   3  14
TORSDOF 5
ENDMDL
MODEL 2
REMARK VINA RESULT:      -6.9      2.567      9.537
REMARK  Name = 
REMARK  6 active torsions:
REMARK  status: ('A' for Active; 'I' for Inactive)
REMARK    1  A    between atoms: C_1  and  C_2
REMARK    2  A    between atoms: C_2  and  O_3
REMARK    3  A    between atoms: O_3  and  C_4
REMARK    4  A    between atoms: C_7  and  C_8
REMARK    5  A    between atoms: N_10  and  C_11
REMARK    6  A    between atoms: C_14  and  C_15
REMARK                            x       y       z     vdW  Elec       q    Type
REMARK                         _______ _______ _______ _____ _____    ______ ____
ROOT
ATOM      1  C   UNL     1       0.815   9.449  19.926  0.00  0.00    +0.000 C 
ATOM      2  O   UNL     1       0.918   9.878  18.780  0.00  0.00    +0.000 OA
ATOM      3  N   UNL     1       1.324   8.252  20.400  0.00  0.00    +0.000 N 
ATOM      4  H   UNL     1       0.994   7.918  21.297  0.00  0.00    +0.000 HD
ENDROOT
BRANCH   1   8
ATOM      5  C   UNL     1      -1.567  11.607  22.735  0.00  0.00    +0.000 A 
ATOM      6  C   UNL     1      -0.865  10.464  23.113  0.00  0.00    +0.000 A 
ATOM      7  C   UNL     1      -0.072   9.794  22.189  0.00  0.00    +0.000 A 
ATOM      8  C   UNL     1       0.021  10.261  20.873  0.00  0.00    +0.000 A 
ATOM      9  C   UNL     1      -0.702  11.391  20.478  0.00  0.00    +0.000 A 
ATOM     10  C   UNL     1      -1.503  12.059  21.414  0.00  0.00    +0.000 A 
BRANCH   5  11
ATOM     11  O   UNL     1      -2.309  12.172  23.733  0.00  0.00    +0.000 OA
BRANCH  11  13
ATOM     12  C   UNL     1      -4.475  12.455  24.654  0.00  0.00    +0.000 C 
ATOM     13  C   UNL     1      -3.640  12.549  23.390  0.00  0.00    +0.000 C 
ENDBRANCH  11  13
ENDBRANCH   5  11
ENDBRANCH   1   8
BRANCH   3  14
ATOM     14  C   UNL     1       2.172   7.390  19.670  0.00  0.00    +0.000 A 
ATOM     15  C   UNL     1       2.685   7.727  18.418  0.00  0.00    +0.000 A 
ATOM     16  C   UNL     1       3.573   6.884  17.753  0.00  0.00    +0.000 A 
ATOM     17  C   UNL     1       4.006   5.688  18.334  0.00  0.00    +0.000 A 
ATOM     18  C   UNL     1       3.419   5.309  19.553  0.00  0.00    +0.000 A 
ATOM     19  C   UNL     1       2.536   6.163  20.228  0.00  0.00    +0.000 A 
BRANCH  17  20
ATOM     20  C   UNL     1       5.080   4.838  17.658  0.00  0.00    +0.000 C 
ATOM     21  C   UNL     1       5.749   5.489  16.411  0.00  0.00    +0.000 C 
ATOM     22  N   UNL     1       6.552   6.684  16.753  0.00  0.00    +0.000 NA
ATOM     23  C   UNL     1       7.578   6.262  17.721  0.00  0.00    +0.000 C 
ATOM     24  C   UNL     1       6.997   5.522  18.935  0.00  0.00    +0.000 C 
ATOM     25  O   UNL     1       6.120   4.440  18.581  0.00  0.00    +0.000 OA
ATOM     26  H   UNL     1       5.934   7.355  17.216  0.00  0.00    +0.000 HD
ENDBRANCH  17  20
ENDBRANCH   3  14
TORSDOF 5
ENDMDL
MODEL 3
REMARK VINA RESULT:      -6.8      5.969      8.849
REMARK  Name = 
REMARK  6 active torsions:
REMARK  status: ('A' for Active; 'I' for Inactive)
REMARK    1  A    between atoms: C_1  and  C_2
REMARK    2  A    between atoms: C_2  and  O_3
REMARK    3  A    between atoms: O_3  and  C_4
REMARK    4  A    between atoms: C_7  and  C_8
REMARK    5  A    between atoms: N_10  and  C_11
REMARK    6  A    between atoms: C_14  and  C_15
REMARK                            x       y       z     vdW  Elec       q    Type
REMARK                         _______ _______ _______ _____ _____    ______ ____
ROOT
ATOM      1  C   UNL     1       7.914   8.278  18.130  0.00  0.00    +0.000 C 
ATOM      2  O   UNL     1       8.445   7.422  18.832  0.00  0.00    +0.000 OA
ATOM      3  N   UNL     1       6.854   8.083  17.261  0.00  0.00    +0.000 N 
ATOM      4  H   UNL     1       6.648   8.814  16.591  0.00  0.00    +0.000 HD
ENDROOT
BRANCH   1   8
ATOM      5  C   UNL     1       9.607  12.182  18.476  0.00  0.00    +0.000 A 
ATOM      6  C   UNL     1      10.090  11.118  19.235  0.00  0.00    +0.000 A 
ATOM      7  C   UNL     1       9.544   9.848  19.084  0.00  0.00    +0.000 A 
ATOM      8  C   UNL     1       8.503   9.635  18.174  0.00  0.00    +0.000 A 
ATOM      9  C   UNL     1       7.993  10.703  17.429  0.00  0.00    +0.000 A 
ATOM     10  C   UNL     1       8.546  11.981  17.589  0.00  0.00    +0.000 A 
BRANCH   5  11
ATOM     11  O   UNL     1      10.226  13.375  18.716  0.00  0.00    +0.000 OA
BRANCH  11  13
ATOM     12  C   UNL     1      11.811  13.505  16.957  0.00  0.00    +0.000 C 
ATOM     13  C   UNL     1      11.628  13.420  18.462  0.00  0.00    +0.000 C 
ENDBRANCH  11  13
ENDBRANCH   5  11
ENDBRANCH   1   8
BRANCH   3  14
ATOM     14  C   UNL     1       6.115   6.884  17.147  0.00  0.00    +0.000 A 
ATOM     15  C   UNL     1       6.714   5.660  16.857  0.00  0.00    +0.000 A 
ATOM     16  C   UNL     1       5.967   4.484  16.817  0.00  0.00    +0.000 A 
ATOM     17  C   UNL     1       4.598   4.489  17.101  0.00  0.00    +0.000 A 
ATOM     18  C   UNL     1       3.981   5.734  17.305  0.00  0.00    +0.000 A 
ATOM     19  C   UNL     1       4.735   6.916  17.358  0.00  0.00    +0.000 A 
BRANCH  17  20
ATOM     20  C   UNL     1       3.815   3.179  17.187  0.00  0.00    +0.000 C 
ATOM     21  C   UNL     1       3.934   2.429  18.547  0.00  0.00    +0.000 C 
ATOM     22  N   UNL     1       3.308   3.170  19.664  0.00  0.00    +0.000 NA
ATOM     23  C   UNL     1       1.893   3.377  19.318  0.00  0.00    +0.000 C 
ATOM     24  C   UNL     1       1.696   4.026  17.939  0.00  0.00    +0.000 C 
ATOM     25  O   UNL     1       2.413   3.362  16.885  0.00  0.00    +0.000 OA
ATOM     26  H   UNL     1       3.759   4.086  19.723  0.00  0.00    +0.000 HD
ENDBRANCH  17  20
ENDBRANCH   3  14
TORSDOF 5
ENDMDL
MODEL 4
REMARK VINA RESULT:      -6.8      0.430      1.067
REMARK  Name = 
REMARK  6 active torsions:
REMARK  status: ('A' for Active; 'I' for Inactive)
REMARK    1  A    between atoms: C_1  and  C_2
REMARK    2  A    between atoms: C_2  and  O_3
REMARK    3  A    between atoms: O_3  and  C_4
REMARK    4  A    between atoms: C_7  and  C_8
REMARK    5  A    between atoms: N_10  and  C_11
REMARK    6  A    between atoms: C_14  and  C_15
REMARK                            x       y       z     vdW  Elec       q    Type
REMARK                         _______ _______ _______ _____ _____    ______ ____
ROOT
ATOM      1  C   UNL     1       2.730   7.392  18.364  0.00  0.00    +0.000 C 
ATOM      2  O   UNL     1       2.422   7.209  19.538  0.00  0.00    +0.000 OA
ATOM      3  N   UNL     1       2.328   8.452  17.568  0.00  0.00    +0.000 N 
ATOM      4  H   UNL     1       2.477   8.379  16.569  0.00  0.00    +0.000 HD
ENDROOT
BRANCH   1   8
ATOM      5  C   UNL     1       5.142   4.515  16.333  0.00  0.00    +0.000 A 
ATOM      6  C   UNL     1       5.476   5.868  16.327  0.00  0.00    +0.000 A 
ATOM      7  C   UNL     1       4.693   6.783  17.020  0.00  0.00    +0.000 A 
ATOM      8  C   UNL     1       3.562   6.351  17.722  0.00  0.00    +0.000 A 
ATOM      9  C   UNL     1       3.204   5.000  17.710  0.00  0.00    +0.000 A 
ATOM     10  C   UNL     1       3.996   4.083  17.005  0.00  0.00    +0.000 A 
BRANCH   5  11
ATOM     11  O   UNL     1       5.989   3.720  15.615  0.00  0.00    +0.000 OA
BRANCH  11  13
ATOM     12  C   UNL     1       5.922   3.719  13.244  0.00  0.00    +0.000 C 
ATOM     13  C   UNL     1       6.592   4.316  14.469  0.00  0.00    +0.000 C 
ENDBRANCH  11  13
ENDBRANCH   5  11
ENDBRANCH   1   8
BRANCH   3  14
ATOM     14  C   UNL     1       1.606   9.577  18.026  0.00  0.00    +0.000 A 
ATOM     15  C   UNL     1       2.216  10.801  18.292  0.00  0.00    +0.000 A 
ATOM     16  C   UNL     1       1.466  11.911  18.678  0.00  0.00    +0.000 A 
ATOM     17  C   UNL     1       0.073  11.842  18.777  0.00  0.00    +0.000 A 
ATOM     18  C   UNL     1      -0.529  10.585  18.596  0.00  0.00    +0.000 A 
ATOM     19  C   UNL     1       0.223   9.472  18.195  0.00  0.00    +0.000 A 
BRANCH  17  20
ATOM     20  C   UNL     1      -0.751  13.094  19.069  0.00  0.00    +0.000 C 
ATOM     21  C   UNL     1      -2.032  12.857  19.923  0.00  0.00    +0.000 C 
ATOM     22  N   UNL     1      -1.724  12.431  21.306  0.00  0.00    +0.000 NA
ATOM     23  C   UNL     1      -0.891  13.481  21.915  0.00  0.00    +0.000 C 
ATOM     24  C   UNL     1       0.344  13.838  21.074  0.00  0.00    +0.000 C 
ATOM     25  O   UNL     1       0.037  14.129  19.701  0.00  0.00    +0.000 OA
ATOM     26  H   UNL     1      -1.167  11.574  21.253  0.00  0.00    +0.000 HD
ENDBRANCH  17  20
ENDBRANCH   3  14
TORSDOF 5
ENDMDL
MODEL 5
REMARK VINA RESULT:      -6.8      2.466      9.598
REMARK  Name = 
REMARK  6 active torsions:
REMARK  status: ('A' for Active; 'I' for Inactive)
REMARK    1  A    between atoms: C_1  and  C_2
REMARK    2  A    between atoms: C_2  and  O_3
REMARK    3  A    between atoms: O_3  and  C_4
REMARK    4  A    between atoms: C_7  and  C_8
REMARK    5  A    between atoms: N_10  and  C_11
REMARK    6  A    between atoms: C_14  and  C_15
REMARK                            x       y       z     vdW  Elec       q    Type
REMARK                         _______ _______ _______ _____ _____    ______ ____
ROOT
ATOM      1  C   UNL     1       0.714   9.975  21.123  0.00  0.00    +0.000 C 
ATOM      2  O   UNL     1       1.591   9.794  21.964  0.00  0.00    +0.000 OA
ATOM      3  N   UNL     1       0.698   9.465  19.836  0.00  0.00    +0.000 N 
ATOM      4  H   UNL     1       0.034   9.855  19.179  0.00  0.00    +0.000 HD
ENDROOT
BRANCH   1   8
ATOM      5  C   UNL     1      -2.595  12.389  22.323  0.00  0.00    +0.000 A 
ATOM      6  C   UNL     1      -1.948  11.552  23.230  0.00  0.00    +0.000 A 
ATOM      7  C   UNL     1      -0.853  10.798  22.825  0.00  0.00    +0.000 A 
ATOM      8  C   UNL     1      -0.400  10.870  21.503  0.00  0.00    +0.000 A 
ATOM      9  C   UNL     1      -1.062  11.685  20.579  0.00  0.00    +0.000 A 
ATOM     10  C   UNL     1      -2.168  12.440  20.993  0.00  0.00    +0.000 A 
BRANCH   5  11
ATOM     11  O   UNL     1      -3.655  13.075  22.843  0.00  0.00    +0.000 OA
BRANCH  11  13
ATOM     12  C   UNL     1      -3.476  14.656  24.601  0.00  0.00    +0.000 C 
ATOM     13  C   UNL     1      -3.693  13.193  24.263  0.00  0.00    +0.000 C 
ENDBRANCH  11  13
ENDBRANCH   5  11
ENDBRANCH   1   8
BRANCH   3  14
ATOM     14  C   UNL     1       1.628   8.532  19.325  0.00  0.00    +0.000 A 
ATOM     15  C   UNL     1       1.954   7.356  19.998  0.00  0.00    +0.000 A 
ATOM     16  C   UNL     1       2.825   6.422  19.437  0.00  0.00    +0.000 A 
ATOM     17  C   UNL     1       3.371   6.619  18.166  0.00  0.00    +0.000 A 
ATOM     18  C   UNL     1       3.112   7.844  17.529  0.00  0.00    +0.000 A 
ATOM     19  C   UNL     1       2.226   8.777  18.088  0.00  0.00    +0.000 A 
BRANCH  17  20
ATOM     20  C   UNL     1       4.215   5.531  17.504  0.00  0.00    +0.000 C 
ATOM     21  C   UNL     1       5.137   6.024  16.348  0.00  0.00    +0.000 C 
ATOM     22  N   UNL     1       6.213   6.923  16.821  0.00  0.00    +0.000 NA
ATOM     23  C   UNL     1       6.998   6.181  17.821  0.00  0.00    +0.000 C 
ATOM     24  C   UNL     1       6.138   5.580  18.943  0.00  0.00    +0.000 C 
ATOM     25  O   UNL     1       5.024   4.811  18.461  0.00  0.00    +0.000 OA
ATOM     26  H   UNL     1       5.772   7.719  17.289  0.00  0.00    +0.000 HD
ENDBRANCH  17  20
ENDBRANCH   3  14
TORSDOF 5
ENDMDL
MODEL 6
REMARK VINA RESULT:      -6.8      2.394      9.470
REMARK  Name = 
REMARK  6 active torsions:
REMARK  status: ('A' for Active; 'I' for Inactive)
REMARK    1  A    between atoms: C_1  and  C_2
REMARK    2  A    between atoms: C_2  and  O_3
REMARK    3  A    between atoms: O_3  and  C_4
REMARK    4  A    between atoms: C_7  and  C_8
REMARK    5  A    between atoms: N_10  and  C_11
REMARK    6  A    between atoms: C_14  and  C_15
REMARK                            x       y       z     vdW  Elec       q    Type
REMARK                         _______ _______ _______ _____ _____    ______ ____
ROOT
ATOM      1  C   UNL     1       0.825   9.346  21.169  0.00  0.00    +0.000 C 
ATOM      2  O   UNL     1       1.482   8.859  22.085  0.00  0.00    +0.000 OA
ATOM      3  N   UNL     1       1.021   9.128  19.816  0.00  0.00    +0.000 N 
ATOM      4  H   UNL     1       0.554   9.745  19.163  0.00  0.00    +0.000 HD
ENDROOT
BRANCH   1   8
ATOM      5  C   UNL     1      -2.141  12.259  22.138  0.00  0.00    +0.000 A 
ATOM      6  C   UNL     1      -1.690  12.098  20.829  0.00  0.00    +0.000 A 
ATOM      7  C   UNL     1      -0.746  11.122  20.532  0.00  0.00    +0.000 A 
ATOM      8  C   UNL     1      -0.239  10.302  21.546  0.00  0.00    +0.000 A 
ATOM      9  C   UNL     1      -0.664  10.477  22.866  0.00  0.00    +0.000 A 
ATOM     10  C   UNL     1      -1.614  11.465  23.160  0.00  0.00    +0.000 A 
BRANCH   5  11
ATOM     11  O   UNL     1      -3.067  13.250  22.300  0.00  0.00    +0.000 OA
BRANCH  11  13
ATOM     12  C   UNL     1      -5.290  12.985  23.080  0.00  0.00    +0.000 C 
ATOM     13  C   UNL     1      -4.389  12.953  21.859  0.00  0.00    +0.000 C 
ENDBRANCH  11  13
ENDBRANCH   5  11
ENDBRANCH   1   8
BRANCH   3  14
ATOM     14  C   UNL     1       1.928   8.191  19.272  0.00  0.00    +0.000 A 
ATOM     15  C   UNL     1       2.192   6.965  19.880  0.00  0.00    +0.000 A 
ATOM     16  C   UNL     1       3.041   6.033  19.284  0.00  0.00    +0.000 A 
ATOM     17  C   UNL     1       3.628   6.284  18.041  0.00  0.00    +0.000 A 
ATOM     18  C   UNL     1       3.432   7.554  17.474  0.00  0.00    +0.000 A 
ATOM     19  C   UNL     1       2.568   8.486  18.066  0.00  0.00    +0.000 A 
BRANCH  17  20
ATOM     20  C   UNL     1       4.447   5.205  17.334  0.00  0.00    +0.000 C 
ATOM     21  C   UNL     1       5.278   5.702  16.113  0.00  0.00    +0.000 C 
ATOM     22  N   UNL     1       6.364   6.629  16.502  0.00  0.00    +0.000 NA
ATOM     23  C   UNL     1       7.232   5.916  17.453  0.00  0.00    +0.000 C 
ATOM     24  C   UNL     1       6.462   5.311  18.638  0.00  0.00    +0.000 C 
ATOM     25  O   UNL     1       5.335   4.513  18.242  0.00  0.00    +0.000 OA
ATOM     26  H   UNL     1       5.939   7.422  16.990  0.00  0.00    +0.000 HD
ENDBRANCH  17  20
ENDBRANCH   3  14
TORSDOF 5
ENDMDL
MODEL 7
REMARK VINA RESULT:      -6.7      2.323      9.464
REMARK  Name = 
REMARK  6 active torsions:
REMARK  status: ('A' for Active; 'I' for Inactive)
REMARK    1  A    between atoms: C_1  and  C_2
REMARK    2  A    between atoms: C_2  and  O_3
REMARK    3  A    between atoms: O_3  and  C_4
REMARK    4  A    between atoms: C_7  and  C_8
REMARK    5  A    between atoms: N_10  and  C_11
REMARK    6  A    between atoms: C_14  and  C_15
REMARK                            x       y       z     vdW  Elec       q    Type
REMARK                         _______ _______ _______ _____ _____    ______ ____
ROOT
ATOM      1  C   UNL     1       0.214   9.744  19.663  0.00  0.00    +0.000 C 
ATOM      2  O   UNL     1      -0.083   9.876  18.478  0.00  0.00    +0.000 OA
ATOM      3  N   UNL     1       1.112   8.827  20.184  0.00  0.00    +0.000 N 
ATOM      4  H   UNL     1       1.111   8.679  21.185  0.00  0.00    +0.000 HD
ENDROOT
BRANCH   1   8
ATOM      5  C   UNL     1      -1.788  12.408  22.330  0.00  0.00    +0.000 A 
ATOM      6  C   UNL     1      -1.967  12.500  20.951  0.00  0.00    +0.000 A 
ATOM      7  C   UNL     1      -1.329  11.602  20.103  0.00  0.00    +0.000 A 
ATOM      8  C   UNL     1      -0.498  10.607  20.629  0.00  0.00    +0.000 A 
ATOM      9  C   UNL     1      -0.290  10.527  22.010  0.00  0.00    +0.000 A 
ATOM     10  C   UNL     1      -0.933  11.438  22.859  0.00  0.00    +0.000 A 
BRANCH   5  11
ATOM     11  O   UNL     1      -2.468  13.347  23.053  0.00  0.00    +0.000 OA
BRANCH  11  13
ATOM     12  C   UNL     1      -4.161  12.452  24.451  0.00  0.00    +0.000 C 
ATOM     13  C   UNL     1      -3.879  13.170  23.143  0.00  0.00    +0.000 C 
ENDBRANCH  11  13
ENDBRANCH   5  11
ENDBRANCH   1   8
BRANCH   3  14
ATOM     14  C   UNL     1       1.942   7.982  19.413  0.00  0.00    +0.000 A 
ATOM     15  C   UNL     1       2.519   8.393  18.213  0.00  0.00    +0.000 A 
ATOM     16  C   UNL     1       3.388   7.560  17.509  0.00  0.00    +0.000 A 
ATOM     17  C   UNL     1       3.736   6.299  18.003  0.00  0.00    +0.000 A 
ATOM     18  C   UNL     1       3.084   5.853  19.165  0.00  0.00    +0.000 A 
ATOM     19  C   UNL     1       2.221   6.696  19.880  0.00  0.00    +0.000 A 
BRANCH  17  20
ATOM     20  C   UNL     1       4.790   5.449  17.296  0.00  0.00    +0.000 C 
ATOM     21  C   UNL     1       5.711   6.228  16.310  0.00  0.00    +0.000 C 
ATOM     22  N   UNL     1       6.591   7.199  16.997  0.00  0.00    +0.000 NA
ATOM     23  C   UNL     1       7.402   6.448  17.968  0.00  0.00    +0.000 C 
ATOM     24  C   UNL     1       6.561   5.576  18.914  0.00  0.00    +0.000 C 
ATOM     25  O   UNL     1       5.625   4.728  18.230  0.00  0.00    +0.000 OA
ATOM     26  H   UNL     1       5.994   7.849  17.515  0.00  0.00    +0.000 HD
ENDBRANCH  17  20
ENDBRANCH   3  14
TORSDOF 5
ENDMDL
MODEL 8
REMARK VINA RESULT:      -6.7      2.356      9.535
REMARK  Name = 
REMARK  6 active torsions:
REMARK  status: ('A' for Active; 'I' for Inactive)
REMARK    1  A    between atoms: C_1  and  C_2
REMARK    2  A    between atoms: C_2  and  O_3
REMARK    3  A    between atoms: O_3  and  C_4
REMARK    4  A    between atoms: C_7  and  C_8
REMARK    5  A    between atoms: N_10  and  C_11
REMARK    6  A    between atoms: C_14  and  C_15
REMARK                            x       y       z     vdW  Elec       q    Type
REMARK                         _______ _______ _______ _____ _____    ______ ____
ROOT
ATOM      1  C   UNL     1       0.219   9.838  19.575  0.00  0.00    +0.000 C 
ATOM      2  O   UNL     1      -0.020   9.918  18.374  0.00  0.00    +0.000 OA
ATOM      3  N   UNL     1       1.089   8.945  20.180  0.00  0.00    +0.000 N 
ATOM      4  H   UNL     1       1.039   8.841  21.185  0.00  0.00    +0.000 HD
ENDROOT
BRANCH   1   8
ATOM      5  C   UNL     1      -2.025  12.273  22.270  0.00  0.00    +0.000 A 
ATOM      6  C   UNL     1      -1.155  11.291  22.740  0.00  0.00    +0.000 A 
ATOM      7  C   UNL     1      -0.411  10.531  21.846  0.00  0.00    +0.000 A 
ATOM      8  C   UNL     1      -0.538  10.742  20.468  0.00  0.00    +0.000 A 
ATOM      9  C   UNL     1      -1.430  11.705  19.987  0.00  0.00    +0.000 A 
ATOM     10  C   UNL     1      -2.180  12.466  20.895  0.00  0.00    +0.000 A 
BRANCH   5  11
ATOM     11  O   UNL     1      -2.696  12.949  23.247  0.00  0.00    +0.000 OA
BRANCH  11  13
ATOM     12  C   UNL     1      -4.424  12.360  24.761  0.00  0.00    +0.000 C 
ATOM     13  C   UNL     1      -4.101  12.718  23.321  0.00  0.00    +0.000 C 
ENDBRANCH  11  13
ENDBRANCH   5  11
ENDBRANCH   1   8
BRANCH   3  14
ATOM     14  C   UNL     1       1.954   8.068  19.488  0.00  0.00    +0.000 A 
ATOM     15  C   UNL     1       2.255   6.790  19.956  0.00  0.00    +0.000 A 
ATOM     16  C   UNL     1       3.059   5.923  19.217  0.00  0.00    +0.000 A 
ATOM     17  C   UNL     1       3.560   6.294  17.966  0.00  0.00    +0.000 A 
ATOM     18  C   UNL     1       3.329   7.612  17.538  0.00  0.00    +0.000 A 
ATOM     19  C   UNL     1       2.510   8.480  18.275  0.00  0.00    +0.000 A 
BRANCH  17  20
ATOM     20  C   UNL     1       4.326   5.291  17.105  0.00  0.00    +0.000 C 
ATOM     21  C   UNL     1       5.227   5.922  16.002  0.00  0.00    +0.000 C 
ATOM     22  N   UNL     1       6.361   6.690  16.562  0.00  0.00    +0.000 NA
ATOM     23  C   UNL     1       7.147   5.768  17.398  0.00  0.00    +0.000 C 
ATOM     24  C   UNL     1       6.301   5.032  18.449  0.00  0.00    +0.000 C 
ATOM     25  O   UNL     1       5.135   4.395  17.901  0.00  0.00    +0.000 OA
ATOM     26  H   UNL     1       5.976   7.420  17.168  0.00  0.00    +0.000 HD
ENDBRANCH  17  20
ENDBRANCH   3  14
TORSDOF 5
ENDMDL
MODEL 9
REMARK VINA RESULT:      -6.7      6.907      8.292
REMARK  Name = 
REMARK  6 active torsions:
REMARK  status: ('A' for Active; 'I' for Inactive)
REMARK    1  A    between atoms: C_1  and  C_2
REMARK    2  A    between atoms: C_2  and  O_3
REMARK    3  A    between atoms: O_3  and  C_4
REMARK    4  A    between atoms: C_7  and  C_8
REMARK    5  A    between atoms: N_10  and  C_11
REMARK    6  A    between atoms: C_14  and  C_15
REMARK                            x       y       z     vdW  Elec       q    Type
REMARK                         _______ _______ _______ _____ _____    ______ ____
ROOT
ATOM      1  C   UNL     1       8.277   9.155  18.208  0.00  0.00    +0.000 C 
ATOM      2  O   UNL     1       7.873  10.013  17.428  0.00  0.00    +0.000 OA
ATOM      3  N   UNL     1       9.188   9.345  19.233  0.00  0.00    +0.000 N 
ATOM      4  H   UNL     1       9.595   8.525  19.665  0.00  0.00    +0.000 HD
ENDROOT
BRANCH   1   8
ATOM      5  C   UNL     1       6.665   5.253  17.581  0.00  0.00    +0.000 A 
ATOM      6  C   UNL     1       6.251   6.335  16.807  0.00  0.00    +0.000 A 
ATOM      7  C   UNL     1       6.812   7.591  17.008  0.00  0.00    +0.000 A 
ATOM      8  C   UNL     1       7.789   7.775  17.993  0.00  0.00    +0.000 A 
ATOM      9  C   UNL     1       8.189   6.700  18.793  0.00  0.00    +0.000 A 
ATOM     10  C   UNL     1       7.617   5.437  18.587  0.00  0.00    +0.000 A 
BRANCH   5  11
ATOM     11  O   UNL     1       6.039   4.075  17.286  0.00  0.00    +0.000 OA
BRANCH  11  13
ATOM     12  C   UNL     1       3.718   3.593  17.263  0.00  0.00    +0.000 C 
ATOM     13  C   UNL     1       4.876   4.168  16.468  0.00  0.00    +0.000 C 
ENDBRANCH  11  13
ENDBRANCH   5  11
ENDBRANCH   1   8
BRANCH   3  14
ATOM     14  C   UNL     1       9.696  10.600  19.640  0.00  0.00    +0.000 A 
ATOM     15  C   UNL     1      10.597  11.329  18.865  0.00  0.00    +0.000 A 
ATOM     16  C   UNL     1      11.027  12.594  19.262  0.00  0.00    +0.000 A 
ATOM     17  C   UNL     1      10.543  13.188  20.431  0.00  0.00    +0.000 A 
ATOM     18  C   UNL     1       9.706  12.415  21.253  0.00  0.00    +0.000 A 
ATOM     19  C   UNL     1       9.262  11.148  20.848  0.00  0.00    +0.000 A 
BRANCH  17  20
ATOM     20  C   UNL     1      10.917  14.625  20.787  0.00  0.00    +0.000 C 
ATOM     21  C   UNL     1      11.677  15.404  19.672  0.00  0.00    +0.000 C 
ATOM     22  N   UNL     1      10.840  15.651  18.477  0.00  0.00    +0.000 NA
ATOM     23  C   UNL     1       9.658  16.410  18.915  0.00  0.00    +0.000 C 
ATOM     24  C   UNL     1       8.912  15.748  20.084  0.00  0.00    +0.000 C 
ATOM     25  O   UNL     1       9.766  15.404  21.187  0.00  0.00    +0.000 OA
ATOM     26  H   UNL     1      10.524  14.744  18.124  0.00  0.00    +0.000 HD
ENDBRANCH  17  20
ENDBRANCH   3  14
TORSDOF 5
ENDMDL
