MODEL 1
REMARK VINA RESULT:      -8.7      0.000      0.000
REMARK  Name = 
REMARK  3 active torsions:
REMARK  status: ('A' for Active; 'I' for Inactive)
REMARK    1  A    between atoms: C_1  and  C_2
REMARK    2  A    between atoms: C_11  and  C_12
REMARK    3  A    between atoms: C_17  and  N_18
REMARK                            x       y       z     vdW  Elec       q    Type
REMARK                         _______ _______ _______ _____ _____    ______ ____
ROOT
ATOM      1  C   UNL     1       2.035   2.879  21.810  0.00  0.00    +0.000 C 
ATOM      2  C   UNL     1       2.362   3.869  20.732  0.00  0.00    +0.000 A 
ATOM      3  N   UNL     1       2.003   5.113  20.859  0.00  0.00    +0.000 NA
ATOM      4  C   UNL     1       2.304   6.019  19.815  0.00  0.00    +0.000 A 
ATOM      5  C   UNL     1       1.922   7.352  19.980  0.00  0.00    +0.000 A 
ATOM      6  C   UNL     1       2.169   8.294  18.981  0.00  0.00    +0.000 A 
ATOM      7  C   UNL     1       2.755   7.896  17.781  0.00  0.00    +0.000 A 
ATOM      8  C   UNL     1       3.124   6.563  17.585  0.00  0.00    +0.000 A 
ATOM      9  C   UNL     1       2.963   5.643  18.623  0.00  0.00    +0.000 A 
ATOM     10  N   UNL     1       3.435   4.312  18.580  0.00  0.00    +0.000 N 
ATOM     11  C   UNL     1       4.300   3.596  17.759  0.00  0.00    +0.000 A 
ATOM     12  N   UNL     1       4.302   2.337  18.175  0.00  0.00    +0.000 NA
ATOM     13  N   UNL     1       3.556   2.239  19.324  0.00  0.00    +0.000 NA
ATOM     14  C   UNL     1       3.096   3.438  19.580  0.00  0.00    +0.000 A 
ENDROOT
BRANCH  11  15
ATOM     15  C   UNL     1       5.183   4.097  16.697  0.00  0.00    +0.000 A 
ATOM     16  C   UNL     1       4.773   4.027  15.352  0.00  0.00    +0.000 A 
ATOM     17  C   UNL     1       5.611   4.431  14.307  0.00  0.00    +0.000 A 
ATOM     18  C   UNL     1       6.844   5.010  14.583  0.00  0.00    +0.000 A 
ATOM     19  C   UNL     1       7.238   5.196  15.905  0.00  0.00    +0.000 A 
ATOM     20  C   UNL     1       6.410   4.735  16.945  0.00  0.00    +0.000 A 
BRANCH  20  21
ATOM     21  N   UNL     1       6.903   4.931  18.298  0.00  0.00    +0.000 N 
ATOM     22  O   UNL     1       7.988   4.400  18.578  0.00  0.00    +0.000 OA
ATOM     23  O   UNL     1       6.260   5.692  19.033  0.00  0.00    +0.000 OA
ENDBRANCH  20  21
ENDBRANCH  11  15
TORSDOF 2
ENDMDL
MODEL 2
REMARK VINA RESULT:      -7.7      1.684      3.352
REMARK  Name = 
REMARK  3 active torsions:
REMARK  status: ('A' for Active; 'I' for Inactive)
REMARK    1  A    between atoms: C_1  and  C_2
REMARK    2  A    between atoms: C_11  and  C_12
REMARK    3  A    between atoms: C_17  and  N_18
REMARK                            x       y       z     vdW  Elec       q    Type
REMARK                         _______ _______ _______ _____ _____    ______ ____
ROOT
ATOM      1  C   UNL     1       0.896   7.698  20.603  0.00  0.00    +0.000 C 
ATOM      2  C   UNL     1       1.833   6.585  20.238  0.00  0.00    +0.000 A 
ATOM      3  N   UNL     1       1.739   5.432  20.834  0.00  0.00    +0.000 NA
ATOM      4  C   UNL     1       2.652   4.409  20.486  0.00  0.00    +0.000 A 
ATOM      5  C   UNL     1       2.522   3.175  21.127  0.00  0.00    +0.000 A 
ATOM      6  C   UNL     1       3.403   2.130  20.847  0.00  0.00    +0.000 A 
ATOM      7  C   UNL     1       4.458   2.329  19.959  0.00  0.00    +0.000 A 
ATOM      8  C   UNL     1       4.621   3.563  19.324  0.00  0.00    +0.000 A 
ATOM      9  C   UNL     1       3.682   4.575  19.533  0.00  0.00    +0.000 A 
ATOM     10  N   UNL     1       3.674   5.802  18.831  0.00  0.00    +0.000 N 
ATOM     11  C   UNL     1       4.310   6.297  17.698  0.00  0.00    +0.000 A 
ATOM     12  N   UNL     1       3.956   7.567  17.558  0.00  0.00    +0.000 NA
ATOM     13  N   UNL     1       3.006   7.878  18.500  0.00  0.00    +0.000 NA
ATOM     14  C   UNL     1       2.810   6.796  19.212  0.00  0.00    +0.000 A 
ENDROOT
BRANCH  11  15
ATOM     15  C   UNL     1       5.128   5.574  16.715  0.00  0.00    +0.000 A 
ATOM     16  C   UNL     1       4.510   4.743  15.762  0.00  0.00    +0.000 A 
ATOM     17  C   UNL     1       5.256   3.986  14.853  0.00  0.00    +0.000 A 
ATOM     18  C   UNL     1       6.639   4.116  14.804  0.00  0.00    +0.000 A 
ATOM     19  C   UNL     1       7.278   5.011  15.657  0.00  0.00    +0.000 A 
ATOM     20  C   UNL     1       6.521   5.724  16.605  0.00  0.00    +0.000 A 
BRANCH  20  21
ATOM     21  N   UNL     1       7.261   6.612  17.486  0.00  0.00    +0.000 N 
ATOM     22  O   UNL     1       7.688   6.121  18.541  0.00  0.00    +0.000 OA
ATOM     23  O   UNL     1       7.495   7.756  17.075  0.00  0.00    +0.000 OA
ENDBRANCH  20  21
ENDBRANCH  11  15
TORSDOF 2
ENDMDL
MODEL 3
REMARK VINA RESULT:      -7.1      1.775      2.339
REMARK  Name = 
REMARK  3 active torsions:
REMARK  status: ('A' for Active; 'I' for Inactive)
REMARK    1  A    between atoms: C_1  and  C_2
REMARK    2  A    between atoms: C_11  and  C_12
REMARK    3  A    between atoms: C_17  and  N_18
REMARK                            x       y       z     vdW  Elec       q    Type
REMARK                         _______ _______ _______ _____ _____    ______ ____
ROOT
ATOM      1  C   UNL     1       1.736   2.336  21.967  0.00  0.00    +0.000 C 
ATOM      2  C   UNL     1       2.132   3.534  21.155  0.00  0.00    +0.000 A 
ATOM      3  N   UNL     1       1.472   4.649  21.274  0.00  0.00    +0.000 NA
ATOM      4  C   UNL     1       1.853   5.754  20.477  0.00  0.00    +0.000 A 
ATOM      5  C   UNL     1       1.140   6.945  20.633  0.00  0.00    +0.000 A 
ATOM      6  C   UNL     1       1.449   8.067  19.863  0.00  0.00    +0.000 A 
ATOM      7  C   UNL     1       2.443   7.990  18.891  0.00  0.00    +0.000 A 
ATOM      8  C   UNL     1       3.153   6.801  18.702  0.00  0.00    +0.000 A 
ATOM      9  C   UNL     1       2.907   5.711  19.538  0.00  0.00    +0.000 A 
ATOM     10  N   UNL     1       3.667   4.518  19.526  0.00  0.00    +0.000 N 
ATOM     11  C   UNL     1       4.879   4.125  18.971  0.00  0.00    +0.000 A 
ATOM     12  N   UNL     1       5.049   2.838  19.243  0.00  0.00    +0.000 NA
ATOM     13  N   UNL     1       4.038   2.413  20.069  0.00  0.00    +0.000 NA
ATOM     14  C   UNL     1       3.256   3.444  20.272  0.00  0.00    +0.000 A 
ENDROOT
BRANCH  11  15
ATOM     15  C   UNL     1       5.898   4.952  18.310  0.00  0.00    +0.000 A 
ATOM     16  C   UNL     1       6.770   5.742  19.082  0.00  0.00    +0.000 A 
ATOM     17  C   UNL     1       7.709   6.593  18.490  0.00  0.00    +0.000 A 
ATOM     18  C   UNL     1       7.871   6.604  17.110  0.00  0.00    +0.000 A 
ATOM     19  C   UNL     1       7.101   5.755  16.318  0.00  0.00    +0.000 A 
ATOM     20  C   UNL     1       6.123   4.944  16.923  0.00  0.00    +0.000 A 
BRANCH  20  21
ATOM     21  N   UNL     1       5.333   4.112  16.031  0.00  0.00    +0.000 N 
ATOM     22  O   UNL     1       4.102   4.238  16.095  0.00  0.00    +0.000 OA
ATOM     23  O   UNL     1       5.947   3.419  15.210  0.00  0.00    +0.000 OA
ENDBRANCH  20  21
ENDBRANCH  11  15
TORSDOF 2
ENDMDL
MODEL 4
REMARK VINA RESULT:      -7.1      2.359      5.117
REMARK  Name = 
REMARK  3 active torsions:
REMARK  status: ('A' for Active; 'I' for Inactive)
REMARK    1  A    between atoms: C_1  and  C_2
REMARK    2  A    between atoms: C_11  and  C_12
REMARK    3  A    between atoms: C_17  and  N_18
REMARK                            x       y       z     vdW  Elec       q    Type
REMARK                         _______ _______ _______ _____ _____    ______ ____
ROOT
ATOM      1  C   UNL     1       7.365   5.909  16.389  0.00  0.00    +0.000 C 
ATOM      2  C   UNL     1       6.064   6.107  17.109  0.00  0.00    +0.000 A 
ATOM      3  N   UNL     1       5.330   7.152  16.855  0.00  0.00    +0.000 NA
ATOM      4  C   UNL     1       4.121   7.324  17.567  0.00  0.00    +0.000 A 
ATOM      5  C   UNL     1       3.343   8.445  17.267  0.00  0.00    +0.000 A 
ATOM      6  C   UNL     1       2.149   8.687  17.947  0.00  0.00    +0.000 A 
ATOM      7  C   UNL     1       1.748   7.834  18.973  0.00  0.00    +0.000 A 
ATOM      8  C   UNL     1       2.523   6.720  19.306  0.00  0.00    +0.000 A 
ATOM      9  C   UNL     1       3.667   6.428  18.560  0.00  0.00    +0.000 A 
ATOM     10  N   UNL     1       4.435   5.252  18.719  0.00  0.00    +0.000 N 
ATOM     11  C   UNL     1       4.257   4.036  19.371  0.00  0.00    +0.000 A 
ATOM     12  N   UNL     1       5.372   3.333  19.225  0.00  0.00    +0.000 NA
ATOM     13  N   UNL     1       6.227   4.009  18.389  0.00  0.00    +0.000 NA
ATOM     14  C   UNL     1       5.626   5.124  18.054  0.00  0.00    +0.000 A 
ENDROOT
BRANCH  11  15
ATOM     15  C   UNL     1       3.045   3.503  20.006  0.00  0.00    +0.000 A 
ATOM     16  C   UNL     1       2.952   3.452  21.410  0.00  0.00    +0.000 A 
ATOM     17  C   UNL     1       1.844   2.891  22.053  0.00  0.00    +0.000 A 
ATOM     18  C   UNL     1       0.751   2.456  21.313  0.00  0.00    +0.000 A 
ATOM     19  C   UNL     1       0.760   2.591  19.927  0.00  0.00    +0.000 A 
ATOM     20  C   UNL     1       1.904   3.106  19.289  0.00  0.00    +0.000 A 
BRANCH  20  21
ATOM     21  N   UNL     1       1.854   3.184  17.838  0.00  0.00    +0.000 N 
ATOM     22  O   UNL     1       2.389   2.257  17.212  0.00  0.00    +0.000 OA
ATOM     23  O   UNL     1       1.198   4.108  17.341  0.00  0.00    +0.000 OA
ENDBRANCH  20  21
ENDBRANCH  11  15
TORSDOF 2
ENDMDL
MODEL 5
REMARK VINA RESULT:      -6.7      2.209      2.851
REMARK  Name = 
REMARK  3 active torsions:
REMARK  status: ('A' for Active; 'I' for Inactive)
REMARK    1  A    between atoms: C_1  and  C_2
REMARK    2  A    between atoms: C_11  and  C_12
REMARK    3  A    between atoms: C_17  and  N_18
REMARK                            x       y       z     vdW  Elec       q    Type
REMARK                         _______ _______ _______ _____ _____    ______ ____
ROOT
ATOM      1  C   UNL     1       1.195   1.517  18.949  0.00  0.00    +0.000 C 
ATOM      2  C   UNL     1       1.715   2.918  19.081  0.00  0.00    +0.000 A 
ATOM      3  N   UNL     1       1.079   3.783  19.818  0.00  0.00    +0.000 NA
ATOM      4  C   UNL     1       1.580   5.102  19.904  0.00  0.00    +0.000 A 
ATOM      5  C   UNL     1       0.891   6.009  20.713  0.00  0.00    +0.000 A 
ATOM      6  C   UNL     1       1.317   7.332  20.826  0.00  0.00    +0.000 A 
ATOM      7  C   UNL     1       2.412   7.775  20.086  0.00  0.00    +0.000 A 
ATOM      8  C   UNL     1       3.103   6.891  19.253  0.00  0.00    +0.000 A 
ATOM      9  C   UNL     1       2.732   5.546  19.216  0.00  0.00    +0.000 A 
ATOM     10  N   UNL     1       3.452   4.546  18.523  0.00  0.00    +0.000 N 
ATOM     11  C   UNL     1       4.707   4.464  17.930  0.00  0.00    +0.000 A 
ATOM     12  N   UNL     1       4.807   3.271  17.360  0.00  0.00    +0.000 NA
ATOM     13  N   UNL     1       3.697   2.526  17.673  0.00  0.00    +0.000 NA
ATOM     14  C   UNL     1       2.928   3.284  18.414  0.00  0.00    +0.000 A 
ENDROOT
BRANCH  11  15
ATOM     15  C   UNL     1       5.818   5.423  17.995  0.00  0.00    +0.000 A 
ATOM     16  C   UNL     1       6.802   5.292  18.993  0.00  0.00    +0.000 A 
ATOM     17  C   UNL     1       7.838   6.222  19.131  0.00  0.00    +0.000 A 
ATOM     18  C   UNL     1       7.977   7.254  18.212  0.00  0.00    +0.000 A 
ATOM     19  C   UNL     1       7.087   7.354  17.146  0.00  0.00    +0.000 A 
ATOM     20  C   UNL     1       6.017   6.445  17.051  0.00  0.00    +0.000 A 
BRANCH  20  21
ATOM     21  N   UNL     1       5.108   6.632  15.933  0.00  0.00    +0.000 N 
ATOM     22  O   UNL     1       4.188   7.448  16.094  0.00  0.00    +0.000 OA
ATOM     23  O   UNL     1       5.377   6.046  14.877  0.00  0.00    +0.000 OA
ENDBRANCH  20  21
ENDBRANCH  11  15
TORSDOF 2
ENDMDL
MODEL 6
REMARK VINA RESULT:      -6.5      2.814      6.079
REMARK  Name = 
REMARK  3 active torsions:
REMARK  status: ('A' for Active; 'I' for Inactive)
REMARK    1  A    between atoms: C_1  and  C_2
REMARK    2  A    between atoms: C_11  and  C_12
REMARK    3  A    between atoms: C_17  and  N_18
REMARK                            x       y       z     vdW  Elec       q    Type
REMARK                         _______ _______ _______ _____ _____    ______ ____
ROOT
ATOM      1  C   UNL     1       6.150   4.364  15.751  0.00  0.00    +0.000 C 
ATOM      2  C   UNL     1       4.933   4.345  16.628  0.00  0.00    +0.000 A 
ATOM      3  N   UNL     1       4.440   3.211  17.035  0.00  0.00    +0.000 NA
ATOM      4  C   UNL     1       3.278   3.224  17.841  0.00  0.00    +0.000 A 
ATOM      5  C   UNL     1       2.777   1.996  18.279  0.00  0.00    +0.000 A 
ATOM      6  C   UNL     1       1.621   1.934  19.059  0.00  0.00    +0.000 A 
ATOM      7  C   UNL     1       0.926   3.102  19.364  0.00  0.00    +0.000 A 
ATOM      8  C   UNL     1       1.397   4.339  18.917  0.00  0.00    +0.000 A 
ATOM      9  C   UNL     1       2.604   4.406  18.219  0.00  0.00    +0.000 A 
ATOM     10  N   UNL     1       3.238   5.615  17.851  0.00  0.00    +0.000 N 
ATOM     11  C   UNL     1       3.083   6.955  18.190  0.00  0.00    +0.000 A 
ATOM     12  N   UNL     1       3.938   7.658  17.458  0.00  0.00    +0.000 NA
ATOM     13  N   UNL     1       4.733   6.797  16.742  0.00  0.00    +0.000 NA
ATOM     14  C   UNL     1       4.338   5.583  17.034  0.00  0.00    +0.000 A 
ENDROOT
BRANCH  11  15
ATOM     15  C   UNL     1       2.248   7.545  19.244  0.00  0.00    +0.000 A 
ATOM     16  C   UNL     1       2.222   6.966  20.526  0.00  0.00    +0.000 A 
ATOM     17  C   UNL     1       1.390   7.457  21.538  0.00  0.00    +0.000 A 
ATOM     18  C   UNL     1       0.634   8.603  21.327  0.00  0.00    +0.000 A 
ATOM     19  C   UNL     1       0.716   9.268  20.106  0.00  0.00    +0.000 A 
ATOM     20  C   UNL     1       1.514   8.732  19.079  0.00  0.00    +0.000 A 
BRANCH  20  21
ATOM     21  N   UNL     1       1.522   9.460  17.821  0.00  0.00    +0.000 N 
ATOM     22  O   UNL     1       0.644   9.162  16.999  0.00  0.00    +0.000 OA
ATOM     23  O   UNL     1       2.335  10.387  17.706  0.00  0.00    +0.000 OA
ENDBRANCH  20  21
ENDBRANCH  11  15
TORSDOF 2
ENDMDL
MODEL 7
REMARK VINA RESULT:      -6.5      2.249      5.499
REMARK  Name = 
REMARK  3 active torsions:
REMARK  status: ('A' for Active; 'I' for Inactive)
REMARK    1  A    between atoms: C_1  and  C_2
REMARK    2  A    between atoms: C_11  and  C_12
REMARK    3  A    between atoms: C_17  and  N_18
REMARK                            x       y       z     vdW  Elec       q    Type
REMARK                         _______ _______ _______ _____ _____    ______ ____
ROOT
ATOM      1  C   UNL     1       6.181   4.669  13.556  0.00  0.00    +0.000 C 
ATOM      2  C   UNL     1       6.189   4.835  15.047  0.00  0.00    +0.000 A 
ATOM      3  N   UNL     1       7.088   5.585  15.615  0.00  0.00    +0.000 NA
ATOM      4  C   UNL     1       7.085   5.703  17.024  0.00  0.00    +0.000 A 
ATOM      5  C   UNL     1       8.050   6.526  17.611  0.00  0.00    +0.000 A 
ATOM      6  C   UNL     1       8.118   6.670  18.997  0.00  0.00    +0.000 A 
ATOM      7  C   UNL     1       7.251   5.948  19.814  0.00  0.00    +0.000 A 
ATOM      8  C   UNL     1       6.293   5.101  19.250  0.00  0.00    +0.000 A 
ATOM      9  C   UNL     1       6.166   5.032  17.861  0.00  0.00    +0.000 A 
ATOM     10  N   UNL     1       5.139   4.323  17.196  0.00  0.00    +0.000 N 
ATOM     11  C   UNL     1       3.937   3.737  17.576  0.00  0.00    +0.000 A 
ATOM     12  N   UNL     1       3.423   3.142  16.507  0.00  0.00    +0.000 NA
ATOM     13  N   UNL     1       4.198   3.432  15.412  0.00  0.00    +0.000 NA
ATOM     14  C   UNL     1       5.184   4.183  15.833  0.00  0.00    +0.000 A 
ENDROOT
BRANCH  11  15
ATOM     15  C   UNL     1       3.236   3.830  18.863  0.00  0.00    +0.000 A 
ATOM     16  C   UNL     1       2.302   4.860  19.081  0.00  0.00    +0.000 A 
ATOM     17  C   UNL     1       1.663   5.024  20.315  0.00  0.00    +0.000 A 
ATOM     18  C   UNL     1       1.865   4.102  21.335  0.00  0.00    +0.000 A 
ATOM     19  C   UNL     1       2.699   3.007  21.120  0.00  0.00    +0.000 A 
ATOM     20  C   UNL     1       3.377   2.886  19.894  0.00  0.00    +0.000 A 
BRANCH  20  21
ATOM     21  N   UNL     1       4.259   1.738  19.755  0.00  0.00    +0.000 N 
ATOM     22  O   UNL     1       5.216   1.672  20.539  0.00  0.00    +0.000 OA
ATOM     23  O   UNL     1       3.932   0.866  18.939  0.00  0.00    +0.000 OA
ENDBRANCH  20  21
ENDBRANCH  11  15
TORSDOF 2
ENDMDL
MODEL 8
REMARK VINA RESULT:      -6.4      2.688      5.536
REMARK  Name = 
REMARK  3 active torsions:
REMARK  status: ('A' for Active; 'I' for Inactive)
REMARK    1  A    between atoms: C_1  and  C_2
REMARK    2  A    between atoms: C_11  and  C_12
REMARK    3  A    between atoms: C_17  and  N_18
REMARK                            x       y       z     vdW  Elec       q    Type
REMARK                         _______ _______ _______ _____ _____    ______ ____
ROOT
ATOM      1  C   UNL     1       2.627   2.058  19.878  0.00  0.00    +0.000 C 
ATOM      2  C   UNL     1       3.025   3.336  19.200  0.00  0.00    +0.000 A 
ATOM      3  N   UNL     1       3.765   3.303  18.130  0.00  0.00    +0.000 NA
ATOM      4  C   UNL     1       4.144   4.525  17.527  0.00  0.00    +0.000 A 
ATOM      5  C   UNL     1       4.925   4.465  16.370  0.00  0.00    +0.000 A 
ATOM      6  C   UNL     1       5.352   5.632  15.737  0.00  0.00    +0.000 A 
ATOM      7  C   UNL     1       5.044   6.874  16.287  0.00  0.00    +0.000 A 
ATOM      8  C   UNL     1       4.283   6.957  17.455  0.00  0.00    +0.000 A 
ATOM      9  C   UNL     1       3.777   5.792  18.033  0.00  0.00    +0.000 A 
ATOM     10  N   UNL     1       2.880   5.776  19.126  0.00  0.00    +0.000 N 
ATOM     11  C   UNL     1       2.096   6.724  19.774  0.00  0.00    +0.000 A 
ATOM     12  N   UNL     1       1.504   6.125  20.800  0.00  0.00    +0.000 NA
ATOM     13  N   UNL     1       1.785   4.781  20.762  0.00  0.00    +0.000 NA
ATOM     14  C   UNL     1       2.559   4.585  19.724  0.00  0.00    +0.000 A 
ENDROOT
BRANCH  11  15
ATOM     15  C   UNL     1       1.817   8.111  19.380  0.00  0.00    +0.000 A 
ATOM     16  C   UNL     1       2.118   8.543  18.074  0.00  0.00    +0.000 A 
ATOM     17  C   UNL     1       1.931   9.872  17.679  0.00  0.00    +0.000 A 
ATOM     18  C   UNL     1       1.344  10.784  18.548  0.00  0.00    +0.000 A 
ATOM     19  C   UNL     1       0.932  10.367  19.811  0.00  0.00    +0.000 A 
ATOM     20  C   UNL     1       1.177   9.042  20.215  0.00  0.00    +0.000 A 
BRANCH  20  21
ATOM     21  N   UNL     1       0.753   8.688  21.560  0.00  0.00    +0.000 N 
ATOM     22  O   UNL     1       1.561   8.904  22.474  0.00  0.00    +0.000 OA
ATOM     23  O   UNL     1      -0.412   8.296  21.703  0.00  0.00    +0.000 OA
ENDBRANCH  20  21
ENDBRANCH  11  15
TORSDOF 2
ENDMDL
MODEL 9
REMARK VINA RESULT:      -6.4      3.606      7.023
REMARK  Name = 
REMARK  3 active torsions:
REMARK  status: ('A' for Active; 'I' for Inactive)
REMARK    1  A    between atoms: C_1  and  C_2
REMARK    2  A    between atoms: C_11  and  C_12
REMARK    3  A    between atoms: C_17  and  N_18
REMARK                            x       y       z     vdW  Elec       q    Type
REMARK                         _______ _______ _______ _____ _____    ______ ____
ROOT
ATOM      1  C   UNL     1       5.162   6.407  16.183  0.00  0.00    +0.000 C 
ATOM      2  C   UNL     1       4.228   6.189  17.336  0.00  0.00    +0.000 A 
ATOM      3  N   UNL     1       4.250   5.064  17.989  0.00  0.00    +0.000 NA
ATOM      4  C   UNL     1       3.341   4.878  19.057  0.00  0.00    +0.000 A 
ATOM      5  C   UNL     1       3.393   3.668  19.753  0.00  0.00    +0.000 A 
ATOM      6  C   UNL     1       2.511   3.411  20.803  0.00  0.00    +0.000 A 
ATOM      7  C   UNL     1       1.531   4.344  21.132  0.00  0.00    +0.000 A 
ATOM      8  C   UNL     1       1.446   5.551  20.434  0.00  0.00    +0.000 A 
ATOM      9  C   UNL     1       2.390   5.846  19.448  0.00  0.00    +0.000 A 
ATOM     10  N   UNL     1       2.480   7.093  18.788  0.00  0.00    +0.000 N 
ATOM     11  C   UNL     1       1.942   8.360  18.990  0.00  0.00    +0.000 A 
ATOM     12  N   UNL     1       2.336   9.131  17.986  0.00  0.00    +0.000 NA
ATOM     13  N   UNL     1       3.220   8.432  17.200  0.00  0.00    +0.000 NA
ATOM     14  C   UNL     1       3.336   7.239  17.727  0.00  0.00    +0.000 A 
ENDROOT
BRANCH  11  15
ATOM     15  C   UNL     1       1.183   8.861  20.143  0.00  0.00    +0.000 A 
ATOM     16  C   UNL     1       1.514   8.432  21.442  0.00  0.00    +0.000 A 
ATOM     17  C   UNL     1       0.774   8.834  22.560  0.00  0.00    +0.000 A 
ATOM     18  C   UNL     1      -0.256   9.756  22.422  0.00  0.00    +0.000 A 
ATOM     19  C   UNL     1      -0.543  10.287  21.167  0.00  0.00    +0.000 A 
ATOM     20  C   UNL     1       0.173   9.833  20.044  0.00  0.00    +0.000 A 
BRANCH  20  21
ATOM     21  N   UNL     1      -0.206  10.405  18.762  0.00  0.00    +0.000 N 
ATOM     22  O   UNL     1      -0.990   9.743  18.067  0.00  0.00    +0.000 OA
ATOM     23  O   UNL     1       0.198  11.546  18.508  0.00  0.00    +0.000 OA
ENDBRANCH  20  21
ENDBRANCH  11  15
TORSDOF 2
ENDMDL
