MODEL 1
REMARK VINA RESULT:      -7.4      0.000      0.000
REMARK  Name = 
REMARK  8 active torsions:
REMARK  status: ('A' for Active; 'I' for Inactive)
REMARK    1  A    between atoms: C_2  and  C_3
REMARK    2  A    between atoms: C_3  and  C_4
REMARK    3  A    between atoms: C_8  and  C_9
REMARK    4  A    between atoms: C_12  and  O_13
REMARK    5  A    between atoms: O_13  and  C_14
REMARK    6  A    between atoms: C_14  and  C_15
REMARK    7  A    between atoms: C_15  and  C_16
REMARK    8  A    between atoms: N_18  and  O_19
REMARK                            x       y       z     vdW  Elec       q    Type
REMARK                         _______ _______ _______ _____ _____    ______ ____
ROOT
ATOM      1  C   UNL     1       5.192   4.757  15.887  0.00  0.00    +0.000 A 
ATOM      2  C   UNL     1       4.888   3.668  16.717  0.00  0.00    +0.000 A 
ATOM      3  C   UNL     1       4.386   3.852  18.004  0.00  0.00    +0.000 A 
ATOM      4  C   UNL     1       4.144   5.134  18.499  0.00  0.00    +0.000 A 
ATOM      5  C   UNL     1       4.403   6.229  17.678  0.00  0.00    +0.000 A 
ATOM      6  C   UNL     1       4.925   6.043  16.389  0.00  0.00    +0.000 A 
ENDROOT
BRANCH   1  11
ATOM      7  C   UNL     1       5.768   3.460  12.362  0.00  0.00    +0.000 A 
ATOM      8  C   UNL     1       6.998   4.043  12.049  0.00  0.00    +0.000 A 
ATOM      9  C   UNL     1       7.629   4.876  12.971  0.00  0.00    +0.000 A 
ATOM     10  C   UNL     1       7.039   5.127  14.214  0.00  0.00    +0.000 A 
ATOM     11  C   UNL     1       5.814   4.544  14.566  0.00  0.00    +0.000 A 
ATOM     12  C   UNL     1       5.191   3.717  13.613  0.00  0.00    +0.000 A 
BRANCH   7  13
ATOM     13  C   UNL     1       5.032   2.601  11.369  0.00  0.00    +0.000 C 
BRANCH  13  15
ATOM     14  N   UNL     1       3.080   4.050  10.018  0.00  0.00    +0.000 NA
ATOM     15  C   UNL     1       3.966   3.394  10.631  0.00  0.00    +0.000 C 
ENDBRANCH  13  15
ENDBRANCH   7  13
ENDBRANCH   1  11
BRANCH   4  16
ATOM     16  O   UNL     1       3.667   5.414  19.757  0.00  0.00    +0.000 OA
BRANCH  16  17
ATOM     17  C   UNL     1       2.528   6.278  19.758  0.00  0.00    +0.000 C 
BRANCH  17  18
ATOM     18  C   UNL     1       1.481   5.815  20.753  0.00  0.00    +0.000 C 
BRANCH  18  19
ATOM     19  C   UNL     1       1.515   4.308  20.817  0.00  0.00    +0.000 C 
ATOM     20  O   UNL     1       0.941   3.568  20.017  0.00  0.00    +0.000 OA
ATOM     21  N   UNL     1       2.245   3.803  21.860  0.00  0.00    +0.000 N 
ATOM     22  H   UNL     1       2.821   4.344  22.492  0.00  0.00    +0.000 HD
BRANCH  21  23
ATOM     23  O   UNL     1       2.335   2.397  21.932  0.00  0.00    +0.000 OA
ATOM     24  H   UNL     1       2.994   2.189  21.231  0.00  0.00    +0.000 HD
ENDBRANCH  21  23
ENDBRANCH  18  19
ENDBRANCH  17  18
ENDBRANCH  16  17
ENDBRANCH   4  16
TORSDOF 8
ENDMDL
MODEL 2
REMARK VINA RESULT:      -7.3      0.858      1.098
REMARK  Name = 
REMARK  8 active torsions:
REMARK  status: ('A' for Active; 'I' for Inactive)
REMARK    1  A    between atoms: C_2  and  C_3
REMARK    2  A    between atoms: C_3  and  C_4
REMARK    3  A    between atoms: C_8  and  C_9
REMARK    4  A    between atoms: C_12  and  O_13
REMARK    5  A    between atoms: O_13  and  C_14
REMARK    6  A    between atoms: C_14  and  C_15
REMARK    7  A    between atoms: C_15  and  C_16
REMARK    8  A    between atoms: N_18  and  O_19
REMARK                            x       y       z     vdW  Elec       q    Type
REMARK                         _______ _______ _______ _____ _____    ______ ____
ROOT
ATOM      1  C   UNL     1       5.238   4.767  15.884  0.00  0.00    +0.000 A 
ATOM      2  C   UNL     1       4.935   3.677  16.713  0.00  0.00    +0.000 A 
ATOM      3  C   UNL     1       4.424   3.859  17.997  0.00  0.00    +0.000 A 
ATOM      4  C   UNL     1       4.173   5.140  18.489  0.00  0.00    +0.000 A 
ATOM      5  C   UNL     1       4.431   6.236  17.669  0.00  0.00    +0.000 A 
ATOM      6  C   UNL     1       4.961   6.052  16.384  0.00  0.00    +0.000 A 
ENDROOT
BRANCH   1  11
ATOM      7  C   UNL     1       5.848   3.460  12.368  0.00  0.00    +0.000 A 
ATOM      8  C   UNL     1       7.070   4.061  12.057  0.00  0.00    +0.000 A 
ATOM      9  C   UNL     1       7.684   4.908  12.977  0.00  0.00    +0.000 A 
ATOM     10  C   UNL     1       7.086   5.157  14.217  0.00  0.00    +0.000 A 
ATOM     11  C   UNL     1       5.868   4.557  14.567  0.00  0.00    +0.000 A 
ATOM     12  C   UNL     1       5.261   3.715  13.615  0.00  0.00    +0.000 A 
BRANCH   7  13
ATOM     13  C   UNL     1       5.128   2.586  11.377  0.00  0.00    +0.000 C 
BRANCH  13  15
ATOM     14  N   UNL     1       3.073   3.963  10.105  0.00  0.00    +0.000 NA
ATOM     15  C   UNL     1       4.006   3.339  10.682  0.00  0.00    +0.000 C 
ENDBRANCH  13  15
ENDBRANCH   7  13
ENDBRANCH   1  11
BRANCH   4  16
ATOM     16  O   UNL     1       3.688   5.418  19.745  0.00  0.00    +0.000 OA
BRANCH  16  17
ATOM     17  C   UNL     1       2.304   5.777  19.757  0.00  0.00    +0.000 C 
BRANCH  17  18
ATOM     18  C   UNL     1       1.531   4.975  20.786  0.00  0.00    +0.000 C 
BRANCH  18  19
ATOM     19  C   UNL     1       1.544   3.525  20.370  0.00  0.00    +0.000 C 
ATOM     20  O   UNL     1       1.908   2.599  21.097  0.00  0.00    +0.000 OA
ATOM     21  N   UNL     1       1.117   3.300  19.089  0.00  0.00    +0.000 N 
ATOM     22  H   UNL     1       0.712   3.994  18.473  0.00  0.00    +0.000 HD
BRANCH  21  23
ATOM     23  O   UNL     1       1.077   1.952  18.674  0.00  0.00    +0.000 OA
ATOM     24  H   UNL     1       1.329   2.013  17.724  0.00  0.00    +0.000 HD
ENDBRANCH  21  23
ENDBRANCH  18  19
ENDBRANCH  17  18
ENDBRANCH  16  17
ENDBRANCH   4  16
TORSDOF 8
ENDMDL
MODEL 3
REMARK VINA RESULT:      -7.3      4.085      8.751
REMARK  Name = 
REMARK  8 active torsions:
REMARK  status: ('A' for Active; 'I' for Inactive)
REMARK    1  A    between atoms: C_2  and  C_3
REMARK    2  A    between atoms: C_3  and  C_4
REMARK    3  A    between atoms: C_8  and  C_9
REMARK    4  A    between atoms: C_12  and  O_13
REMARK    5  A    between atoms: O_13  and  C_14
REMARK    6  A    between atoms: C_14  and  C_15
REMARK    7  A    between atoms: C_15  and  C_16
REMARK    8  A    between atoms: N_18  and  O_19
REMARK                            x       y       z     vdW  Elec       q    Type
REMARK                         _______ _______ _______ _____ _____    ______ ____
ROOT
ATOM      1  C   UNL     1       3.023   6.631  18.209  0.00  0.00    +0.000 A 
ATOM      2  C   UNL     1       2.394   5.398  17.980  0.00  0.00    +0.000 A 
ATOM      3  C   UNL     1       3.071   4.337  17.381  0.00  0.00    +0.000 A 
ATOM      4  C   UNL     1       4.411   4.462  17.013  0.00  0.00    +0.000 A 
ATOM      5  C   UNL     1       5.066   5.666  17.265  0.00  0.00    +0.000 A 
ATOM      6  C   UNL     1       4.379   6.738  17.853  0.00  0.00    +0.000 A 
ENDROOT
BRANCH   1  11
ATOM      7  C   UNL     1       1.127   8.835  20.656  0.00  0.00    +0.000 A 
ATOM      8  C   UNL     1       0.742   9.896  19.834  0.00  0.00    +0.000 A 
ATOM      9  C   UNL     1       1.117   9.908  18.492  0.00  0.00    +0.000 A 
ATOM     10  C   UNL     1       1.874   8.859  17.961  0.00  0.00    +0.000 A 
ATOM     11  C   UNL     1       2.263   7.771  18.755  0.00  0.00    +0.000 A 
ATOM     12  C   UNL     1       1.882   7.788  20.111  0.00  0.00    +0.000 A 
BRANCH   7  13
ATOM     13  C   UNL     1       0.789   8.817  22.123  0.00  0.00    +0.000 C 
BRANCH  13  15
ATOM     14  N   UNL     1      -0.547  11.133  22.887  0.00  0.00    +0.000 NA
ATOM     15  C   UNL     1       0.059  10.083  22.541  0.00  0.00    +0.000 C 
ENDBRANCH  13  15
ENDBRANCH   7  13
ENDBRANCH   1  11
BRANCH   4  16
ATOM     16  O   UNL     1       5.154   3.480  16.403  0.00  0.00    +0.000 OA
BRANCH  16  17
ATOM     17  C   UNL     1       6.212   3.986  15.586  0.00  0.00    +0.000 C 
BRANCH  17  18
ATOM     18  C   UNL     1       5.816   4.021  14.122  0.00  0.00    +0.000 C 
BRANCH  18  19
ATOM     19  C   UNL     1       6.978   4.561  13.325  0.00  0.00    +0.000 C 
ATOM     20  O   UNL     1       7.205   4.272  12.149  0.00  0.00    +0.000 OA
ATOM     21  N   UNL     1       7.792   5.415  14.020  0.00  0.00    +0.000 N 
ATOM     22  H   UNL     1       7.613   5.774  14.949  0.00  0.00    +0.000 HD
BRANCH  21  23
ATOM     23  O   UNL     1       8.868   5.973  13.298  0.00  0.00    +0.000 OA
ATOM     24  H   UNL     1       8.449   6.209  12.439  0.00  0.00    +0.000 HD
ENDBRANCH  21  23
ENDBRANCH  18  19
ENDBRANCH  17  18
ENDBRANCH  16  17
ENDBRANCH   4  16
TORSDOF 8
ENDMDL
MODEL 4
REMARK VINA RESULT:      -7.3      1.117      1.531
REMARK  Name = 
REMARK  8 active torsions:
REMARK  status: ('A' for Active; 'I' for Inactive)
REMARK    1  A    between atoms: C_2  and  C_3
REMARK    2  A    between atoms: C_3  and  C_4
REMARK    3  A    between atoms: C_8  and  C_9
REMARK    4  A    between atoms: C_12  and  O_13
REMARK    5  A    between atoms: O_13  and  C_14
REMARK    6  A    between atoms: C_14  and  C_15
REMARK    7  A    between atoms: C_15  and  C_16
REMARK    8  A    between atoms: N_18  and  O_19
REMARK                            x       y       z     vdW  Elec       q    Type
REMARK                         _______ _______ _______ _____ _____    ______ ____
ROOT
ATOM      1  C   UNL     1       5.647   5.056  15.804  0.00  0.00    +0.000 A 
ATOM      2  C   UNL     1       5.178   6.343  16.107  0.00  0.00    +0.000 A 
ATOM      3  C   UNL     1       4.640   6.645  17.356  0.00  0.00    +0.000 A 
ATOM      4  C   UNL     1       4.576   5.677  18.358  0.00  0.00    +0.000 A 
ATOM      5  C   UNL     1       5.070   4.402  18.091  0.00  0.00    +0.000 A 
ATOM      6  C   UNL     1       5.595   4.094  16.828  0.00  0.00    +0.000 A 
ENDROOT
BRANCH   1  11
ATOM      7  C   UNL     1       5.816   3.502  12.340  0.00  0.00    +0.000 A 
ATOM      8  C   UNL     1       7.023   4.017  11.862  0.00  0.00    +0.000 A 
ATOM      9  C   UNL     1       7.770   4.886  12.654  0.00  0.00    +0.000 A 
ATOM     10  C   UNL     1       7.321   5.243  13.930  0.00  0.00    +0.000 A 
ATOM     11  C   UNL     1       6.122   4.730  14.445  0.00  0.00    +0.000 A 
ATOM     12  C   UNL     1       5.378   3.864  13.621  0.00  0.00    +0.000 A 
BRANCH   7  13
ATOM     13  C   UNL     1       4.955   2.606  11.490  0.00  0.00    +0.000 C 
BRANCH  13  15
ATOM     14  N   UNL     1       3.091   4.067  10.033  0.00  0.00    +0.000 NA
ATOM     15  C   UNL     1       3.936   3.404  10.695  0.00  0.00    +0.000 C 
ENDBRANCH  13  15
ENDBRANCH   7  13
ENDBRANCH   1  11
BRANCH   4  16
ATOM     16  O   UNL     1       4.050   5.876  19.612  0.00  0.00    +0.000 OA
BRANCH  16  17
ATOM     17  C   UNL     1       2.626   5.996  19.624  0.00  0.00    +0.000 C 
BRANCH  17  18
ATOM     18  C   UNL     1       1.975   4.826  20.336  0.00  0.00    +0.000 C 
BRANCH  18  19
ATOM     19  C   UNL     1       1.628   3.774  19.311  0.00  0.00    +0.000 C 
ATOM     20  O   UNL     1       1.258   4.022  18.163  0.00  0.00    +0.000 OA
ATOM     21  N   UNL     1       1.751   2.486  19.759  0.00  0.00    +0.000 N 
ATOM     22  H   UNL     1       2.142   2.207  20.650  0.00  0.00    +0.000 HD
BRANCH  21  23
ATOM     23  O   UNL     1       1.474   1.472  18.819  0.00  0.00    +0.000 OA
ATOM     24  H   UNL     1       0.809   0.920  19.289  0.00  0.00    +0.000 HD
ENDBRANCH  21  23
ENDBRANCH  18  19
ENDBRANCH  17  18
ENDBRANCH  16  17
ENDBRANCH   4  16
TORSDOF 8
ENDMDL
MODEL 5
REMARK VINA RESULT:      -7.3      1.465      1.737
REMARK  Name = 
REMARK  8 active torsions:
REMARK  status: ('A' for Active; 'I' for Inactive)
REMARK    1  A    between atoms: C_2  and  C_3
REMARK    2  A    between atoms: C_3  and  C_4
REMARK    3  A    between atoms: C_8  and  C_9
REMARK    4  A    between atoms: C_12  and  O_13
REMARK    5  A    between atoms: O_13  and  C_14
REMARK    6  A    between atoms: C_14  and  C_15
REMARK    7  A    between atoms: C_15  and  C_16
REMARK    8  A    between atoms: N_18  and  O_19
REMARK                            x       y       z     vdW  Elec       q    Type
REMARK                         _______ _______ _______ _____ _____    ______ ____
ROOT
ATOM      1  C   UNL     1       5.257   4.877  15.881  0.00  0.00    +0.000 A 
ATOM      2  C   UNL     1       4.758   3.809  16.643  0.00  0.00    +0.000 A 
ATOM      3  C   UNL     1       4.245   4.008  17.924  0.00  0.00    +0.000 A 
ATOM      4  C   UNL     1       4.187   5.286  18.478  0.00  0.00    +0.000 A 
ATOM      5  C   UNL     1       4.642   6.366  17.725  0.00  0.00    +0.000 A 
ATOM      6  C   UNL     1       5.174   6.163  16.444  0.00  0.00    +0.000 A 
ENDROOT
BRANCH   1  11
ATOM      7  C   UNL     1       5.845   3.505  12.386  0.00  0.00    +0.000 A 
ATOM      8  C   UNL     1       7.081   4.073  12.069  0.00  0.00    +0.000 A 
ATOM      9  C   UNL     1       7.712   4.919  12.979  0.00  0.00    +0.000 A 
ATOM     10  C   UNL     1       7.117   5.200  14.213  0.00  0.00    +0.000 A 
ATOM     11  C   UNL     1       5.885   4.633  14.569  0.00  0.00    +0.000 A 
ATOM     12  C   UNL     1       5.262   3.791  13.628  0.00  0.00    +0.000 A 
BRANCH   7  13
ATOM     13  C   UNL     1       5.109   2.633  11.406  0.00  0.00    +0.000 C 
BRANCH  13  15
ATOM     14  N   UNL     1       6.401   0.197  11.041  0.00  0.00    +0.000 NA
ATOM     15  C   UNL     1       5.815   1.302  11.206  0.00  0.00    +0.000 C 
ENDBRANCH  13  15
ENDBRANCH   7  13
ENDBRANCH   1  11
BRANCH   4  16
ATOM     16  O   UNL     1       3.714   5.577  19.736  0.00  0.00    +0.000 OA
BRANCH  16  17
ATOM     17  C   UNL     1       2.287   5.616  19.817  0.00  0.00    +0.000 C 
BRANCH  17  18
ATOM     18  C   UNL     1       1.770   4.722  20.928  0.00  0.00    +0.000 C 
BRANCH  18  19
ATOM     19  C   UNL     1       1.393   3.388  20.332  0.00  0.00    +0.000 C 
ATOM     20  O   UNL     1       1.638   2.300  20.857  0.00  0.00    +0.000 OA
ATOM     21  N   UNL     1       0.745   3.469  19.128  0.00  0.00    +0.000 N 
ATOM     22  H   UNL     1       0.424   4.322  18.689  0.00  0.00    +0.000 HD
BRANCH  21  23
ATOM     23  O   UNL     1       0.340   2.245  18.556  0.00  0.00    +0.000 OA
ATOM     24  H   UNL     1       0.837   1.584  19.090  0.00  0.00    +0.000 HD
ENDBRANCH  21  23
ENDBRANCH  18  19
ENDBRANCH  17  18
ENDBRANCH  16  17
ENDBRANCH   4  16
TORSDOF 8
ENDMDL
MODEL 6
REMARK VINA RESULT:      -7.2      1.309      1.414
REMARK  Name = 
REMARK  8 active torsions:
REMARK  status: ('A' for Active; 'I' for Inactive)
REMARK    1  A    between atoms: C_2  and  C_3
REMARK    2  A    between atoms: C_3  and  C_4
REMARK    3  A    between atoms: C_8  and  C_9
REMARK    4  A    between atoms: C_12  and  O_13
REMARK    5  A    between atoms: O_13  and  C_14
REMARK    6  A    between atoms: C_14  and  C_15
REMARK    7  A    between atoms: C_15  and  C_16
REMARK    8  A    between atoms: N_18  and  O_19
REMARK                            x       y       z     vdW  Elec       q    Type
REMARK                         _______ _______ _______ _____ _____    ______ ____
ROOT
ATOM      1  C   UNL     1       5.429   4.836  15.780  0.00  0.00    +0.000 A 
ATOM      2  C   UNL     1       5.312   3.788  16.705  0.00  0.00    +0.000 A 
ATOM      3  C   UNL     1       4.850   4.011  18.001  0.00  0.00    +0.000 A 
ATOM      4  C   UNL     1       4.462   5.287  18.411  0.00  0.00    +0.000 A 
ATOM      5  C   UNL     1       4.535   6.335  17.496  0.00  0.00    +0.000 A 
ATOM      6  C   UNL     1       5.016   6.113  16.198  0.00  0.00    +0.000 A 
ENDROOT
BRANCH   1  11
ATOM      7  C   UNL     1       5.909   3.460  12.270  0.00  0.00    +0.000 A 
ATOM      8  C   UNL     1       7.122   4.048  11.905  0.00  0.00    +0.000 A 
ATOM      9  C   UNL     1       7.772   4.909  12.786  0.00  0.00    +0.000 A 
ATOM     10  C   UNL     1       7.219   5.184  14.041  0.00  0.00    +0.000 A 
ATOM     11  C   UNL     1       6.011   4.597  14.446  0.00  0.00    +0.000 A 
ATOM     12  C   UNL     1       5.368   3.741  13.532  0.00  0.00    +0.000 A 
BRANCH   7  13
ATOM     13  C   UNL     1       5.151   2.570  11.321  0.00  0.00    +0.000 C 
BRANCH  13  15
ATOM     14  N   UNL     1       6.352   0.073  11.086  0.00  0.00    +0.000 NA
ATOM     15  C   UNL     1       5.808   1.206  11.193  0.00  0.00    +0.000 C 
ENDBRANCH  13  15
ENDBRANCH   7  13
ENDBRANCH   1  11
BRANCH   4  16
ATOM     16  O   UNL     1       4.011   5.605  19.669  0.00  0.00    +0.000 OA
BRANCH  16  17
ATOM     17  C   UNL     1       2.656   6.059  19.694  0.00  0.00    +0.000 C 
BRANCH  17  18
ATOM     18  C   UNL     1       1.696   4.965  19.265  0.00  0.00    +0.000 C 
BRANCH  18  19
ATOM     19  C   UNL     1       1.917   3.761  20.146  0.00  0.00    +0.000 C 
ATOM     20  O   UNL     1       1.892   2.596  19.746  0.00  0.00    +0.000 OA
ATOM     21  N   UNL     1       2.150   4.059  21.462  0.00  0.00    +0.000 N 
ATOM     22  H   UNL     1       2.284   4.987  21.841  0.00  0.00    +0.000 HD
BRANCH  21  23
ATOM     23  O   UNL     1       2.401   2.962  22.313  0.00  0.00    +0.000 OA
ATOM     24  H   UNL     1       3.315   3.142  22.630  0.00  0.00    +0.000 HD
ENDBRANCH  21  23
ENDBRANCH  18  19
ENDBRANCH  17  18
ENDBRANCH  16  17
ENDBRANCH   4  16
TORSDOF 8
ENDMDL
MODEL 7
REMARK VINA RESULT:      -7.2      4.745      6.881
REMARK  Name = 
REMARK  8 active torsions:
REMARK  status: ('A' for Active; 'I' for Inactive)
REMARK    1  A    between atoms: C_2  and  C_3
REMARK    2  A    between atoms: C_3  and  C_4
REMARK    3  A    between atoms: C_8  and  C_9
REMARK    4  A    between atoms: C_12  and  O_13
REMARK    5  A    between atoms: O_13  and  C_14
REMARK    6  A    between atoms: C_14  and  C_15
REMARK    7  A    between atoms: C_15  and  C_16
REMARK    8  A    between atoms: N_18  and  O_19
REMARK                            x       y       z     vdW  Elec       q    Type
REMARK                         _______ _______ _______ _____ _____    ______ ____
ROOT
ATOM      1  C   UNL     1       2.592   7.536  18.484  0.00  0.00    +0.000 A 
ATOM      2  C   UNL     1       2.219   8.690  17.778  0.00  0.00    +0.000 A 
ATOM      3  C   UNL     1       1.409   9.665  18.356  0.00  0.00    +0.000 A 
ATOM      4  C   UNL     1       0.963   9.535  19.672  0.00  0.00    +0.000 A 
ATOM      5  C   UNL     1       1.352   8.415  20.404  0.00  0.00    +0.000 A 
ATOM      6  C   UNL     1       2.153   7.426  19.815  0.00  0.00    +0.000 A 
ENDROOT
BRANCH   1  11
ATOM      7  C   UNL     1       3.893   4.082  17.578  0.00  0.00    +0.000 A 
ATOM      8  C   UNL     1       4.879   4.394  16.639  0.00  0.00    +0.000 A 
ATOM      9  C   UNL     1       5.105   5.722  16.282  0.00  0.00    +0.000 A 
ATOM     10  C   UNL     1       4.354   6.747  16.865  0.00  0.00    +0.000 A 
ATOM     11  C   UNL     1       3.368   6.470  17.823  0.00  0.00    +0.000 A 
ATOM     12  C   UNL     1       3.150   5.120  18.157  0.00  0.00    +0.000 A 
BRANCH   7  13
ATOM     13  C   UNL     1       3.582   2.656  17.945  0.00  0.00    +0.000 C 
BRANCH  13  15
ATOM     14  N   UNL     1       4.755   1.948  20.365  0.00  0.00    +0.000 NA
ATOM     15  C   UNL     1       4.222   2.269  19.267  0.00  0.00    +0.000 C 
ENDBRANCH  13  15
ENDBRANCH   7  13
ENDBRANCH   1  11
BRANCH   4  16
ATOM     16  O   UNL     1       0.150  10.434  20.320  0.00  0.00    +0.000 OA
BRANCH  16  17
ATOM     17  C   UNL     1      -0.281  11.516  19.492  0.00  0.00    +0.000 C 
BRANCH  17  18
ATOM     18  C   UNL     1      -1.795  11.601  19.433  0.00  0.00    +0.000 C 
BRANCH  18  19
ATOM     19  C   UNL     1      -2.252  11.077  18.094  0.00  0.00    +0.000 C 
ATOM     20  O   UNL     1      -2.818   9.995  17.931  0.00  0.00    +0.000 OA
ATOM     21  N   UNL     1      -1.980  11.907  17.039  0.00  0.00    +0.000 N 
ATOM     22  H   UNL     1      -1.611  12.846  17.109  0.00  0.00    +0.000 HD
BRANCH  21  23
ATOM     23  O   UNL     1      -2.427  11.471  15.774  0.00  0.00    +0.000 OA
ATOM     24  H   UNL     1      -2.409  10.491  15.867  0.00  0.00    +0.000 HD
ENDBRANCH  21  23
ENDBRANCH  18  19
ENDBRANCH  17  18
ENDBRANCH  16  17
ENDBRANCH   4  16
TORSDOF 8
ENDMDL
MODEL 8
REMARK VINA RESULT:      -7.2      3.927      8.763
REMARK  Name = 
REMARK  8 active torsions:
REMARK  status: ('A' for Active; 'I' for Inactive)
REMARK    1  A    between atoms: C_2  and  C_3
REMARK    2  A    between atoms: C_3  and  C_4
REMARK    3  A    between atoms: C_8  and  C_9
REMARK    4  A    between atoms: C_12  and  O_13
REMARK    5  A    between atoms: O_13  and  C_14
REMARK    6  A    between atoms: C_14  and  C_15
REMARK    7  A    between atoms: C_15  and  C_16
REMARK    8  A    between atoms: N_18  and  O_19
REMARK                            x       y       z     vdW  Elec       q    Type
REMARK                         _______ _______ _______ _____ _____    ______ ____
ROOT
ATOM      1  C   UNL     1       2.420   7.394  18.978  0.00  0.00    +0.000 A 
ATOM      2  C   UNL     1       2.360   6.149  19.622  0.00  0.00    +0.000 A 
ATOM      3  C   UNL     1       3.033   5.037  19.119  0.00  0.00    +0.000 A 
ATOM      4  C   UNL     1       3.814   5.137  17.967  0.00  0.00    +0.000 A 
ATOM      5  C   UNL     1       3.919   6.373  17.333  0.00  0.00    +0.000 A 
ATOM      6  C   UNL     1       3.227   7.487  17.830  0.00  0.00    +0.000 A 
ENDROOT
BRANCH   1  11
ATOM      7  C   UNL     1       0.386   9.610  21.301  0.00  0.00    +0.000 A 
ATOM      8  C   UNL     1       0.030  10.655  20.446  0.00  0.00    +0.000 A 
ATOM      9  C   UNL     1       0.469  10.654  19.123  0.00  0.00    +0.000 A 
ATOM     10  C   UNL     1       1.261   9.606  18.644  0.00  0.00    +0.000 A 
ATOM     11  C   UNL     1       1.623   8.533  19.471  0.00  0.00    +0.000 A 
ATOM     12  C   UNL     1       1.177   8.564  20.806  0.00  0.00    +0.000 A 
BRANCH   7  13
ATOM     13  C   UNL     1      -0.022   9.607  22.749  0.00  0.00    +0.000 C 
BRANCH  13  15
ATOM     14  N   UNL     1      -1.976  11.520  23.259  0.00  0.00    +0.000 NA
ATOM     15  C   UNL     1      -1.089  10.653  23.028  0.00  0.00    +0.000 C 
ENDBRANCH  13  15
ENDBRANCH   7  13
ENDBRANCH   1  11
BRANCH   4  16
ATOM     16  O   UNL     1       4.500   4.095  17.389  0.00  0.00    +0.000 OA
BRANCH  16  17
ATOM     17  C   UNL     1       4.910   4.355  16.045  0.00  0.00    +0.000 C 
BRANCH  17  18
ATOM     18  C   UNL     1       6.384   4.060  15.847  0.00  0.00    +0.000 C 
BRANCH  18  19
ATOM     19  C   UNL     1       7.176   4.917  16.804  0.00  0.00    +0.000 C 
ATOM     20  O   UNL     1       7.563   6.059  16.553  0.00  0.00    +0.000 OA
ATOM     21  N   UNL     1       7.450   4.318  18.004  0.00  0.00    +0.000 N 
ATOM     22  H   UNL     1       7.083   3.428  18.316  0.00  0.00    +0.000 HD
BRANCH  21  23
ATOM     23  O   UNL     1       8.155   5.100  18.943  0.00  0.00    +0.000 OA
ATOM     24  H   UNL     1       7.552   5.866  19.078  0.00  0.00    +0.000 HD
ENDBRANCH  21  23
ENDBRANCH  18  19
ENDBRANCH  17  18
ENDBRANCH  16  17
ENDBRANCH   4  16
TORSDOF 8
ENDMDL
MODEL 9
REMARK VINA RESULT:      -7.2      5.117      7.405
REMARK  Name = 
REMARK  8 active torsions:
REMARK  status: ('A' for Active; 'I' for Inactive)
REMARK    1  A    between atoms: C_2  and  C_3
REMARK    2  A    between atoms: C_3  and  C_4
REMARK    3  A    between atoms: C_8  and  C_9
REMARK    4  A    between atoms: C_12  and  O_13
REMARK    5  A    between atoms: O_13  and  C_14
REMARK    6  A    between atoms: C_14  and  C_15
REMARK    7  A    between atoms: C_15  and  C_16
REMARK    8  A    between atoms: N_18  and  O_19
REMARK                            x       y       z     vdW  Elec       q    Type
REMARK                         _______ _______ _______ _____ _____    ______ ____
ROOT
ATOM      1  C   UNL     1       2.284   7.404  18.637  0.00  0.00    +0.000 A 
ATOM      2  C   UNL     1       2.334   8.389  17.639  0.00  0.00    +0.000 A 
ATOM      3  C   UNL     1       1.825   9.669  17.856  0.00  0.00    +0.000 A 
ATOM      4  C   UNL     1       1.272  10.018  19.088  0.00  0.00    +0.000 A 
ATOM      5  C   UNL     1       1.246   9.066  20.105  0.00  0.00    +0.000 A 
ATOM      6  C   UNL     1       1.742   7.774  19.881  0.00  0.00    +0.000 A 
ENDROOT
BRANCH   1  11
ATOM      7  C   UNL     1       2.474   3.609  18.690  0.00  0.00    +0.000 A 
ATOM      8  C   UNL     1       3.609   3.376  17.910  0.00  0.00    +0.000 A 
ATOM      9  C   UNL     1       4.299   4.448  17.347  0.00  0.00    +0.000 A 
ATOM     10  C   UNL     1       3.864   5.760  17.565  0.00  0.00    +0.000 A 
ATOM     11  C   UNL     1       2.738   6.028  18.356  0.00  0.00    +0.000 A 
ATOM     12  C   UNL     1       2.051   4.927  18.903  0.00  0.00    +0.000 A 
BRANCH   7  13
ATOM     13  C   UNL     1       1.672   2.473  19.266  0.00  0.00    +0.000 C 
BRANCH  13  15
ATOM     14  N   UNL     1       1.735   2.487  22.046  0.00  0.00    +0.000 NA
ATOM     15  C   UNL     1       1.706   2.481  20.785  0.00  0.00    +0.000 C 
ENDBRANCH  13  15
ENDBRANCH   7  13
ENDBRANCH   1  11
BRANCH   4  16
ATOM     16  O   UNL     1       0.733  11.246  19.388  0.00  0.00    +0.000 OA
BRANCH  16  17
ATOM     17  C   UNL     1      -0.282  11.195  20.394  0.00  0.00    +0.000 C 
BRANCH  17  18
ATOM     18  C   UNL     1      -1.574  11.825  19.910  0.00  0.00    +0.000 C 
BRANCH  18  19
ATOM     19  C   UNL     1      -1.895  11.271  18.544  0.00  0.00    +0.000 C 
ATOM     20  O   UNL     1      -2.277  10.118  18.336  0.00  0.00    +0.000 OA
ATOM     21  N   UNL     1      -1.722  12.162  17.518  0.00  0.00    +0.000 N 
ATOM     22  H   UNL     1      -1.509  13.145  17.622  0.00  0.00    +0.000 HD
BRANCH  21  23
ATOM     23  O   UNL     1      -2.049  11.695  16.228  0.00  0.00    +0.000 OA
ATOM     24  H   UNL     1      -2.995  11.951  16.141  0.00  0.00    +0.000 HD
ENDBRANCH  21  23
ENDBRANCH  18  19
ENDBRANCH  17  18
ENDBRANCH  16  17
ENDBRANCH   4  16
TORSDOF 8
ENDMDL
