MODEL 1
REMARK VINA RESULT:      -9.0      0.000      0.000
REMARK  Name = 
REMARK  6 active torsions:
REMARK  status: ('A' for Active; 'I' for Inactive)
REMARK    1  A    between atoms: C_2  and  C_3
REMARK    2  A    between atoms: C_3  and  S_4
REMARK    3  A    between atoms: S_4  and  C_5
REMARK    4  A    between atoms: C_8  and  C_9
REMARK    5  A    between atoms: N_19  and  C_20
REMARK    6  A    between atoms: C_23  and  C_24
REMARK                            x       y       z     vdW  Elec       q    Type
REMARK                         _______ _______ _______ _____ _____    ______ ____
ROOT
ATOM      1  C   UNL     1       8.133   6.805  18.542  0.00  0.00    +0.000 C 
ENDROOT
BRANCH   1   3
ATOM      2  O   UNL     1       7.163   5.319  20.116  0.00  0.00    +0.000 OA
ATOM      3  C   UNL     1       7.055   5.832  19.002  0.00  0.00    +0.000 C 
ATOM      4  N   UNL     1       5.991   5.659  18.142  0.00  0.00    +0.000 N 
ATOM      5  H   UNL     1       6.104   5.953  17.178  0.00  0.00    +0.000 HD
BRANCH   4   6
ATOM      6  C   UNL     1       4.786   5.010  18.470  0.00  0.00    +0.000 A 
ATOM      7  N   UNL     1       4.822   3.747  18.944  0.00  0.00    +0.000 NA
ATOM      8  C   UNL     1       3.662   3.154  19.315  0.00  0.00    +0.000 A 
ATOM      9  C   UNL     1       2.426   3.771  19.249  0.00  0.00    +0.000 A 
ATOM     10  C   UNL     1       2.390   5.078  18.751  0.00  0.00    +0.000 A 
ATOM     11  C   UNL     1       3.577   5.706  18.360  0.00  0.00    +0.000 A 
ATOM     12 CL   UNL     1       3.501   7.314  17.739  0.00  0.00    +0.000 Cl
BRANCH   9  13
ATOM     13  C   UNL     1       1.191   3.063  19.713  0.00  0.00    +0.000 C 
ATOM     14  F   UNL     1       1.430   2.090  20.635  0.00  0.00    +0.000 F 
ATOM     15  F   UNL     1       0.299   3.913  20.293  0.00  0.00    +0.000 F 
ATOM     16  F   UNL     1       0.522   2.458  18.694  0.00  0.00    +0.000 F 
ENDBRANCH   9  13
ENDBRANCH   4   6
ENDBRANCH   1   3
BRANCH   1  17
ATOM     17  S   UNL     1       7.531   8.140  17.472  0.00  0.00    +0.000 S 
BRANCH  17  18
ATOM     18  C   UNL     1       8.408   9.482  18.157  0.00  0.00    +0.000 A 
ATOM     19  N   UNL     1       9.155   9.423  19.239  0.00  0.00    +0.000 NA
ATOM     20  N   UNL     1       9.650  10.695  19.452  0.00  0.00    +0.000 NA
ATOM     21  C   UNL     1       9.171  11.449  18.483  0.00  0.00    +0.000 A 
ATOM     22  O   UNL     1       8.373  10.742  17.618  0.00  0.00    +0.000 OA
BRANCH  21  23
ATOM     23  C   UNL     1       9.353  12.873  18.223  0.00  0.00    +0.000 A 
ATOM     24  C   UNL     1       8.271  13.765  18.430  0.00  0.00    +0.000 A 
ATOM     25  C   UNL     1       8.401  15.140  18.188  0.00  0.00    +0.000 A 
ATOM     26  C   UNL     1       9.621  15.595  17.738  0.00  0.00    +0.000 A 
ATOM     27  C   UNL     1      10.678  14.743  17.532  0.00  0.00    +0.000 A 
ATOM     28  C   UNL     1      10.578  13.385  17.764  0.00  0.00    +0.000 A 
ATOM     29  O   UNL     1      11.786  15.389  17.083  0.00  0.00    +0.000 OA
ATOM     30  C   UNL     1      11.300  16.747  17.013  0.00  0.00    +0.000 C 
ATOM     31  O   UNL     1       9.930  16.887  17.448  0.00  0.00    +0.000 OA
ENDBRANCH  21  23
ENDBRANCH  17  18
ENDBRANCH   1  17
TORSDOF 6
ENDMDL
MODEL 2
REMARK VINA RESULT:      -8.7      7.147      8.885
REMARK  Name = 
REMARK  6 active torsions:
REMARK  status: ('A' for Active; 'I' for Inactive)
REMARK    1  A    between atoms: C_2  and  C_3
REMARK    2  A    between atoms: C_3  and  S_4
REMARK    3  A    between atoms: S_4  and  C_5
REMARK    4  A    between atoms: C_8  and  C_9
REMARK    5  A    between atoms: N_19  and  C_20
REMARK    6  A    between atoms: C_23  and  C_24
REMARK                            x       y       z     vdW  Elec       q    Type
REMARK                         _______ _______ _______ _____ _____    ______ ____
ROOT
ATOM      1  C   UNL     1       2.576   4.221  21.337  0.00  0.00    +0.000 C 
ENDROOT
BRANCH   1   3
ATOM      2  O   UNL     1       0.541   5.138  20.535  0.00  0.00    +0.000 OA
ATOM      3  C   UNL     1       1.733   5.350  20.759  0.00  0.00    +0.000 C 
ATOM      4  N   UNL     1       2.373   6.561  20.598  0.00  0.00    +0.000 N 
ATOM      5  H   UNL     1       3.387   6.569  20.608  0.00  0.00    +0.000 HD
BRANCH   4   6
ATOM      6  C   UNL     1       1.731   7.782  20.318  0.00  0.00    +0.000 A 
ATOM      7  N   UNL     1       1.045   8.409  21.297  0.00  0.00    +0.000 NA
ATOM      8  C   UNL     1       0.485   9.613  21.035  0.00  0.00    +0.000 A 
ATOM      9  C   UNL     1       0.577  10.257  19.814  0.00  0.00    +0.000 A 
ATOM     10  C   UNL     1       1.283   9.602  18.799  0.00  0.00    +0.000 A 
ATOM     11  C   UNL     1       1.866   8.356  19.050  0.00  0.00    +0.000 A 
ATOM     12 CL   UNL     1       2.721   7.567  17.775  0.00  0.00    +0.000 Cl
BRANCH   9  13
ATOM     13  C   UNL     1      -0.039  11.606  19.612  0.00  0.00    +0.000 C 
ATOM     14  F   UNL     1      -1.379  11.638  19.848  0.00  0.00    +0.000 F 
ATOM     15  F   UNL     1       0.506  12.548  20.429  0.00  0.00    +0.000 F 
ATOM     16  F   UNL     1       0.128  12.071  18.343  0.00  0.00    +0.000 F 
ENDBRANCH   9  13
ENDBRANCH   4   6
ENDBRANCH   1   3
BRANCH   1  17
ATOM     17  S   UNL     1       2.244   2.591  20.616  0.00  0.00    +0.000 S 
BRANCH  17  18
ATOM     18  C   UNL     1       2.651   2.918  18.952  0.00  0.00    +0.000 A 
ATOM     19  N   UNL     1       1.885   2.637  17.919  0.00  0.00    +0.000 NA
ATOM     20  N   UNL     1       2.578   3.032  16.791  0.00  0.00    +0.000 NA
ATOM     21  C   UNL     1       3.724   3.529  17.211  0.00  0.00    +0.000 A 
ATOM     22  O   UNL     1       3.838   3.491  18.578  0.00  0.00    +0.000 OA
BRANCH  21  23
ATOM     23  C   UNL     1       4.845   4.076  16.454  0.00  0.00    +0.000 A 
ATOM     24  C   UNL     1       5.714   5.011  17.070  0.00  0.00    +0.000 A 
ATOM     25  C   UNL     1       6.800   5.565  16.378  0.00  0.00    +0.000 A 
ATOM     26  C   UNL     1       6.992   5.170  15.073  0.00  0.00    +0.000 A 
ATOM     27  C   UNL     1       6.159   4.266  14.462  0.00  0.00    +0.000 A 
ATOM     28  C   UNL     1       5.083   3.703  15.121  0.00  0.00    +0.000 A 
ATOM     29  O   UNL     1       6.518   4.015  13.176  0.00  0.00    +0.000 OA
ATOM     30  C   UNL     1       7.666   4.879  13.040  0.00  0.00    +0.000 C 
ATOM     31  O   UNL     1       7.985   5.601  14.249  0.00  0.00    +0.000 OA
ENDBRANCH  21  23
ENDBRANCH  17  18
ENDBRANCH   1  17
TORSDOF 6
ENDMDL
MODEL 3
REMARK VINA RESULT:      -8.5      1.329      1.647
REMARK  Name = 
REMARK  6 active torsions:
REMARK  status: ('A' for Active; 'I' for Inactive)
REMARK    1  A    between atoms: C_2  and  C_3
REMARK    2  A    between atoms: C_3  and  S_4
REMARK    3  A    between atoms: S_4  and  C_5
REMARK    4  A    between atoms: C_8  and  C_9
REMARK    5  A    between atoms: N_19  and  C_20
REMARK    6  A    between atoms: C_23  and  C_24
REMARK                            x       y       z     vdW  Elec       q    Type
REMARK                         _______ _______ _______ _____ _____    ______ ____
ROOT
ATOM      1  C   UNL     1       8.433   7.385  18.763  0.00  0.00    +0.000 C 
ENDROOT
BRANCH   1   3
ATOM      2  O   UNL     1       7.949   5.184  19.506  0.00  0.00    +0.000 OA
ATOM      3  C   UNL     1       7.579   6.124  18.801  0.00  0.00    +0.000 C 
ATOM      4  N   UNL     1       6.403   6.170  18.083  0.00  0.00    +0.000 N 
ATOM      5  H   UNL     1       6.302   6.893  17.380  0.00  0.00    +0.000 HD
BRANCH   4   6
ATOM      6  C   UNL     1       5.362   5.227  18.178  0.00  0.00    +0.000 A 
ATOM      7  N   UNL     1       4.487   5.308  19.202  0.00  0.00    +0.000 NA
ATOM      8  C   UNL     1       3.453   4.435  19.249  0.00  0.00    +0.000 A 
ATOM      9  C   UNL     1       3.227   3.456  18.298  0.00  0.00    +0.000 A 
ATOM     10  C   UNL     1       4.140   3.370  17.241  0.00  0.00    +0.000 A 
ATOM     11  C   UNL     1       5.215   4.262  17.177  0.00  0.00    +0.000 A 
ATOM     12 CL   UNL     1       6.331   4.125  15.867  0.00  0.00    +0.000 Cl
BRANCH   9  13
ATOM     13  C   UNL     1       2.040   2.550  18.399  0.00  0.00    +0.000 C 
ATOM     14  F   UNL     1       0.846   3.193  18.272  0.00  0.00    +0.000 F 
ATOM     15  F   UNL     1       2.046   1.585  17.438  0.00  0.00    +0.000 F 
ATOM     16  F   UNL     1       1.985   1.891  19.589  0.00  0.00    +0.000 F 
ENDBRANCH   9  13
ENDBRANCH   4   6
ENDBRANCH   1   3
BRANCH   1  17
ATOM     17  S   UNL     1       7.825   8.669  17.637  0.00  0.00    +0.000 S 
BRANCH  17  18
ATOM     18  C   UNL     1       8.644  10.056  18.304  0.00  0.00    +0.000 A 
ATOM     19  N   UNL     1       9.368  10.049  19.404  0.00  0.00    +0.000 NA
ATOM     20  N   UNL     1       9.818  11.341  19.593  0.00  0.00    +0.000 NA
ATOM     21  C   UNL     1       9.337  12.054  18.595  0.00  0.00    +0.000 A 
ATOM     22  O   UNL     1       8.582  11.300  17.732  0.00  0.00    +0.000 OA
BRANCH  21  23
ATOM     23  C   UNL     1       9.480  13.476  18.301  0.00  0.00    +0.000 A 
ATOM     24  C   UNL     1       8.325  14.292  18.214  0.00  0.00    +0.000 A 
ATOM     25  C   UNL     1       8.417  15.662  17.930  0.00  0.00    +0.000 A 
ATOM     26  C   UNL     1       9.674  16.188  17.733  0.00  0.00    +0.000 A 
ATOM     27  C   UNL     1      10.803  15.411  17.813  0.00  0.00    +0.000 A 
ATOM     28  C   UNL     1      10.742  14.060  18.094  0.00  0.00    +0.000 A 
ATOM     29  O   UNL     1      11.939  16.120  17.582  0.00  0.00    +0.000 OA
ATOM     30  C   UNL     1      11.395  17.433  17.331  0.00  0.00    +0.000 C 
ATOM     31  O   UNL     1       9.956  17.487  17.445  0.00  0.00    +0.000 OA
ENDBRANCH  21  23
ENDBRANCH  17  18
ENDBRANCH   1  17
TORSDOF 6
ENDMDL
MODEL 4
REMARK VINA RESULT:      -8.4      6.971      8.407
REMARK  Name = 
REMARK  6 active torsions:
REMARK  status: ('A' for Active; 'I' for Inactive)
REMARK    1  A    between atoms: C_2  and  C_3
REMARK    2  A    between atoms: C_3  and  S_4
REMARK    3  A    between atoms: S_4  and  C_5
REMARK    4  A    between atoms: C_8  and  C_9
REMARK    5  A    between atoms: N_19  and  C_20
REMARK    6  A    between atoms: C_23  and  C_24
REMARK                            x       y       z     vdW  Elec       q    Type
REMARK                         _______ _______ _______ _____ _____    ______ ____
ROOT
ATOM      1  C   UNL     1       2.655   3.451  20.984  0.00  0.00    +0.000 C 
ENDROOT
BRANCH   1   3
ATOM      2  O   UNL     1       0.703   4.560  20.216  0.00  0.00    +0.000 OA
ATOM      3  C   UNL     1       1.920   4.644  20.387  0.00  0.00    +0.000 C 
ATOM      4  N   UNL     1       2.684   5.768  20.150  0.00  0.00    +0.000 N 
ATOM      5  H   UNL     1       3.692   5.661  20.123  0.00  0.00    +0.000 HD
BRANCH   4   6
ATOM      6  C   UNL     1       2.171   7.042  19.840  0.00  0.00    +0.000 A 
ATOM      7  N   UNL     1       1.461   7.713  20.770  0.00  0.00    +0.000 NA
ATOM      8  C   UNL     1       1.026   8.963  20.484  0.00  0.00    +0.000 A 
ATOM      9  C   UNL     1       1.273   9.611  19.287  0.00  0.00    +0.000 A 
ATOM     10  C   UNL     1       2.005   8.909  18.322  0.00  0.00    +0.000 A 
ATOM     11  C   UNL     1       2.460   7.616  18.598  0.00  0.00    +0.000 A 
ATOM     12 CL   UNL     1       3.350   6.772  17.384  0.00  0.00    +0.000 Cl
BRANCH   9  13
ATOM     13  C   UNL     1       0.791  11.009  19.058  0.00  0.00    +0.000 C 
ATOM     14  F   UNL     1      -0.368  11.080  18.347  0.00  0.00    +0.000 F 
ATOM     15  F   UNL     1       0.552  11.668  20.225  0.00  0.00    +0.000 F 
ATOM     16  F   UNL     1       1.694  11.768  18.379  0.00  0.00    +0.000 F 
ENDBRANCH   9  13
ENDBRANCH   4   6
ENDBRANCH   1   3
BRANCH   1  17
ATOM     17  S   UNL     1       3.157   2.198  19.773  0.00  0.00    +0.000 S 
BRANCH  17  18
ATOM     18  C   UNL     1       4.381   3.094  18.913  0.00  0.00    +0.000 A 
ATOM     19  N   UNL     1       5.270   3.885  19.474  0.00  0.00    +0.000 NA
ATOM     20  N   UNL     1       6.033   4.415  18.451  0.00  0.00    +0.000 NA
ATOM     21  C   UNL     1       5.557   3.911  17.331  0.00  0.00    +0.000 A 
ATOM     22  O   UNL     1       4.504   3.058  17.549  0.00  0.00    +0.000 OA
BRANCH  21  23
ATOM     23  C   UNL     1       5.968   4.137  15.949  0.00  0.00    +0.000 A 
ATOM     24  C   UNL     1       5.230   3.546  14.894  0.00  0.00    +0.000 A 
ATOM     25  C   UNL     1       5.593   3.733  13.553  0.00  0.00    +0.000 A 
ATOM     26  C   UNL     1       6.699   4.512  13.295  0.00  0.00    +0.000 A 
ATOM     27  C   UNL     1       7.426   5.090  14.307  0.00  0.00    +0.000 A 
ATOM     28  C   UNL     1       7.089   4.924  15.636  0.00  0.00    +0.000 A 
ATOM     29  O   UNL     1       8.478   5.813  13.842  0.00  0.00    +0.000 OA
ATOM     30  C   UNL     1       8.342   5.609  12.419  0.00  0.00    +0.000 C 
ATOM     31  O   UNL     1       7.201   4.799  12.064  0.00  0.00    +0.000 OA
ENDBRANCH  21  23
ENDBRANCH  17  18
ENDBRANCH   1  17
TORSDOF 6
ENDMDL
MODEL 5
REMARK VINA RESULT:      -8.4      8.040     10.034
REMARK  Name = 
REMARK  6 active torsions:
REMARK  status: ('A' for Active; 'I' for Inactive)
REMARK    1  A    between atoms: C_2  and  C_3
REMARK    2  A    between atoms: C_3  and  S_4
REMARK    3  A    between atoms: S_4  and  C_5
REMARK    4  A    between atoms: C_8  and  C_9
REMARK    5  A    between atoms: N_19  and  C_20
REMARK    6  A    between atoms: C_23  and  C_24
REMARK                            x       y       z     vdW  Elec       q    Type
REMARK                         _______ _______ _______ _____ _____    ______ ____
ROOT
ATOM      1  C   UNL     1       1.289   9.188  19.387  0.00  0.00    +0.000 C 
ENDROOT
BRANCH   1   3
ATOM      2  O   UNL     1       2.199   9.036  17.201  0.00  0.00    +0.000 OA
ATOM      3  C   UNL     1       2.064   8.473  18.288  0.00  0.00    +0.000 C 
ATOM      4  N   UNL     1       2.621   7.259  18.633  0.00  0.00    +0.000 N 
ATOM      5  H   UNL     1       2.275   6.795  19.466  0.00  0.00    +0.000 HD
BRANCH   4   6
ATOM      6  C   UNL     1       3.568   6.557  17.863  0.00  0.00    +0.000 A 
ATOM      7  N   UNL     1       4.692   7.187  17.462  0.00  0.00    +0.000 NA
ATOM      8  C   UNL     1       5.625   6.486  16.776  0.00  0.00    +0.000 A 
ATOM      9  C   UNL     1       5.504   5.144  16.462  0.00  0.00    +0.000 A 
ATOM     10  C   UNL     1       4.334   4.495  16.873  0.00  0.00    +0.000 A 
ATOM     11  C   UNL     1       3.358   5.204  17.580  0.00  0.00    +0.000 A 
ATOM     12 CL   UNL     1       1.921   4.380  18.065  0.00  0.00    +0.000 Cl
BRANCH   9  13
ATOM     13  C   UNL     1       6.596   4.427  15.732  0.00  0.00    +0.000 C 
ATOM     14  F   UNL     1       6.206   3.242  15.186  0.00  0.00    +0.000 F 
ATOM     15  F   UNL     1       7.096   5.164  14.702  0.00  0.00    +0.000 F 
ATOM     16  F   UNL     1       7.658   4.138  16.533  0.00  0.00    +0.000 F 
ENDBRANCH   9  13
ENDBRANCH   4   6
ENDBRANCH   1   3
BRANCH   1  17
ATOM     17  S   UNL     1       1.237   8.299  20.967  0.00  0.00    +0.000 S 
BRANCH  17  18
ATOM     18  C   UNL     1       0.348   9.455  21.924  0.00  0.00    +0.000 A 
ATOM     19  N   UNL     1       0.503   9.641  23.218  0.00  0.00    +0.000 NA
ATOM     20  N   UNL     1      -0.397  10.620  23.590  0.00  0.00    +0.000 NA
ATOM     21  C   UNL     1      -1.044  10.968  22.496  0.00  0.00    +0.000 A 
ATOM     22  O   UNL     1      -0.619  10.268  21.394  0.00  0.00    +0.000 OA
BRANCH  21  23
ATOM     23  C   UNL     1      -2.114  11.942  22.305  0.00  0.00    +0.000 A 
ATOM     24  C   UNL     1      -2.244  12.603  21.058  0.00  0.00    +0.000 A 
ATOM     25  C   UNL     1      -3.255  13.549  20.834  0.00  0.00    +0.000 A 
ATOM     26  C   UNL     1      -4.118  13.817  21.873  0.00  0.00    +0.000 A 
ATOM     27  C   UNL     1      -4.003  13.186  23.087  0.00  0.00    +0.000 A 
ATOM     28  C   UNL     1      -3.020  12.249  23.335  0.00  0.00    +0.000 A 
ATOM     29  O   UNL     1      -4.947  13.596  23.976  0.00  0.00    +0.000 OA
ATOM     30  C   UNL     1      -5.660  14.571  23.186  0.00  0.00    +0.000 C 
ATOM     31  O   UNL     1      -5.150  14.702  21.842  0.00  0.00    +0.000 OA
ENDBRANCH  21  23
ENDBRANCH  17  18
ENDBRANCH   1  17
TORSDOF 6
ENDMDL
MODEL 6
REMARK VINA RESULT:      -8.2      7.055      8.722
REMARK  Name = 
REMARK  6 active torsions:
REMARK  status: ('A' for Active; 'I' for Inactive)
REMARK    1  A    between atoms: C_2  and  C_3
REMARK    2  A    between atoms: C_3  and  S_4
REMARK    3  A    between atoms: S_4  and  C_5
REMARK    4  A    between atoms: C_8  and  C_9
REMARK    5  A    between atoms: N_19  and  C_20
REMARK    6  A    between atoms: C_23  and  C_24
REMARK                            x       y       z     vdW  Elec       q    Type
REMARK                         _______ _______ _______ _____ _____    ______ ____
ROOT
ATOM      1  C   UNL     1       1.664   3.181  21.395  0.00  0.00    +0.000 C 
ENDROOT
BRANCH   1   3
ATOM      2  O   UNL     1       0.482   4.329  19.689  0.00  0.00    +0.000 OA
ATOM      3  C   UNL     1       1.350   4.414  20.559  0.00  0.00    +0.000 C 
ATOM      4  N   UNL     1       2.028   5.565  20.901  0.00  0.00    +0.000 N 
ATOM      5  H   UNL     1       2.859   5.476  21.474  0.00  0.00    +0.000 HD
BRANCH   4   6
ATOM      6  C   UNL     1       1.716   6.855  20.432  0.00  0.00    +0.000 A 
ATOM      7  N   UNL     1       1.080   7.720  21.249  0.00  0.00    +0.000 NA
ATOM      8  C   UNL     1       0.840   8.978  20.810  0.00  0.00    +0.000 A 
ATOM      9  C   UNL     1       1.219   9.446  19.564  0.00  0.00    +0.000 A 
ATOM     10  C   UNL     1       1.873   8.544  18.716  0.00  0.00    +0.000 A 
ATOM     11  C   UNL     1       2.126   7.239  19.151  0.00  0.00    +0.000 A 
ATOM     12 CL   UNL     1       2.924   6.147  18.079  0.00  0.00    +0.000 Cl
BRANCH   9  13
ATOM     13  C   UNL     1       0.952  10.863  19.164  0.00  0.00    +0.000 C 
ATOM     14  F   UNL     1       0.068  10.985  18.135  0.00  0.00    +0.000 F 
ATOM     15  F   UNL     1       0.436  11.598  20.187  0.00  0.00    +0.000 F 
ATOM     16  F   UNL     1       2.079  11.515  18.768  0.00  0.00    +0.000 F 
ENDBRANCH   9  13
ENDBRANCH   4   6
ENDBRANCH   1   3
BRANCH   1  17
ATOM     17  S   UNL     1       3.374   2.592  21.250  0.00  0.00    +0.000 S 
BRANCH  17  18
ATOM     18  C   UNL     1       3.583   2.723  19.524  0.00  0.00    +0.000 A 
ATOM     19  N   UNL     1       2.818   2.141  18.625  0.00  0.00    +0.000 NA
ATOM     20  N   UNL     1       3.331   2.476  17.387  0.00  0.00    +0.000 NA
ATOM     21  C   UNL     1       4.379   3.243  17.613  0.00  0.00    +0.000 A 
ATOM     22  O   UNL     1       4.598   3.445  18.953  0.00  0.00    +0.000 OA
BRANCH  21  23
ATOM     23  C   UNL     1       5.307   3.867  16.675  0.00  0.00    +0.000 A 
ATOM     24  C   UNL     1       6.219   4.846  17.141  0.00  0.00    +0.000 A 
ATOM     25  C   UNL     1       7.124   5.473  16.274  0.00  0.00    +0.000 A 
ATOM     26  C   UNL     1       7.093   5.107  14.947  0.00  0.00    +0.000 A 
ATOM     27  C   UNL     1       6.214   4.161  14.480  0.00  0.00    +0.000 A 
ATOM     28  C   UNL     1       5.313   3.525  15.312  0.00  0.00    +0.000 A 
ATOM     29  O   UNL     1       6.342   3.949  13.144  0.00  0.00    +0.000 OA
ATOM     30  C   UNL     1       7.393   4.883  12.818  0.00  0.00    +0.000 C 
ATOM     31  O   UNL     1       7.888   5.608  13.964  0.00  0.00    +0.000 OA
ENDBRANCH  21  23
ENDBRANCH  17  18
ENDBRANCH   1  17
TORSDOF 6
ENDMDL
MODEL 7
REMARK VINA RESULT:      -8.2      1.289      1.454
REMARK  Name = 
REMARK  6 active torsions:
REMARK  status: ('A' for Active; 'I' for Inactive)
REMARK    1  A    between atoms: C_2  and  C_3
REMARK    2  A    between atoms: C_3  and  S_4
REMARK    3  A    between atoms: S_4  and  C_5
REMARK    4  A    between atoms: C_8  and  C_9
REMARK    5  A    between atoms: N_19  and  C_20
REMARK    6  A    between atoms: C_23  and  C_24
REMARK                            x       y       z     vdW  Elec       q    Type
REMARK                         _______ _______ _______ _____ _____    ______ ____
ROOT
ATOM      1  C   UNL     1       8.132   6.952  17.982  0.00  0.00    +0.000 C 
ENDROOT
BRANCH   1   3
ATOM      2  O   UNL     1       7.505   4.718  18.479  0.00  0.00    +0.000 OA
ATOM      3  C   UNL     1       7.107   5.839  18.162  0.00  0.00    +0.000 C 
ATOM      4  N   UNL     1       5.785   6.207  18.019  0.00  0.00    +0.000 N 
ATOM      5  H   UNL     1       5.582   7.085  17.554  0.00  0.00    +0.000 HD
BRANCH   4   6
ATOM      6  C   UNL     1       4.682   5.410  18.380  0.00  0.00    +0.000 A 
ATOM      7  N   UNL     1       4.133   5.556  19.604  0.00  0.00    +0.000 NA
ATOM      8  C   UNL     1       3.034   4.830  19.918  0.00  0.00    +0.000 A 
ATOM      9  C   UNL     1       2.424   3.941  19.052  0.00  0.00    +0.000 A 
ATOM     10  C   UNL     1       3.000   3.786  17.786  0.00  0.00    +0.000 A 
ATOM     11  C   UNL     1       4.137   4.525  17.444  0.00  0.00    +0.000 A 
ATOM     12 CL   UNL     1       4.832   4.305  15.880  0.00  0.00    +0.000 Cl
BRANCH   9  13
ATOM     13  C   UNL     1       1.189   3.200  19.459  0.00  0.00    +0.000 C 
ATOM     14  F   UNL     1       1.429   2.144  20.283  0.00  0.00    +0.000 F 
ATOM     15  F   UNL     1       0.306   3.997  20.123  0.00  0.00    +0.000 F 
ATOM     16  F   UNL     1       0.507   2.696  18.394  0.00  0.00    +0.000 F 
ENDBRANCH   9  13
ENDBRANCH   4   6
ENDBRANCH   1   3
BRANCH   1  17
ATOM     17  S   UNL     1       7.425   8.553  17.506  0.00  0.00    +0.000 S 
BRANCH  17  18
ATOM     18  C   UNL     1       8.490   9.617  18.386  0.00  0.00    +0.000 A 
ATOM     19  N   UNL     1       9.074   9.324  19.528  0.00  0.00    +0.000 NA
ATOM     20  N   UNL     1       9.808  10.434  19.896  0.00  0.00    +0.000 NA
ATOM     21  C   UNL     1       9.623  11.334  18.952  0.00  0.00    +0.000 A 
ATOM     22  O   UNL     1       8.796  10.881  17.955  0.00  0.00    +0.000 OA
BRANCH  21  23
ATOM     23  C   UNL     1      10.143  12.693  18.833  0.00  0.00    +0.000 A 
ATOM     24  C   UNL     1      10.676  13.341  19.975  0.00  0.00    +0.000 A 
ATOM     25  C   UNL     1      11.181  14.646  19.906  0.00  0.00    +0.000 A 
ATOM     26  C   UNL     1      11.138  15.282  18.685  0.00  0.00    +0.000 A 
ATOM     27  C   UNL     1      10.623  14.668  17.570  0.00  0.00    +0.000 A 
ATOM     28  C   UNL     1      10.121  13.382  17.609  0.00  0.00    +0.000 A 
ATOM     29  O   UNL     1      10.669  15.466  16.471  0.00  0.00    +0.000 OA
ATOM     30  C   UNL     1      11.257  16.662  17.026  0.00  0.00    +0.000 C 
ATOM     31  O   UNL     1      11.576  16.544  18.429  0.00  0.00    +0.000 OA
ENDBRANCH  21  23
ENDBRANCH  17  18
ENDBRANCH   1  17
TORSDOF 6
ENDMDL
MODEL 8
REMARK VINA RESULT:      -8.1      6.179      8.387
REMARK  Name = 
REMARK  6 active torsions:
REMARK  status: ('A' for Active; 'I' for Inactive)
REMARK    1  A    between atoms: C_2  and  C_3
REMARK    2  A    between atoms: C_3  and  S_4
REMARK    3  A    between atoms: S_4  and  C_5
REMARK    4  A    between atoms: C_8  and  C_9
REMARK    5  A    between atoms: N_19  and  C_20
REMARK    6  A    between atoms: C_23  and  C_24
REMARK                            x       y       z     vdW  Elec       q    Type
REMARK                         _______ _______ _______ _____ _____    ______ ____
ROOT
ATOM      1  C   UNL     1       2.952   1.570  18.354  0.00  0.00    +0.000 C 
ENDROOT
BRANCH   1   3
ATOM      2  O   UNL     1       3.019   3.533  17.022  0.00  0.00    +0.000 OA
ATOM      3  C   UNL     1       3.636   2.820  17.815  0.00  0.00    +0.000 C 
ATOM      4  N   UNL     1       4.887   3.092  18.326  0.00  0.00    +0.000 N 
ATOM      5  H   UNL     1       5.383   2.343  18.797  0.00  0.00    +0.000 HD
BRANCH   4   6
ATOM      6  C   UNL     1       5.582   4.305  18.157  0.00  0.00    +0.000 A 
ATOM      7  N   UNL     1       5.708   5.146  19.204  0.00  0.00    +0.000 NA
ATOM      8  C   UNL     1       6.432   6.280  19.049  0.00  0.00    +0.000 A 
ATOM      9  C   UNL     1       7.067   6.634  17.872  0.00  0.00    +0.000 A 
ATOM     10  C   UNL     1       6.928   5.763  16.785  0.00  0.00    +0.000 A 
ATOM     11  C   UNL     1       6.183   4.588  16.926  0.00  0.00    +0.000 A 
ATOM     12 CL   UNL     1       6.021   3.539  15.566  0.00  0.00    +0.000 Cl
BRANCH   9  13
ATOM     13  C   UNL     1       7.880   7.888  17.787  0.00  0.00    +0.000 C 
ATOM     14  F   UNL     1       8.776   8.030  18.802  0.00  0.00    +0.000 F 
ATOM     15  F   UNL     1       8.607   7.953  16.637  0.00  0.00    +0.000 F 
ATOM     16  F   UNL     1       7.112   9.011  17.806  0.00  0.00    +0.000 F 
ENDBRANCH   9  13
ENDBRANCH   4   6
ENDBRANCH   1   3
BRANCH   1  17
ATOM     17  S   UNL     1       1.373   1.880  19.189  0.00  0.00    +0.000 S 
BRANCH  17  18
ATOM     18  C   UNL     1       1.758   3.375  20.000  0.00  0.00    +0.000 A 
ATOM     19  N   UNL     1       2.388   3.469  21.152  0.00  0.00    +0.000 NA
ATOM     20  N   UNL     1       2.473   4.814  21.452  0.00  0.00    +0.000 NA
ATOM     21  C   UNL     1       1.888   5.455  20.461  0.00  0.00    +0.000 A 
ATOM     22  O   UNL     1       1.411   4.602  19.497  0.00  0.00    +0.000 OA
BRANCH  21  23
ATOM     23  C   UNL     1       1.674   6.885  20.262  0.00  0.00    +0.000 A 
ATOM     24  C   UNL     1       1.068   7.651  21.288  0.00  0.00    +0.000 A 
ATOM     25  C   UNL     1       0.840   9.026  21.137  0.00  0.00    +0.000 A 
ATOM     26  C   UNL     1       1.224   9.608  19.950  0.00  0.00    +0.000 A 
ATOM     27  C   UNL     1       1.812   8.879  18.945  0.00  0.00    +0.000 A 
ATOM     28  C   UNL     1       2.050   7.525  19.069  0.00  0.00    +0.000 A 
ATOM     29  O   UNL     1       2.109   9.639  17.859  0.00  0.00    +0.000 OA
ATOM     30  C   UNL     1       1.625  10.930  18.287  0.00  0.00    +0.000 C 
ATOM     31  O   UNL     1       1.080  10.921  19.624  0.00  0.00    +0.000 OA
ENDBRANCH  21  23
ENDBRANCH  17  18
ENDBRANCH   1  17
TORSDOF 6
ENDMDL
MODEL 9
REMARK VINA RESULT:      -8.1      6.925      8.499
REMARK  Name = 
REMARK  6 active torsions:
REMARK  status: ('A' for Active; 'I' for Inactive)
REMARK    1  A    between atoms: C_2  and  C_3
REMARK    2  A    between atoms: C_3  and  S_4
REMARK    3  A    between atoms: S_4  and  C_5
REMARK    4  A    between atoms: C_8  and  C_9
REMARK    5  A    between atoms: N_19  and  C_20
REMARK    6  A    between atoms: C_23  and  C_24
REMARK                            x       y       z     vdW  Elec       q    Type
REMARK                         _______ _______ _______ _____ _____    ______ ____
ROOT
ATOM      1  C   UNL     1       2.177   3.463  21.190  0.00  0.00    +0.000 C 
ENDROOT
BRANCH   1   3
ATOM      2  O   UNL     1       0.749   4.535  19.628  0.00  0.00    +0.000 OA
ATOM      3  C   UNL     1       1.705   4.672  20.392  0.00  0.00    +0.000 C 
ATOM      4  N   UNL     1       2.358   5.858  20.652  0.00  0.00    +0.000 N 
ATOM      5  H   UNL     1       3.253   5.816  21.126  0.00  0.00    +0.000 HD
BRANCH   4   6
ATOM      6  C   UNL     1       1.928   7.127  20.219  0.00  0.00    +0.000 A 
ATOM      7  N   UNL     1       1.290   7.941  21.085  0.00  0.00    +0.000 NA
ATOM      8  C   UNL     1       0.936   9.182  20.678  0.00  0.00    +0.000 A 
ATOM      9  C   UNL     1       1.199   9.683  19.415  0.00  0.00    +0.000 A 
ATOM     10  C   UNL     1       1.855   8.835  18.516  0.00  0.00    +0.000 A 
ATOM     11  C   UNL     1       2.225   7.548  18.918  0.00  0.00    +0.000 A 
ATOM     12 CL   UNL     1       3.023   6.520  17.784  0.00  0.00    +0.000 Cl
BRANCH   9  13
ATOM     13  C   UNL     1       0.809  11.081  19.049  0.00  0.00    +0.000 C 
ATOM     14  F   UNL     1       0.430  11.841  20.113  0.00  0.00    +0.000 F 
ATOM     15  F   UNL     1       1.828  11.759  18.451  0.00  0.00    +0.000 F 
ATOM     16  F   UNL     1      -0.230  11.121  18.171  0.00  0.00    +0.000 F 
ENDBRANCH   9  13
ENDBRANCH   4   6
ENDBRANCH   1   3
BRANCH   1  17
ATOM     17  S   UNL     1       3.030   2.201  20.205  0.00  0.00    +0.000 S 
BRANCH  17  18
ATOM     18  C   UNL     1       4.291   3.180  19.504  0.00  0.00    +0.000 A 
ATOM     19  N   UNL     1       5.093   3.975  20.180  0.00  0.00    +0.000 NA
ATOM     20  N   UNL     1       5.925   4.579  19.258  0.00  0.00    +0.000 NA
ATOM     21  C   UNL     1       5.576   4.111  18.077  0.00  0.00    +0.000 A 
ATOM     22  O   UNL     1       4.542   3.211  18.157  0.00  0.00    +0.000 OA
BRANCH  21  23
ATOM     23  C   UNL     1       6.104   4.415  16.751  0.00  0.00    +0.000 A 
ATOM     24  C   UNL     1       6.995   5.506  16.586  0.00  0.00    +0.000 A 
ATOM     25  C   UNL     1       7.522   5.835  15.329  0.00  0.00    +0.000 A 
ATOM     26  C   UNL     1       7.140   5.062  14.256  0.00  0.00    +0.000 A 
ATOM     27  C   UNL     1       6.278   4.003  14.399  0.00  0.00    +0.000 A 
ATOM     28  C   UNL     1       5.745   3.655  15.625  0.00  0.00    +0.000 A 
ATOM     29  O   UNL     1       6.026   3.376  13.220  0.00  0.00    +0.000 OA
ATOM     30  C   UNL     1       6.817   4.172  12.313  0.00  0.00    +0.000 C 
ATOM     31  O   UNL     1       7.544   5.233  12.968  0.00  0.00    +0.000 OA
ENDBRANCH  21  23
ENDBRANCH  17  18
ENDBRANCH   1  17
TORSDOF 6
ENDMDL
