MODEL 1
REMARK VINA RESULT:      -7.4      0.000      0.000
REMARK  Name = 
REMARK  2 active torsions:
REMARK  status: ('A' for Active; 'I' for Inactive)
REMARK    1  A    between atoms: C_1  and  C_2
REMARK    2  A    between atoms: C_8  and  C_9
REMARK                            x       y       z     vdW  Elec       q    Type
REMARK                         _______ _______ _______ _____ _____    ______ ____
ROOT
ATOM      1  C   UNL     1       2.950   7.818  18.194  0.00  0.00    +0.000 C 
ATOM      2  C   UNL     1       3.589   6.592  17.616  0.00  0.00    +0.000 A 
ATOM      3  C   UNL     1       4.802   6.693  16.915  0.00  0.00    +0.000 A 
ATOM      4  C   UNL     1       5.412   5.566  16.347  0.00  0.00    +0.000 A 
ATOM      5  C   UNL     1       4.822   4.311  16.463  0.00  0.00    +0.000 A 
ATOM      6  C   UNL     1       3.628   4.205  17.158  0.00  0.00    +0.000 A 
ATOM      7  C   UNL     1       3.018   5.324  17.743  0.00  0.00    +0.000 A 
ATOM      8  C   UNL     1       1.755   4.922  18.474  0.00  0.00    +0.000 C 
ATOM      9  C   UNL     1       1.921   5.000  19.989  0.00  0.00    +0.000 C 
ATOM     10  C   UNL     1       1.484   3.503  17.886  0.00  0.00    +0.000 C 
ATOM     11  C   UNL     1       0.983   2.408  18.823  0.00  0.00    +0.000 C 
ATOM     12  N   UNL     1       2.088   1.461  19.059  0.00  0.00    +0.000 NA
ATOM     13  C   UNL     1       3.307   2.082  18.526  0.00  0.00    +0.000 C 
ATOM     14  C   UNL     1       2.832   2.964  17.386  0.00  0.00    +0.000 C 
ATOM     15  H   UNL     1       1.898   0.609  18.530  0.00  0.00    +0.000 HD
ENDROOT
TORSDOF 0
ENDMDL
MODEL 2
REMARK VINA RESULT:      -7.0      1.965      4.253
REMARK  Name = 
REMARK  2 active torsions:
REMARK  status: ('A' for Active; 'I' for Inactive)
REMARK    1  A    between atoms: C_1  and  C_2
REMARK    2  A    between atoms: C_8  and  C_9
REMARK                            x       y       z     vdW  Elec       q    Type
REMARK                         _______ _______ _______ _____ _____    ______ ____
ROOT
ATOM      1  C   UNL     1       0.521   2.362  18.963  0.00  0.00    +0.000 C 
ATOM      2  C   UNL     1       1.365   3.557  19.283  0.00  0.00    +0.000 A 
ATOM      3  C   UNL     1       1.011   4.405  20.346  0.00  0.00    +0.000 A 
ATOM      4  C   UNL     1       1.771   5.542  20.656  0.00  0.00    +0.000 A 
ATOM      5  C   UNL     1       2.901   5.860  19.909  0.00  0.00    +0.000 A 
ATOM      6  C   UNL     1       3.258   5.024  18.864  0.00  0.00    +0.000 A 
ATOM      7  C   UNL     1       2.512   3.876  18.555  0.00  0.00    +0.000 A 
ATOM      8  C   UNL     1       3.142   3.125  17.403  0.00  0.00    +0.000 C 
ATOM      9  C   UNL     1       3.793   1.820  17.857  0.00  0.00    +0.000 C 
ATOM     10  C   UNL     1       4.105   4.199  16.809  0.00  0.00    +0.000 C 
ATOM     11  C   UNL     1       5.483   3.758  16.325  0.00  0.00    +0.000 C 
ATOM     12  N   UNL     1       6.487   4.237  17.293  0.00  0.00    +0.000 NA
ATOM     13  C   UNL     1       5.753   4.710  18.474  0.00  0.00    +0.000 C 
ATOM     14  C   UNL     1       4.417   5.190  17.939  0.00  0.00    +0.000 C 
ATOM     15  H   UNL     1       6.980   5.027  16.877  0.00  0.00    +0.000 HD
ENDROOT
TORSDOF 0
ENDMDL
MODEL 3
REMARK VINA RESULT:      -6.7      0.811      1.039
REMARK  Name = 
REMARK  2 active torsions:
REMARK  status: ('A' for Active; 'I' for Inactive)
REMARK    1  A    between atoms: C_1  and  C_2
REMARK    2  A    between atoms: C_8  and  C_9
REMARK                            x       y       z     vdW  Elec       q    Type
REMARK                         _______ _______ _______ _____ _____    ______ ____
ROOT
ATOM      1  C   UNL     1       1.965   7.912  19.479  0.00  0.00    +0.000 C 
ATOM      2  C   UNL     1       2.788   7.046  18.575  0.00  0.00    +0.000 A 
ATOM      3  C   UNL     1       3.853   7.600  17.846  0.00  0.00    +0.000 A 
ATOM      4  C   UNL     1       4.627   6.818  16.978  0.00  0.00    +0.000 A 
ATOM      5  C   UNL     1       4.354   5.463  16.814  0.00  0.00    +0.000 A 
ATOM      6  C   UNL     1       3.308   4.911  17.535  0.00  0.00    +0.000 A 
ATOM      7  C   UNL     1       2.536   5.682  18.418  0.00  0.00    +0.000 A 
ATOM      8  C   UNL     1       1.495   4.825  19.104  0.00  0.00    +0.000 C 
ATOM      9  C   UNL     1       1.821   4.596  20.578  0.00  0.00    +0.000 C 
ATOM     10  C   UNL     1       1.481   3.553  18.200  0.00  0.00    +0.000 C 
ATOM     11  C   UNL     1       1.356   2.186  18.865  0.00  0.00    +0.000 C 
ATOM     12  N   UNL     1       2.666   1.514  18.787  0.00  0.00    +0.000 NA
ATOM     13  C   UNL     1       3.641   2.522  18.350  0.00  0.00    +0.000 C 
ATOM     14  C   UNL     1       2.845   3.493  17.498  0.00  0.00    +0.000 C 
ATOM     15  H   UNL     1       2.610   0.785  18.077  0.00  0.00    +0.000 HD
ENDROOT
TORSDOF 0
ENDMDL
MODEL 4
REMARK VINA RESULT:      -6.7      1.412      2.959
REMARK  Name = 
REMARK  2 active torsions:
REMARK  status: ('A' for Active; 'I' for Inactive)
REMARK    1  A    between atoms: C_1  and  C_2
REMARK    2  A    between atoms: C_8  and  C_9
REMARK                            x       y       z     vdW  Elec       q    Type
REMARK                         _______ _______ _______ _____ _____    ______ ____
ROOT
ATOM      1  C   UNL     1       5.253   4.005  16.290  0.00  0.00    +0.000 C 
ATOM      2  C   UNL     1       4.450   4.914  17.170  0.00  0.00    +0.000 A 
ATOM      3  C   UNL     1       4.364   6.284  16.875  0.00  0.00    +0.000 A 
ATOM      4  C   UNL     1       3.636   7.162  17.691  0.00  0.00    +0.000 A 
ATOM      5  C   UNL     1       2.980   6.691  18.824  0.00  0.00    +0.000 A 
ATOM      6  C   UNL     1       3.057   5.338  19.116  0.00  0.00    +0.000 A 
ATOM      7  C   UNL     1       3.770   4.450  18.298  0.00  0.00    +0.000 A 
ATOM      8  C   UNL     1       3.656   3.034  18.820  0.00  0.00    +0.000 C 
ATOM      9  C   UNL     1       2.772   2.165  17.929  0.00  0.00    +0.000 C 
ATOM     10  C   UNL     1       3.141   3.270  20.274  0.00  0.00    +0.000 C 
ATOM     11  C   UNL     1       2.087   2.322  20.838  0.00  0.00    +0.000 C 
ATOM     12  N   UNL     1       0.800   3.040  20.889  0.00  0.00    +0.000 NA
ATOM     13  C   UNL     1       0.972   4.285  20.129  0.00  0.00    +0.000 C 
ATOM     14  C   UNL     1       2.440   4.637  20.280  0.00  0.00    +0.000 C 
ATOM     15  H   UNL     1       0.604   3.277  21.862  0.00  0.00    +0.000 HD
ENDROOT
TORSDOF 0
ENDMDL
MODEL 5
REMARK VINA RESULT:      -6.5      2.097      4.172
REMARK  Name = 
REMARK  2 active torsions:
REMARK  status: ('A' for Active; 'I' for Inactive)
REMARK    1  A    between atoms: C_1  and  C_2
REMARK    2  A    between atoms: C_8  and  C_9
REMARK                            x       y       z     vdW  Elec       q    Type
REMARK                         _______ _______ _______ _____ _____    ______ ____
ROOT
ATOM      1  C   UNL     1       1.401   4.872  20.456  0.00  0.00    +0.000 C 
ATOM      2  C   UNL     1       2.185   4.031  19.494  0.00  0.00    +0.000 A 
ATOM      3  C   UNL     1       1.815   2.696  19.263  0.00  0.00    +0.000 A 
ATOM      4  C   UNL     1       2.541   1.881  18.383  0.00  0.00    +0.000 A 
ATOM      5  C   UNL     1       3.657   2.379  17.717  0.00  0.00    +0.000 A 
ATOM      6  C   UNL     1       4.022   3.697  17.938  0.00  0.00    +0.000 A 
ATOM      7  C   UNL     1       3.293   4.526  18.805  0.00  0.00    +0.000 A 
ATOM      8  C   UNL     1       3.880   5.920  18.829  0.00  0.00    +0.000 C 
ATOM      9  C   UNL     1       2.985   6.931  18.116  0.00  0.00    +0.000 C 
ATOM     10  C   UNL     1       5.287   5.686  18.197  0.00  0.00    +0.000 C 
ATOM     11  C   UNL     1       5.838   6.731  17.232  0.00  0.00    +0.000 C 
ATOM     12  N   UNL     1       5.777   6.176  15.867  0.00  0.00    +0.000 NA
ATOM     13  C   UNL     1       4.964   4.955  15.936  0.00  0.00    +0.000 C 
ATOM     14  C   UNL     1       5.183   4.417  17.338  0.00  0.00    +0.000 C 
ATOM     15  H   UNL     1       6.723   5.924  15.582  0.00  0.00    +0.000 HD
ENDROOT
TORSDOF 0
ENDMDL
MODEL 6
REMARK VINA RESULT:      -6.5      2.426      4.814
REMARK  Name = 
REMARK  2 active torsions:
REMARK  status: ('A' for Active; 'I' for Inactive)
REMARK    1  A    between atoms: C_1  and  C_2
REMARK    2  A    between atoms: C_8  and  C_9
REMARK                            x       y       z     vdW  Elec       q    Type
REMARK                         _______ _______ _______ _____ _____    ______ ____
ROOT
ATOM      1  C   UNL     1       4.702   1.901  20.473  0.00  0.00    +0.000 C 
ATOM      2  C   UNL     1       3.476   2.749  20.321  0.00  0.00    +0.000 A 
ATOM      3  C   UNL     1       2.340   2.492  21.106  0.00  0.00    +0.000 A 
ATOM      4  C   UNL     1       1.173   3.256  20.972  0.00  0.00    +0.000 A 
ATOM      5  C   UNL     1       1.111   4.294  20.046  0.00  0.00    +0.000 A 
ATOM      6  C   UNL     1       2.231   4.555  19.274  0.00  0.00    +0.000 A 
ATOM      7  C   UNL     1       3.409   3.806  19.411  0.00  0.00    +0.000 A 
ATOM      8  C   UNL     1       4.484   4.326  18.482  0.00  0.00    +0.000 C 
ATOM      9  C   UNL     1       5.595   5.049  19.240  0.00  0.00    +0.000 C 
ATOM     10  C   UNL     1       3.654   5.198  17.489  0.00  0.00    +0.000 C 
ATOM     11  C   UNL     1       4.239   6.526  17.018  0.00  0.00    +0.000 C 
ATOM     12  N   UNL     1       3.499   7.616  17.680  0.00  0.00    +0.000 NA
ATOM     13  C   UNL     1       2.679   7.002  18.733  0.00  0.00    +0.000 C 
ATOM     14  C   UNL     1       2.369   5.607  18.224  0.00  0.00    +0.000 C 
ATOM     15  H   UNL     1       2.880   8.046  16.993  0.00  0.00    +0.000 HD
ENDROOT
TORSDOF 0
ENDMDL
MODEL 7
REMARK VINA RESULT:      -6.5      1.977      4.052
REMARK  Name = 
REMARK  2 active torsions:
REMARK  status: ('A' for Active; 'I' for Inactive)
REMARK    1  A    between atoms: C_1  and  C_2
REMARK    2  A    between atoms: C_8  and  C_9
REMARK                            x       y       z     vdW  Elec       q    Type
REMARK                         _______ _______ _______ _____ _____    ______ ____
ROOT
ATOM      1  C   UNL     1       1.458   6.325  20.827  0.00  0.00    +0.000 C 
ATOM      2  C   UNL     1       1.744   4.955  20.292  0.00  0.00    +0.000 A 
ATOM      3  C   UNL     1       0.800   3.927  20.450  0.00  0.00    +0.000 A 
ATOM      4  C   UNL     1       1.049   2.631  19.977  0.00  0.00    +0.000 A 
ATOM      5  C   UNL     1       2.248   2.330  19.337  0.00  0.00    +0.000 A 
ATOM      6  C   UNL     1       3.179   3.343  19.174  0.00  0.00    +0.000 A 
ATOM      7  C   UNL     1       2.934   4.647  19.631  0.00  0.00    +0.000 A 
ATOM      8  C   UNL     1       4.092   5.559  19.287  0.00  0.00    +0.000 C 
ATOM      9  C   UNL     1       3.733   6.547  18.181  0.00  0.00    +0.000 C 
ATOM     10  C   UNL     1       5.218   4.533  18.950  0.00  0.00    +0.000 C 
ATOM     11  C   UNL     1       6.154   4.833  17.783  0.00  0.00    +0.000 C 
ATOM     12  N   UNL     1       5.805   3.932  16.669  0.00  0.00    +0.000 NA
ATOM     13  C   UNL     1       4.528   3.294  17.016  0.00  0.00    +0.000 C 
ATOM     14  C   UNL     1       4.521   3.230  18.532  0.00  0.00    +0.000 C 
ATOM     15  H   UNL     1       6.523   3.211  16.604  0.00  0.00    +0.000 HD
ENDROOT
TORSDOF 0
ENDMDL
MODEL 8
REMARK VINA RESULT:      -6.4      2.611      4.403
REMARK  Name = 
REMARK  2 active torsions:
REMARK  status: ('A' for Active; 'I' for Inactive)
REMARK    1  A    between atoms: C_1  and  C_2
REMARK    2  A    between atoms: C_8  and  C_9
REMARK                            x       y       z     vdW  Elec       q    Type
REMARK                         _______ _______ _______ _____ _____    ______ ____
ROOT
ATOM      1  C   UNL     1       2.503   4.623  20.451  0.00  0.00    +0.000 C 
ATOM      2  C   UNL     1       2.763   5.753  19.502  0.00  0.00    +0.000 A 
ATOM      3  C   UNL     1       2.053   6.958  19.632  0.00  0.00    +0.000 A 
ATOM      4  C   UNL     1       2.260   8.025  18.747  0.00  0.00    +0.000 A 
ATOM      5  C   UNL     1       3.180   7.913  17.708  0.00  0.00    +0.000 A 
ATOM      6  C   UNL     1       3.887   6.728  17.580  0.00  0.00    +0.000 A 
ATOM      7  C   UNL     1       3.697   5.659  18.469  0.00  0.00    +0.000 A 
ATOM      8  C   UNL     1       4.621   4.511  18.128  0.00  0.00    +0.000 C 
ATOM      9  C   UNL     1       5.739   4.351  19.155  0.00  0.00    +0.000 C 
ATOM     10  C   UNL     1       5.069   4.880  16.680  0.00  0.00    +0.000 C 
ATOM     11  C   UNL     1       6.521   4.637  16.280  0.00  0.00    +0.000 C 
ATOM     12  N   UNL     1       7.202   5.942  16.198  0.00  0.00    +0.000 NA
ATOM     13  C   UNL     1       6.299   6.936  16.793  0.00  0.00    +0.000 C 
ATOM     14  C   UNL     1       4.903   6.400  16.537  0.00  0.00    +0.000 C 
ATOM     15  H   UNL     1       7.335   6.171  15.213  0.00  0.00    +0.000 HD
ENDROOT
TORSDOF 0
ENDMDL
MODEL 9
REMARK VINA RESULT:      -6.3      2.106      4.117
REMARK  Name = 
REMARK  2 active torsions:
REMARK  status: ('A' for Active; 'I' for Inactive)
REMARK    1  A    between atoms: C_1  and  C_2
REMARK    2  A    between atoms: C_8  and  C_9
REMARK                            x       y       z     vdW  Elec       q    Type
REMARK                         _______ _______ _______ _____ _____    ______ ____
ROOT
ATOM      1  C   UNL     1       2.247   6.322  19.791  0.00  0.00    +0.000 C 
ATOM      2  C   UNL     1       2.496   5.120  18.930  0.00  0.00    +0.000 A 
ATOM      3  C   UNL     1       1.534   4.099  18.853  0.00  0.00    +0.000 A 
ATOM      4  C   UNL     1       1.747   2.955  18.072  0.00  0.00    +0.000 A 
ATOM      5  C   UNL     1       2.929   2.801  17.352  0.00  0.00    +0.000 A 
ATOM      6  C   UNL     1       3.878   3.808  17.421  0.00  0.00    +0.000 A 
ATOM      7  C   UNL     1       3.667   4.964  18.188  0.00  0.00    +0.000 A 
ATOM      8  C   UNL     1       4.837   5.915  18.053  0.00  0.00    +0.000 C 
ATOM      9  C   UNL     1       4.480   7.150  17.230  0.00  0.00    +0.000 C 
ATOM     10  C   UNL     1       5.936   4.985  17.451  0.00  0.00    +0.000 C 
ATOM     11  C   UNL     1       6.857   5.547  16.372  0.00  0.00    +0.000 C 
ATOM     12  N   UNL     1       6.471   4.952  15.080  0.00  0.00    +0.000 NA
ATOM     13  C   UNL     1       5.188   4.269  15.288  0.00  0.00    +0.000 C 
ATOM     14  C   UNL     1       5.206   3.836  16.742  0.00  0.00    +0.000 C 
ATOM     15  H   UNL     1       7.173   4.258  14.825  0.00  0.00    +0.000 HD
ENDROOT
TORSDOF 0
ENDMDL
