MODEL 1
REMARK VINA RESULT:      -8.2      0.000      0.000
REMARK  Name = 
REMARK  6 active torsions:
REMARK  status: ('A' for Active; 'I' for Inactive)
REMARK    1  A    between atoms: C_2  and  O_3
REMARK    2  A    between atoms: C_2  and  C_4
REMARK    3  A    between atoms: N_7  and  C_8
REMARK    4  A    between atoms: C_8  and  C_9
REMARK    5  A    between atoms: N_16  and  C_17
REMARK    6  A    between atoms: C_21  and  C_22
REMARK                            x       y       z     vdW  Elec       q    Type
REMARK                         _______ _______ _______ _____ _____    ______ ____
ROOT
ATOM      1  C   UNL     1      -1.252  11.524  19.723  0.00  0.00    +0.000 A 
ATOM      2  C   UNL     1      -0.864  12.325  20.813  0.00  0.00    +0.000 A 
ATOM      3  C   UNL     1       0.006  11.856  21.800  0.00  0.00    +0.000 A 
ATOM      4  C   UNL     1       0.484  10.562  21.630  0.00  0.00    +0.000 A 
ATOM      5  O   UNL     1       1.373   9.939  22.440  0.00  0.00    +0.000 OA
ATOM      6  N   UNL     1       1.660   8.693  21.928  0.00  0.00    +0.000 NA
ATOM      7  C   UNL     1       0.917   8.555  20.820  0.00  0.00    +0.000 A 
ATOM      8  N   UNL     1       0.912   7.477  19.994  0.00  0.00    +0.000 N 
ATOM      9  C   UNL     1       0.133   9.723  20.588  0.00  0.00    +0.000 A 
ATOM     10  C   UNL     1      -0.767  10.200  19.614  0.00  0.00    +0.000 A 
ATOM     11  H   UNL     1       0.033   7.165  19.593  0.00  0.00    +0.000 HD
ENDROOT
BRANCH   8  12
ATOM     12  C   UNL     1       1.929   6.482  19.921  0.00  0.00    +0.000 A 
ATOM     13  C   UNL     1       1.853   5.368  20.771  0.00  0.00    +0.000 A 
ATOM     14  C   UNL     1       2.781   4.344  20.687  0.00  0.00    +0.000 A 
ATOM     15  C   UNL     1       3.790   4.406  19.729  0.00  0.00    +0.000 A 
ATOM     16  C   UNL     1       3.897   5.475  18.805  0.00  0.00    +0.000 A 
ATOM     17  C   UNL     1       2.951   6.527  18.938  0.00  0.00    +0.000 A 
ATOM     18 CL   UNL     1       2.922   7.896  17.856  0.00  0.00    +0.000 Cl
BRANCH  16  19
ATOM     19  C   UNL     1       4.928   5.370  17.731  0.00  0.00    +0.000 A 
ATOM     20  C   UNL     1       6.127   6.110  17.823  0.00  0.00    +0.000 A 
ATOM     21  C   UNL     1       7.132   6.024  16.855  0.00  0.00    +0.000 A 
ATOM     22  C   UNL     1       6.977   5.166  15.774  0.00  0.00    +0.000 A 
ATOM     23  C   UNL     1       5.803   4.433  15.644  0.00  0.00    +0.000 A 
ATOM     24  C   UNL     1       4.781   4.558  16.595  0.00  0.00    +0.000 A 
ENDBRANCH  16  19
ENDBRANCH   8  12
BRANCH   1  25
ATOM     25  C   UNL     1      -2.152  12.116  18.652  0.00  0.00    +0.000 C 
BRANCH  25  29
ATOM     26  C   UNL     1      -3.618  11.503  16.787  0.00  0.00    +0.000 C 
ATOM     27  C   UNL     1      -5.086  11.344  17.248  0.00  0.00    +0.000 C 
ATOM     28  C   UNL     1      -4.560  11.762  18.629  0.00  0.00    +0.000 C 
ATOM     29  N   UNL     1      -3.232  11.203  18.233  0.00  0.00    +0.000 NA
BRANCH  26  31
ATOM     30  O   UNL     1      -2.480   9.397  16.065  0.00  0.00    +0.000 OA
ATOM     31  C   UNL     1      -3.066  10.435  15.777  0.00  0.00    +0.000 C 
BRANCH  31  32
ATOM     32  O   UNL     1      -3.317  10.762  14.477  0.00  0.00    +0.000 OA
ATOM     33  H   UNL     1      -2.625  10.329  13.927  0.00  0.00    +0.000 HD
ENDBRANCH  31  32
ENDBRANCH  26  31
ENDBRANCH  25  29
ENDBRANCH   1  25
TORSDOF 6
ENDMDL
MODEL 2
REMARK VINA RESULT:      -8.1      2.892      9.392
REMARK  Name = 
REMARK  6 active torsions:
REMARK  status: ('A' for Active; 'I' for Inactive)
REMARK    1  A    between atoms: C_2  and  O_3
REMARK    2  A    between atoms: C_2  and  C_4
REMARK    3  A    between atoms: N_7  and  C_8
REMARK    4  A    between atoms: C_8  and  C_9
REMARK    5  A    between atoms: N_16  and  C_17
REMARK    6  A    between atoms: C_21  and  C_22
REMARK                            x       y       z     vdW  Elec       q    Type
REMARK                         _______ _______ _______ _____ _____    ______ ____
ROOT
ATOM      1  C   UNL     1       3.690   6.641  17.697  0.00  0.00    +0.000 A 
ATOM      2  C   UNL     1       3.548   5.477  18.475  0.00  0.00    +0.000 A 
ATOM      3  C   UNL     1       2.792   5.462  19.649  0.00  0.00    +0.000 A 
ATOM      4  C   UNL     1       2.167   6.656  19.990  0.00  0.00    +0.000 A 
ATOM      5  O   UNL     1       1.350   6.841  21.054  0.00  0.00    +0.000 OA
ATOM      6  N   UNL     1       0.868   8.130  21.040  0.00  0.00    +0.000 NA
ATOM      7  C   UNL     1       1.422   8.734  19.977  0.00  0.00    +0.000 A 
ATOM      8  N   UNL     1       1.198  10.013  19.581  0.00  0.00    +0.000 N 
ATOM      9  C   UNL     1       2.276   7.834  19.273  0.00  0.00    +0.000 A 
ATOM     10  C   UNL     1       3.065   7.842  18.106  0.00  0.00    +0.000 A 
ATOM     11  H   UNL     1       1.973  10.563  19.224  0.00  0.00    +0.000 HD
ENDROOT
BRANCH   8  12
ATOM     12  C   UNL     1       0.088  10.818  19.966  0.00  0.00    +0.000 A 
ATOM     13  C   UNL     1       0.237  11.721  21.030  0.00  0.00    +0.000 A 
ATOM     14  C   UNL     1      -0.794  12.571  21.392  0.00  0.00    +0.000 A 
ATOM     15  C   UNL     1      -1.988  12.551  20.675  0.00  0.00    +0.000 A 
ATOM     16  C   UNL     1      -2.190  11.703  19.559  0.00  0.00    +0.000 A 
ATOM     17  C   UNL     1      -1.127  10.818  19.232  0.00  0.00    +0.000 A 
ATOM     18 CL   UNL     1      -1.202   9.738  17.864  0.00  0.00    +0.000 Cl
BRANCH  16  19
ATOM     19  C   UNL     1      -3.451  11.865  18.777  0.00  0.00    +0.000 A 
ATOM     20  C   UNL     1      -3.494  11.499  17.414  0.00  0.00    +0.000 A 
ATOM     21  C   UNL     1      -4.659  11.609  16.650  0.00  0.00    +0.000 A 
ATOM     22  C   UNL     1      -5.831  12.065  17.239  0.00  0.00    +0.000 A 
ATOM     23  C   UNL     1      -5.821  12.449  18.575  0.00  0.00    +0.000 A 
ATOM     24  C   UNL     1      -4.638  12.378  19.324  0.00  0.00    +0.000 A 
ENDBRANCH  16  19
ENDBRANCH   8  12
BRANCH   1  25
ATOM     25  C   UNL     1       4.477   6.574  16.399  0.00  0.00    +0.000 C 
BRANCH  25  29
ATOM     26  C   UNL     1       6.786   5.771  16.566  0.00  0.00    +0.000 C 
ATOM     27  C   UNL     1       7.150   4.843  15.383  0.00  0.00    +0.000 C 
ATOM     28  C   UNL     1       5.730   5.143  14.881  0.00  0.00    +0.000 C 
ATOM     29  N   UNL     1       5.335   5.378  16.303  0.00  0.00    +0.000 NA
BRANCH  26  31
ATOM     30  O   UNL     1       7.965   6.016  18.756  0.00  0.00    +0.000 OA
ATOM     31  C   UNL     1       7.283   5.342  17.991  0.00  0.00    +0.000 C 
BRANCH  31  32
ATOM     32  O   UNL     1       6.859   4.094  18.342  0.00  0.00    +0.000 OA
ATOM     33  H   UNL     1       7.060   3.975  19.298  0.00  0.00    +0.000 HD
ENDBRANCH  31  32
ENDBRANCH  26  31
ENDBRANCH  25  29
ENDBRANCH   1  25
TORSDOF 6
ENDMDL
MODEL 3
REMARK VINA RESULT:      -8.0      2.880      9.408
REMARK  Name = 
REMARK  6 active torsions:
REMARK  status: ('A' for Active; 'I' for Inactive)
REMARK    1  A    between atoms: C_2  and  O_3
REMARK    2  A    between atoms: C_2  and  C_4
REMARK    3  A    between atoms: N_7  and  C_8
REMARK    4  A    between atoms: C_8  and  C_9
REMARK    5  A    between atoms: N_16  and  C_17
REMARK    6  A    between atoms: C_21  and  C_22
REMARK                            x       y       z     vdW  Elec       q    Type
REMARK                         _______ _______ _______ _____ _____    ______ ____
ROOT
ATOM      1  C   UNL     1       3.657   6.735  17.758  0.00  0.00    +0.000 A 
ATOM      2  C   UNL     1       3.502   5.591  18.563  0.00  0.00    +0.000 A 
ATOM      3  C   UNL     1       2.730   5.608  19.727  0.00  0.00    +0.000 A 
ATOM      4  C   UNL     1       2.105   6.812  20.029  0.00  0.00    +0.000 A 
ATOM      5  O   UNL     1       1.275   7.026  21.077  0.00  0.00    +0.000 OA
ATOM      6  N   UNL     1       0.797   8.317  21.024  0.00  0.00    +0.000 NA
ATOM      7  C   UNL     1       1.367   8.891  19.955  0.00  0.00    +0.000 A 
ATOM      8  N   UNL     1       1.153  10.161  19.524  0.00  0.00    +0.000 N 
ATOM      9  C   UNL     1       2.227   7.972  19.285  0.00  0.00    +0.000 A 
ATOM     10  C   UNL     1       3.031   7.947  18.128  0.00  0.00    +0.000 A 
ATOM     11  H   UNL     1       1.933  10.700  19.163  0.00  0.00    +0.000 HD
ENDROOT
BRANCH   8  12
ATOM     12  C   UNL     1       0.040  10.979  19.873  0.00  0.00    +0.000 A 
ATOM     13  C   UNL     1       0.203  11.965  20.858  0.00  0.00    +0.000 A 
ATOM     14  C   UNL     1      -0.832  12.828  21.179  0.00  0.00    +0.000 A 
ATOM     15  C   UNL     1      -2.043  12.734  20.499  0.00  0.00    +0.000 A 
ATOM     16  C   UNL     1      -2.261  11.797  19.458  0.00  0.00    +0.000 A 
ATOM     17  C   UNL     1      -1.193  10.904  19.174  0.00  0.00    +0.000 A 
ATOM     18 CL   UNL     1      -1.286   9.717  17.898  0.00  0.00    +0.000 Cl
BRANCH  16  19
ATOM     19  C   UNL     1      -3.544  11.880  18.701  0.00  0.00    +0.000 A 
ATOM     20  C   UNL     1      -4.731  12.277  19.357  0.00  0.00    +0.000 A 
ATOM     21  C   UNL     1      -5.950  12.393  18.683  0.00  0.00    +0.000 A 
ATOM     22  C   UNL     1      -6.012  12.142  17.319  0.00  0.00    +0.000 A 
ATOM     23  C   UNL     1      -4.866  11.735  16.645  0.00  0.00    +0.000 A 
ATOM     24  C   UNL     1      -3.657  11.577  17.335  0.00  0.00    +0.000 A 
ENDBRANCH  16  19
ENDBRANCH   8  12
BRANCH   1  25
ATOM     25  C   UNL     1       4.461   6.632  16.473  0.00  0.00    +0.000 C 
BRANCH  25  29
ATOM     26  C   UNL     1       6.786   5.860  16.518  0.00  0.00    +0.000 C 
ATOM     27  C   UNL     1       7.059   4.820  15.406  0.00  0.00    +0.000 C 
ATOM     28  C   UNL     1       5.598   5.062  15.001  0.00  0.00    +0.000 C 
ATOM     29  N   UNL     1       5.323   5.437  16.421  0.00  0.00    +0.000 NA
BRANCH  26  31
ATOM     30  O   UNL     1       7.439   4.497  18.509  0.00  0.00    +0.000 OA
ATOM     31  C   UNL     1       7.409   5.578  17.931  0.00  0.00    +0.000 C 
BRANCH  31  32
ATOM     32  O   UNL     1       7.961   6.690  18.494  0.00  0.00    +0.000 OA
ATOM     33  H   UNL     1       8.450   6.400  19.296  0.00  0.00    +0.000 HD
ENDBRANCH  31  32
ENDBRANCH  26  31
ENDBRANCH  25  29
ENDBRANCH   1  25
TORSDOF 6
ENDMDL
MODEL 4
REMARK VINA RESULT:      -8.0      3.323      9.711
REMARK  Name = 
REMARK  6 active torsions:
REMARK  status: ('A' for Active; 'I' for Inactive)
REMARK    1  A    between atoms: C_2  and  O_3
REMARK    2  A    between atoms: C_2  and  C_4
REMARK    3  A    between atoms: N_7  and  C_8
REMARK    4  A    between atoms: C_8  and  C_9
REMARK    5  A    between atoms: N_16  and  C_17
REMARK    6  A    between atoms: C_21  and  C_22
REMARK                            x       y       z     vdW  Elec       q    Type
REMARK                         _______ _______ _______ _____ _____    ______ ____
ROOT
ATOM      1  C   UNL     1       3.788   6.901  17.581  0.00  0.00    +0.000 A 
ATOM      2  C   UNL     1       3.758   5.894  18.563  0.00  0.00    +0.000 A 
ATOM      3  C   UNL     1       2.983   6.014  19.719  0.00  0.00    +0.000 A 
ATOM      4  C   UNL     1       2.225   7.174  19.829  0.00  0.00    +0.000 A 
ATOM      5  O   UNL     1       1.370   7.462  20.840  0.00  0.00    +0.000 OA
ATOM      6  N   UNL     1       0.750   8.664  20.584  0.00  0.00    +0.000 NA
ATOM      7  C   UNL     1       1.258   9.117  19.427  0.00  0.00    +0.000 A 
ATOM      8  N   UNL     1       0.904  10.268  18.799  0.00  0.00    +0.000 N 
ATOM      9  C   UNL     1       2.219   8.203  18.905  0.00  0.00    +0.000 A 
ATOM     10  C   UNL     1       3.027   8.080  17.757  0.00  0.00    +0.000 A 
ATOM     11  H   UNL     1       1.621  10.824  18.345  0.00  0.00    +0.000 HD
ENDROOT
BRANCH   8  12
ATOM     12  C   UNL     1      -0.295  11.001  19.025  0.00  0.00    +0.000 A 
ATOM     13  C   UNL     1      -1.450  10.659  18.304  0.00  0.00    +0.000 A 
ATOM     14  C   UNL     1      -2.654  11.300  18.542  0.00  0.00    +0.000 A 
ATOM     15  C   UNL     1      -2.729  12.281  19.529  0.00  0.00    +0.000 A 
ATOM     16  C   UNL     1      -1.617  12.641  20.329  0.00  0.00    +0.000 A 
ATOM     17  C   UNL     1      -0.388  11.991  20.039  0.00  0.00    +0.000 A 
ATOM     18 CL   UNL     1       1.065  12.293  20.957  0.00  0.00    +0.000 Cl
BRANCH  16  19
ATOM     19  C   UNL     1      -1.845  13.599  21.450  0.00  0.00    +0.000 A 
ATOM     20  C   UNL     1      -2.394  14.875  21.193  0.00  0.00    +0.000 A 
ATOM     21  C   UNL     1      -2.648  15.796  22.214  0.00  0.00    +0.000 A 
ATOM     22  C   UNL     1      -2.387  15.453  23.534  0.00  0.00    +0.000 A 
ATOM     23  C   UNL     1      -1.833  14.211  23.822  0.00  0.00    +0.000 A 
ATOM     24  C   UNL     1      -1.538  13.310  22.789  0.00  0.00    +0.000 A 
ENDBRANCH  16  19
ENDBRANCH   8  12
BRANCH   1  25
ATOM     25  C   UNL     1       4.605   6.681  16.319  0.00  0.00    +0.000 C 
BRANCH  25  29
ATOM     26  C   UNL     1       6.853   5.716  16.443  0.00  0.00    +0.000 C 
ATOM     27  C   UNL     1       7.056   4.613  15.377  0.00  0.00    +0.000 C 
ATOM     28  C   UNL     1       5.629   4.963  14.932  0.00  0.00    +0.000 C 
ATOM     29  N   UNL     1       5.361   5.415  16.331  0.00  0.00    +0.000 NA
BRANCH  26  31
ATOM     30  O   UNL     1       7.898   6.267  18.646  0.00  0.00    +0.000 OA
ATOM     31  C   UNL     1       7.423   5.437  17.879  0.00  0.00    +0.000 C 
BRANCH  31  32
ATOM     32  O   UNL     1       7.330   4.123  18.235  0.00  0.00    +0.000 OA
ATOM     33  H   UNL     1       8.124   3.666  17.877  0.00  0.00    +0.000 HD
ENDBRANCH  31  32
ENDBRANCH  26  31
ENDBRANCH  25  29
ENDBRANCH   1  25
TORSDOF 6
ENDMDL
MODEL 5
REMARK VINA RESULT:      -7.9      3.105      9.689
REMARK  Name = 
REMARK  6 active torsions:
REMARK  status: ('A' for Active; 'I' for Inactive)
REMARK    1  A    between atoms: C_2  and  O_3
REMARK    2  A    between atoms: C_2  and  C_4
REMARK    3  A    between atoms: N_7  and  C_8
REMARK    4  A    between atoms: C_8  and  C_9
REMARK    5  A    between atoms: N_16  and  C_17
REMARK    6  A    between atoms: C_21  and  C_22
REMARK                            x       y       z     vdW  Elec       q    Type
REMARK                         _______ _______ _______ _____ _____    ______ ____
ROOT
ATOM      1  C   UNL     1       3.702   6.373  18.082  0.00  0.00    +0.000 A 
ATOM      2  C   UNL     1       3.600   5.508  19.187  0.00  0.00    +0.000 A 
ATOM      3  C   UNL     1       2.786   5.805  20.283  0.00  0.00    +0.000 A 
ATOM      4  C   UNL     1       2.064   6.990  20.205  0.00  0.00    +0.000 A 
ATOM      5  O   UNL     1       1.181   7.436  21.131  0.00  0.00    +0.000 OA
ATOM      6  N   UNL     1       0.613   8.610  20.691  0.00  0.00    +0.000 NA
ATOM      7  C   UNL     1       1.179   8.888  19.507  0.00  0.00    +0.000 A 
ATOM      8  N   UNL     1       0.889   9.953  18.716  0.00  0.00    +0.000 N 
ATOM      9  C   UNL     1       2.129   7.885  19.152  0.00  0.00    +0.000 A 
ATOM     10  C   UNL     1       2.975   7.586  18.067  0.00  0.00    +0.000 A 
ATOM     11  H   UNL     1       1.641  10.423  18.223  0.00  0.00    +0.000 HD
ENDROOT
BRANCH   8  12
ATOM     12  C   UNL     1      -0.292  10.745  18.791  0.00  0.00    +0.000 A 
ATOM     13  C   UNL     1      -1.430  10.340  18.075  0.00  0.00    +0.000 A 
ATOM     14  C   UNL     1      -2.620  11.042  18.175  0.00  0.00    +0.000 A 
ATOM     15  C   UNL     1      -2.699  12.149  19.016  0.00  0.00    +0.000 A 
ATOM     16  C   UNL     1      -1.606  12.583  19.806  0.00  0.00    +0.000 A 
ATOM     17  C   UNL     1      -0.389  11.865  19.658  0.00  0.00    +0.000 A 
ATOM     18 CL   UNL     1       1.037  12.247  20.586  0.00  0.00    +0.000 Cl
BRANCH  16  19
ATOM     19  C   UNL     1      -1.844  13.691  20.778  0.00  0.00    +0.000 A 
ATOM     20  C   UNL     1      -1.452  15.010  20.459  0.00  0.00    +0.000 A 
ATOM     21  C   UNL     1      -1.676  16.083  21.327  0.00  0.00    +0.000 A 
ATOM     22  C   UNL     1      -2.330  15.871  22.533  0.00  0.00    +0.000 A 
ATOM     23  C   UNL     1      -2.717  14.582  22.885  0.00  0.00    +0.000 A 
ATOM     24  C   UNL     1      -2.449  13.504  22.031  0.00  0.00    +0.000 A 
ENDBRANCH  16  19
ENDBRANCH   8  12
BRANCH   1  25
ATOM     25  C   UNL     1       4.558   5.962  16.896  0.00  0.00    +0.000 C 
BRANCH  25  29
ATOM     26  C   UNL     1       6.951   5.701  17.357  0.00  0.00    +0.000 C 
ATOM     27  C   UNL     1       7.545   4.491  16.599  0.00  0.00    +0.000 C 
ATOM     28  C   UNL     1       6.135   4.331  16.014  0.00  0.00    +0.000 C 
ATOM     29  N   UNL     1       5.606   4.986  17.248  0.00  0.00    +0.000 NA
BRANCH  26  31
ATOM     30  O   UNL     1       7.013   5.284  19.822  0.00  0.00    +0.000 OA
ATOM     31  C   UNL     1       7.409   5.910  18.844  0.00  0.00    +0.000 C 
BRANCH  31  32
ATOM     32  O   UNL     1       8.351   6.888  18.971  0.00  0.00    +0.000 OA
ATOM     33  H   UNL     1       9.135   6.610  18.446  0.00  0.00    +0.000 HD
ENDBRANCH  31  32
ENDBRANCH  26  31
ENDBRANCH  25  29
ENDBRANCH   1  25
TORSDOF 6
ENDMDL
MODEL 6
REMARK VINA RESULT:      -7.9      3.654      8.962
REMARK  Name = 
REMARK  6 active torsions:
REMARK  status: ('A' for Active; 'I' for Inactive)
REMARK    1  A    between atoms: C_2  and  O_3
REMARK    2  A    between atoms: C_2  and  C_4
REMARK    3  A    between atoms: N_7  and  C_8
REMARK    4  A    between atoms: C_8  and  C_9
REMARK    5  A    between atoms: N_16  and  C_17
REMARK    6  A    between atoms: C_21  and  C_22
REMARK                            x       y       z     vdW  Elec       q    Type
REMARK                         _______ _______ _______ _____ _____    ______ ____
ROOT
ATOM      1  C   UNL     1       3.537   3.598  17.445  0.00  0.00    +0.000 A 
ATOM      2  C   UNL     1       2.752   2.475  17.767  0.00  0.00    +0.000 A 
ATOM      3  C   UNL     1       1.795   2.513  18.784  0.00  0.00    +0.000 A 
ATOM      4  C   UNL     1       1.646   3.729  19.440  0.00  0.00    +0.000 A 
ATOM      5  O   UNL     1       0.743   3.992  20.414  0.00  0.00    +0.000 OA
ATOM      6  N   UNL     1       0.845   5.314  20.785  0.00  0.00    +0.000 NA
ATOM      7  C   UNL     1       1.835   5.842  20.050  0.00  0.00    +0.000 A 
ATOM      8  N   UNL     1       2.253   7.134  20.087  0.00  0.00    +0.000 N 
ATOM      9  C   UNL     1       2.394   4.863  19.177  0.00  0.00    +0.000 A 
ATOM     10  C   UNL     1       3.375   4.802  18.168  0.00  0.00    +0.000 A 
ATOM     11  H   UNL     1       3.245   7.335  20.017  0.00  0.00    +0.000 HD
ENDROOT
BRANCH   8  12
ATOM     12  C   UNL     1       1.508   8.232  20.604  0.00  0.00    +0.000 A 
ATOM     13  C   UNL     1       1.082   8.197  21.941  0.00  0.00    +0.000 A 
ATOM     14  C   UNL     1       0.415   9.272  22.503  0.00  0.00    +0.000 A 
ATOM     15  C   UNL     1       0.186  10.416  21.742  0.00  0.00    +0.000 A 
ATOM     16  C   UNL     1       0.633  10.540  20.403  0.00  0.00    +0.000 A 
ATOM     17  C   UNL     1       1.283   9.409  19.842  0.00  0.00    +0.000 A 
ATOM     18 CL   UNL     1       1.926   9.413  18.221  0.00  0.00    +0.000 Cl
BRANCH  16  19
ATOM     19  C   UNL     1       0.459  11.861  19.729  0.00  0.00    +0.000 A 
ATOM     20  C   UNL     1      -0.591  12.053  18.804  0.00  0.00    +0.000 A 
ATOM     21  C   UNL     1      -0.807  13.279  18.168  0.00  0.00    +0.000 A 
ATOM     22  C   UNL     1       0.008  14.363  18.462  0.00  0.00    +0.000 A 
ATOM     23  C   UNL     1       1.061  14.205  19.357  0.00  0.00    +0.000 A 
ATOM     24  C   UNL     1       1.300  12.962  19.958  0.00  0.00    +0.000 A 
ENDBRANCH  16  19
ENDBRANCH   8  12
BRANCH   1  25
ATOM     25  C   UNL     1       4.518   3.508  16.288  0.00  0.00    +0.000 C 
BRANCH  25  29
ATOM     26  C   UNL     1       6.834   4.039  15.688  0.00  0.00    +0.000 C 
ATOM     27  C   UNL     1       7.573   4.743  16.849  0.00  0.00    +0.000 C 
ATOM     28  C   UNL     1       6.263   4.552  17.626  0.00  0.00    +0.000 C 
ATOM     29  N   UNL     1       5.546   4.565  16.315  0.00  0.00    +0.000 NA
BRANCH  26  31
ATOM     30  O   UNL     1       6.546   4.200  13.209  0.00  0.00    +0.000 OA
ATOM     31  C   UNL     1       7.077   4.597  14.241  0.00  0.00    +0.000 C 
BRANCH  31  32
ATOM     32  O   UNL     1       7.966   5.632  14.220  0.00  0.00    +0.000 OA
ATOM     33  H   UNL     1       7.561   6.375  14.721  0.00  0.00    +0.000 HD
ENDBRANCH  31  32
ENDBRANCH  26  31
ENDBRANCH  25  29
ENDBRANCH   1  25
TORSDOF 6
ENDMDL
MODEL 7
REMARK VINA RESULT:      -7.9      3.644      9.396
REMARK  Name = 
REMARK  6 active torsions:
REMARK  status: ('A' for Active; 'I' for Inactive)
REMARK    1  A    between atoms: C_2  and  O_3
REMARK    2  A    between atoms: C_2  and  C_4
REMARK    3  A    between atoms: N_7  and  C_8
REMARK    4  A    between atoms: C_8  and  C_9
REMARK    5  A    between atoms: N_16  and  C_17
REMARK    6  A    between atoms: C_21  and  C_22
REMARK                            x       y       z     vdW  Elec       q    Type
REMARK                         _______ _______ _______ _____ _____    ______ ____
ROOT
ATOM      1  C   UNL     1       3.531   5.613  18.199  0.00  0.00    +0.000 A 
ATOM      2  C   UNL     1       3.361   4.945  19.427  0.00  0.00    +0.000 A 
ATOM      3  C   UNL     1       2.646   5.515  20.483  0.00  0.00    +0.000 A 
ATOM      4  C   UNL     1       2.092   6.767  20.242  0.00  0.00    +0.000 A 
ATOM      5  O   UNL     1       1.322   7.467  21.109  0.00  0.00    +0.000 OA
ATOM      6  N   UNL     1       0.903   8.632  20.508  0.00  0.00    +0.000 NA
ATOM      7  C   UNL     1       1.448   8.648  19.282  0.00  0.00    +0.000 A 
ATOM      8  N   UNL     1       1.272   9.614  18.344  0.00  0.00    +0.000 N 
ATOM      9  C   UNL     1       2.232   7.477  19.063  0.00  0.00    +0.000 A 
ATOM     10  C   UNL     1       2.980   6.902  18.016  0.00  0.00    +0.000 A 
ATOM     11  H   UNL     1       2.060   9.892  17.767  0.00  0.00    +0.000 HD
ENDROOT
BRANCH   8  12
ATOM     12  C   UNL     1       0.217  10.569  18.325  0.00  0.00    +0.000 A 
ATOM     13  C   UNL     1      -1.068  10.157  17.939  0.00  0.00    +0.000 A 
ATOM     14  C   UNL     1      -2.138  11.036  17.972  0.00  0.00    +0.000 A 
ATOM     15  C   UNL     1      -1.944  12.340  18.420  0.00  0.00    +0.000 A 
ATOM     16  C   UNL     1      -0.686  12.810  18.873  0.00  0.00    +0.000 A 
ATOM     17  C   UNL     1       0.399  11.897  18.795  0.00  0.00    +0.000 A 
ATOM     18 CL   UNL     1       2.002  12.305  19.348  0.00  0.00    +0.000 Cl
BRANCH  16  19
ATOM     19  C   UNL     1      -0.624  14.179  19.464  0.00  0.00    +0.000 A 
ATOM     20  C   UNL     1      -1.229  14.441  20.713  0.00  0.00    +0.000 A 
ATOM     21  C   UNL     1      -1.174  15.701  21.317  0.00  0.00    +0.000 A 
ATOM     22  C   UNL     1      -0.482  16.734  20.698  0.00  0.00    +0.000 A 
ATOM     23  C   UNL     1       0.113  16.515  19.461  0.00  0.00    +0.000 A 
ATOM     24  C   UNL     1       0.016  15.262  18.840  0.00  0.00    +0.000 A 
ENDBRANCH  16  19
ENDBRANCH   8  12
BRANCH   1  25
ATOM     25  C   UNL     1       4.268   4.911  17.071  0.00  0.00    +0.000 C 
BRANCH  25  29
ATOM     26  C   UNL     1       6.491   4.254  16.278  0.00  0.00    +0.000 C 
ATOM     27  C   UNL     1       7.588   4.609  17.309  0.00  0.00    +0.000 C 
ATOM     28  C   UNL     1       6.426   5.108  18.180  0.00  0.00    +0.000 C 
ATOM     29  N   UNL     1       5.663   5.364  16.920  0.00  0.00    +0.000 NA
BRANCH  26  31
ATOM     30  O   UNL     1       6.295   3.980  13.801  0.00  0.00    +0.000 OA
ATOM     31  C   UNL     1       6.812   4.531  14.767  0.00  0.00    +0.000 C 
BRANCH  31  32
ATOM     32  O   UNL     1       7.756   5.502  14.600  0.00  0.00    +0.000 OA
ATOM     33  H   UNL     1       8.236   5.302  13.764  0.00  0.00    +0.000 HD
ENDBRANCH  31  32
ENDBRANCH  26  31
ENDBRANCH  25  29
ENDBRANCH   1  25
TORSDOF 6
ENDMDL
MODEL 8
REMARK VINA RESULT:      -7.7      3.961      9.242
REMARK  Name = 
REMARK  6 active torsions:
REMARK  status: ('A' for Active; 'I' for Inactive)
REMARK    1  A    between atoms: C_2  and  O_3
REMARK    2  A    between atoms: C_2  and  C_4
REMARK    3  A    between atoms: N_7  and  C_8
REMARK    4  A    between atoms: C_8  and  C_9
REMARK    5  A    between atoms: N_16  and  C_17
REMARK    6  A    between atoms: C_21  and  C_22
REMARK                            x       y       z     vdW  Elec       q    Type
REMARK                         _______ _______ _______ _____ _____    ______ ____
ROOT
ATOM      1  C   UNL     1       3.470   5.584  18.247  0.00  0.00    +0.000 A 
ATOM      2  C   UNL     1       3.115   4.796  19.357  0.00  0.00    +0.000 A 
ATOM      3  C   UNL     1       2.371   5.312  20.420  0.00  0.00    +0.000 A 
ATOM      4  C   UNL     1       1.981   6.641  20.306  0.00  0.00    +0.000 A 
ATOM      5  O   UNL     1       1.215   7.316  21.195  0.00  0.00    +0.000 OA
ATOM      6  N   UNL     1       0.982   8.588  20.724  0.00  0.00    +0.000 NA
ATOM      7  C   UNL     1       1.637   8.689  19.557  0.00  0.00    +0.000 A 
ATOM      8  N   UNL     1       1.655   9.778  18.745  0.00  0.00    +0.000 N 
ATOM      9  C   UNL     1       2.307   7.469  19.246  0.00  0.00    +0.000 A 
ATOM     10  C   UNL     1       3.081   6.942  18.194  0.00  0.00    +0.000 A 
ATOM     11  H   UNL     1       2.518  10.029  18.274  0.00  0.00    +0.000 HD
ENDROOT
BRANCH   8  12
ATOM     12  C   UNL     1       0.716  10.848  18.771  0.00  0.00    +0.000 A 
ATOM     13  C   UNL     1      -0.624  10.570  19.085  0.00  0.00    +0.000 A 
ATOM     14  C   UNL     1      -1.556  11.589  19.189  0.00  0.00    +0.000 A 
ATOM     15  C   UNL     1      -1.156  12.910  19.006  0.00  0.00    +0.000 A 
ATOM     16  C   UNL     1       0.188  13.268  18.739  0.00  0.00    +0.000 A 
ATOM     17  C   UNL     1       1.115  12.200  18.604  0.00  0.00    +0.000 A 
ATOM     18 CL   UNL     1       2.814  12.472  18.313  0.00  0.00    +0.000 Cl
BRANCH  16  19
ATOM     19  C   UNL     1       0.531  14.720  18.704  0.00  0.00    +0.000 A 
ATOM     20  C   UNL     1       1.882  15.131  18.731  0.00  0.00    +0.000 A 
ATOM     21  C   UNL     1       2.251  16.478  18.674  0.00  0.00    +0.000 A 
ATOM     22  C   UNL     1       1.274  17.458  18.558  0.00  0.00    +0.000 A 
ATOM     23  C   UNL     1      -0.067  17.090  18.544  0.00  0.00    +0.000 A 
ATOM     24  C   UNL     1      -0.432  15.740  18.646  0.00  0.00    +0.000 A 
ENDBRANCH  16  19
ENDBRANCH   8  12
BRANCH   1  25
ATOM     25  C   UNL     1       4.228   4.944  17.096  0.00  0.00    +0.000 C 
BRANCH  25  29
ATOM     26  C   UNL     1       6.488   4.264  16.439  0.00  0.00    +0.000 C 
ATOM     27  C   UNL     1       7.531   4.649  17.515  0.00  0.00    +0.000 C 
ATOM     28  C   UNL     1       6.326   5.173  18.309  0.00  0.00    +0.000 C 
ATOM     29  N   UNL     1       5.630   5.392  17.005  0.00  0.00    +0.000 NA
BRANCH  26  31
ATOM     30  O   UNL     1       7.609   5.391  14.509  0.00  0.00    +0.000 OA
ATOM     31  C   UNL     1       6.888   4.497  14.939  0.00  0.00    +0.000 C 
BRANCH  31  32
ATOM     32  O   UNL     1       6.351   3.564  14.101  0.00  0.00    +0.000 OA
ATOM     33  H   UNL     1       7.054   3.307  13.462  0.00  0.00    +0.000 HD
ENDBRANCH  31  32
ENDBRANCH  26  31
ENDBRANCH  25  29
ENDBRANCH   1  25
TORSDOF 6
ENDMDL
MODEL 9
REMARK VINA RESULT:      -7.6      3.279      9.564
REMARK  Name = 
REMARK  6 active torsions:
REMARK  status: ('A' for Active; 'I' for Inactive)
REMARK    1  A    between atoms: C_2  and  O_3
REMARK    2  A    between atoms: C_2  and  C_4
REMARK    3  A    between atoms: N_7  and  C_8
REMARK    4  A    between atoms: C_8  and  C_9
REMARK    5  A    between atoms: N_16  and  C_17
REMARK    6  A    between atoms: C_21  and  C_22
REMARK                            x       y       z     vdW  Elec       q    Type
REMARK                         _______ _______ _______ _____ _____    ______ ____
ROOT
ATOM      1  C   UNL     1       3.681   6.069  18.046  0.00  0.00    +0.000 A 
ATOM      2  C   UNL     1       3.455   5.218  19.144  0.00  0.00    +0.000 A 
ATOM      3  C   UNL     1       2.664   5.606  20.228  0.00  0.00    +0.000 A 
ATOM      4  C   UNL     1       2.094   6.871  20.147  0.00  0.00    +0.000 A 
ATOM      5  O   UNL     1       1.257   7.417  21.061  0.00  0.00    +0.000 OA
ATOM      6  N   UNL     1       0.845   8.654  20.620  0.00  0.00    +0.000 NA
ATOM      7  C   UNL     1       1.461   8.867  19.447  0.00  0.00    +0.000 A 
ATOM      8  N   UNL     1       1.317   9.964  18.659  0.00  0.00    +0.000 N 
ATOM      9  C   UNL     1       2.286   7.757  19.102  0.00  0.00    +0.000 A 
ATOM     10  C   UNL     1       3.109   7.362  18.028  0.00  0.00    +0.000 A 
ATOM     11  H   UNL     1       2.130  10.340  18.182  0.00  0.00    +0.000 HD
ENDROOT
BRANCH   8  12
ATOM     12  C   UNL     1       0.241  10.893  18.721  0.00  0.00    +0.000 A 
ATOM     13  C   UNL     1      -1.078  10.415  18.653  0.00  0.00    +0.000 A 
ATOM     14  C   UNL     1      -2.154  11.276  18.778  0.00  0.00    +0.000 A 
ATOM     15  C   UNL     1      -1.930  12.633  19.000  0.00  0.00    +0.000 A 
ATOM     16  C   UNL     1      -0.628  13.177  19.131  0.00  0.00    +0.000 A 
ATOM     17  C   UNL     1       0.457  12.275  18.964  0.00  0.00    +0.000 A 
ATOM     18 CL   UNL     1       2.120  12.777  19.131  0.00  0.00    +0.000 Cl
BRANCH  16  19
ATOM     19  C   UNL     1      -0.507  14.615  19.510  0.00  0.00    +0.000 A 
ATOM     20  C   UNL     1      -1.396  15.178  20.452  0.00  0.00    +0.000 A 
ATOM     21  C   UNL     1      -1.304  16.513  20.856  0.00  0.00    +0.000 A 
ATOM     22  C   UNL     1      -0.296  17.322  20.348  0.00  0.00    +0.000 A 
ATOM     23  C   UNL     1       0.587  16.804  19.407  0.00  0.00    +0.000 A 
ATOM     24  C   UNL     1       0.462  15.477  18.973  0.00  0.00    +0.000 A 
ENDBRANCH  16  19
ENDBRANCH   8  12
BRANCH   1  25
ATOM     25  C   UNL     1       4.501   5.562  16.872  0.00  0.00    +0.000 C 
BRANCH  25  29
ATOM     26  C   UNL     1       6.895   5.560  17.397  0.00  0.00    +0.000 C 
ATOM     27  C   UNL     1       7.628   4.395  16.692  0.00  0.00    +0.000 C 
ATOM     28  C   UNL     1       6.257   4.073  16.081  0.00  0.00    +0.000 C 
ATOM     29  N   UNL     1       5.633   4.709  17.281  0.00  0.00    +0.000 NA
BRANCH  26  31
ATOM     30  O   UNL     1       6.820   5.327  19.885  0.00  0.00    +0.000 OA
ATOM     31  C   UNL     1       7.291   5.860  18.886  0.00  0.00    +0.000 C 
BRANCH  31  32
ATOM     32  O   UNL     1       8.270   6.804  18.989  0.00  0.00    +0.000 OA
ATOM     33  H   UNL     1       7.827   7.671  19.128  0.00  0.00    +0.000 HD
ENDBRANCH  31  32
ENDBRANCH  26  31
ENDBRANCH  25  29
ENDBRANCH   1  25
TORSDOF 6
ENDMDL
