MODEL 1
REMARK VINA RESULT:      -7.8      0.000      0.000
REMARK  Name = 
REMARK  6 active torsions:
REMARK  status: ('A' for Active; 'I' for Inactive)
REMARK    1  A    between atoms: C_1  and  C_2
REMARK    2  A    between atoms: C_2  and  O_3
REMARK    3  A    between atoms: O_3  and  C_4
REMARK    4  A    between atoms: C_12  and  C_14
REMARK    5  A    between atoms: C_17  and  S_18
REMARK    6  A    between atoms: S_18  and  N_21
REMARK                            x       y       z     vdW  Elec       q    Type
REMARK                         _______ _______ _______ _____ _____    ______ ____
ROOT
ATOM      1  C   UNL     1       3.501   4.005  19.081  0.00  0.00    +0.000 A 
ATOM      2  C   UNL     1       4.261   3.375  18.075  0.00  0.00    +0.000 A 
ATOM      3  C   UNL     1       4.718   4.066  16.959  0.00  0.00    +0.000 A 
ATOM      4  C   UNL     1       4.425   5.411  16.801  0.00  0.00    +0.000 A 
ATOM      5  C   UNL     1       3.659   6.045  17.787  0.00  0.00    +0.000 A 
ATOM      6  S   UNL     1       3.139   7.675  17.801  0.00  0.00    +0.000 S 
ATOM      7  C   UNL     1       2.317   7.403  19.259  0.00  0.00    +0.000 A 
ATOM      8  N   UNL     1       1.602   8.404  19.875  0.00  0.00    +0.000 N 
ATOM      9  C   UNL     1       1.170   9.568  19.269  0.00  0.00    +0.000 C 
ATOM     10  O   UNL     1       1.311   9.885  18.098  0.00  0.00    +0.000 OA
ATOM     11  N   UNL     1       2.461   6.213  19.795  0.00  0.00    +0.000 NA
ATOM     12  C   UNL     1       3.196   5.389  18.930  0.00  0.00    +0.000 A 
ATOM     13  H   UNL     1       1.356   8.181  20.824  0.00  0.00    +0.000 HD
ENDROOT
BRANCH   9  14
ATOM     14  C   UNL     1       0.451  10.535  20.147  0.00  0.00    +0.000 A 
ATOM     15  C   UNL     1      -0.102  11.675  19.542  0.00  0.00    +0.000 A 
ATOM     16  C   UNL     1      -0.772  12.631  20.306  0.00  0.00    +0.000 A 
ATOM     17  C   UNL     1      -0.931  12.433  21.680  0.00  0.00    +0.000 A 
ATOM     18  C   UNL     1      -0.375  11.306  22.300  0.00  0.00    +0.000 A 
ATOM     19  C   UNL     1       0.298  10.347  21.528  0.00  0.00    +0.000 A 
BRANCH  17  20
ATOM     20  S   UNL     1      -1.741  13.708  22.641  0.00  0.00    +0.000 S 
ATOM     21  O   UNL     1      -1.052  13.780  23.912  0.00  0.00    +0.000 OA
ATOM     22  O   UNL     1      -1.849  14.873  21.789  0.00  0.00    +0.000 OA
BRANCH  20  23
ATOM     23  N   UNL     1      -3.321  13.101  22.915  0.00  0.00    +0.000 NA
ATOM     24  C   UNL     1      -3.806  13.194  24.317  0.00  0.00    +0.000 C 
ATOM     25  C   UNL     1      -5.153  12.507  24.509  0.00  0.00    +0.000 C 
ATOM     26  C   UNL     1      -6.170  12.982  23.484  0.00  0.00    +0.000 C 
ATOM     27  C   UNL     1      -5.642  12.706  22.087  0.00  0.00    +0.000 C 
ATOM     28  C   UNL     1      -4.307  13.400  21.848  0.00  0.00    +0.000 C 
ENDBRANCH  20  23
ENDBRANCH  17  20
ENDBRANCH   9  14
BRANCH   1  29
ATOM     29  O   UNL     1       3.029   3.331  20.191  0.00  0.00    +0.000 OA
BRANCH  29  31
ATOM     30  C   UNL     1       0.659   3.120  19.837  0.00  0.00    +0.000 C 
ATOM     31  C   UNL     1       1.979   2.392  19.942  0.00  0.00    +0.000 C 
ENDBRANCH  29  31
ENDBRANCH   1  29
TORSDOF 5
ENDMDL
MODEL 2
REMARK VINA RESULT:      -7.8      2.745     10.439
REMARK  Name = 
REMARK  6 active torsions:
REMARK  status: ('A' for Active; 'I' for Inactive)
REMARK    1  A    between atoms: C_1  and  C_2
REMARK    2  A    between atoms: C_2  and  O_3
REMARK    3  A    between atoms: O_3  and  C_4
REMARK    4  A    between atoms: C_12  and  C_14
REMARK    5  A    between atoms: C_17  and  S_18
REMARK    6  A    between atoms: S_18  and  N_21
REMARK                            x       y       z     vdW  Elec       q    Type
REMARK                         _______ _______ _______ _____ _____    ______ ____
ROOT
ATOM      1  C   UNL     1      -4.869  12.498  19.194  0.00  0.00    +0.000 A 
ATOM      2  C   UNL     1      -5.492  13.521  19.938  0.00  0.00    +0.000 A 
ATOM      3  C   UNL     1      -4.827  14.199  20.952  0.00  0.00    +0.000 A 
ATOM      4  C   UNL     1      -3.517  13.875  21.269  0.00  0.00    +0.000 A 
ATOM      5  C   UNL     1      -2.892  12.852  20.545  0.00  0.00    +0.000 A 
ATOM      6  S   UNL     1      -1.307  12.250  20.769  0.00  0.00    +0.000 S 
ATOM      7  C   UNL     1      -1.564  11.109  19.541  0.00  0.00    +0.000 A 
ATOM      8  N   UNL     1      -0.588  10.205  19.188  0.00  0.00    +0.000 N 
ATOM      9  C   UNL     1       0.509   9.870  19.958  0.00  0.00    +0.000 C 
ATOM     10  O   UNL     1       0.775  10.279  21.079  0.00  0.00    +0.000 OA
ATOM     11  N   UNL     1      -2.710  11.185  18.907  0.00  0.00    +0.000 NA
ATOM     12  C   UNL     1      -3.521  12.159  19.507  0.00  0.00    +0.000 A 
ATOM     13  H   UNL     1      -0.780   9.744  18.315  0.00  0.00    +0.000 HD
ENDROOT
BRANCH   9  14
ATOM     14  C   UNL     1       1.463   8.899  19.351  0.00  0.00    +0.000 A 
ATOM     15  C   UNL     1       1.773   7.745  20.087  0.00  0.00    +0.000 A 
ATOM     16  C   UNL     1       2.673   6.802  19.588  0.00  0.00    +0.000 A 
ATOM     17  C   UNL     1       3.241   6.989  18.325  0.00  0.00    +0.000 A 
ATOM     18  C   UNL     1       2.951   8.142  17.583  0.00  0.00    +0.000 A 
ATOM     19  C   UNL     1       2.045   9.086  18.089  0.00  0.00    +0.000 A 
BRANCH  17  20
ATOM     20  S   UNL     1       4.439   5.794  17.741  0.00  0.00    +0.000 S 
ATOM     21  O   UNL     1       4.405   5.834  16.294  0.00  0.00    +0.000 OA
ATOM     22  O   UNL     1       5.670   6.044  18.461  0.00  0.00    +0.000 OA
BRANCH  20  23
ATOM     23  N   UNL     1       3.820   4.279  18.254  0.00  0.00    +0.000 NA
ATOM     24  C   UNL     1       3.019   3.541  17.243  0.00  0.00    +0.000 C 
ATOM     25  C   UNL     1       2.386   2.278  17.817  0.00  0.00    +0.000 C 
ATOM     26  C   UNL     1       3.417   1.412  18.522  0.00  0.00    +0.000 C 
ATOM     27  C   UNL     1       4.073   2.213  19.633  0.00  0.00    +0.000 C 
ATOM     28  C   UNL     1       4.740   3.472  19.093  0.00  0.00    +0.000 C 
ENDBRANCH  20  23
ENDBRANCH  17  20
ENDBRANCH   9  14
BRANCH   1  29
ATOM     29  O   UNL     1      -5.518  11.806  18.189  0.00  0.00    +0.000 OA
BRANCH  29  31
ATOM     30  C   UNL     1      -6.962  10.023  18.914  0.00  0.00    +0.000 C 
ATOM     31  C   UNL     1      -6.881  11.462  18.458  0.00  0.00    +0.000 C 
ENDBRANCH  29  31
ENDBRANCH   1  29
TORSDOF 5
ENDMDL
MODEL 3
REMARK VINA RESULT:      -7.8      2.735     10.657
REMARK  Name = 
REMARK  6 active torsions:
REMARK  status: ('A' for Active; 'I' for Inactive)
REMARK    1  A    between atoms: C_1  and  C_2
REMARK    2  A    between atoms: C_2  and  O_3
REMARK    3  A    between atoms: O_3  and  C_4
REMARK    4  A    between atoms: C_12  and  C_14
REMARK    5  A    between atoms: C_17  and  S_18
REMARK    6  A    between atoms: S_18  and  N_21
REMARK                            x       y       z     vdW  Elec       q    Type
REMARK                         _______ _______ _______ _____ _____    ______ ____
ROOT
ATOM      1  C   UNL     1       0.153  14.386  21.622  0.00  0.00    +0.000 A 
ATOM      2  C   UNL     1      -0.763  15.144  22.380  0.00  0.00    +0.000 A 
ATOM      3  C   UNL     1      -1.659  14.547  23.259  0.00  0.00    +0.000 A 
ATOM      4  C   UNL     1      -1.682  13.169  23.407  0.00  0.00    +0.000 A 
ATOM      5  C   UNL     1      -0.787  12.405  22.650  0.00  0.00    +0.000 A 
ATOM      6  S   UNL     1      -0.646  10.700  22.629  0.00  0.00    +0.000 S 
ATOM      7  C   UNL     1       0.570  10.811  21.452  0.00  0.00    +0.000 A 
ATOM      8  N   UNL     1       1.168   9.686  20.932  0.00  0.00    +0.000 N 
ATOM      9  C   UNL     1       0.659   8.404  21.003  0.00  0.00    +0.000 C 
ATOM     10  O   UNL     1      -0.407   8.061  21.493  0.00  0.00    +0.000 OA
ATOM     11  N   UNL     1       0.951  12.023  21.123  0.00  0.00    +0.000 NA
ATOM     12  C   UNL     1       0.141  12.968  21.769  0.00  0.00    +0.000 A 
ATOM     13  H   UNL     1       2.010   9.892  20.422  0.00  0.00    +0.000 HD
ENDROOT
BRANCH   9  14
ATOM     14  C   UNL     1       1.505   7.330  20.409  0.00  0.00    +0.000 A 
ATOM     15  C   UNL     1       2.242   7.647  19.257  0.00  0.00    +0.000 A 
ATOM     16  C   UNL     1       3.042   6.685  18.637  0.00  0.00    +0.000 A 
ATOM     17  C   UNL     1       3.141   5.406  19.192  0.00  0.00    +0.000 A 
ATOM     18  C   UNL     1       2.403   5.072  20.335  0.00  0.00    +0.000 A 
ATOM     19  C   UNL     1       1.601   6.042  20.954  0.00  0.00    +0.000 A 
BRANCH  17  20
ATOM     20  S   UNL     1       4.125   4.177  18.338  0.00  0.00    +0.000 S 
ATOM     21  O   UNL     1       4.263   3.049  19.235  0.00  0.00    +0.000 OA
ATOM     22  O   UNL     1       3.544   4.012  17.023  0.00  0.00    +0.000 OA
BRANCH  20  23
ATOM     23  N   UNL     1       5.663   4.913  18.152  0.00  0.00    +0.000 NA
ATOM     24  C   UNL     1       5.787   5.851  17.005  0.00  0.00    +0.000 C 
ATOM     25  C   UNL     1       7.215   6.351  16.820  0.00  0.00    +0.000 C 
ATOM     26  C   UNL     1       7.783   6.903  18.117  0.00  0.00    +0.000 C 
ATOM     27  C   UNL     1       7.747   5.821  19.183  0.00  0.00    +0.000 C 
ATOM     28  C   UNL     1       6.329   5.313  19.415  0.00  0.00    +0.000 C 
ENDBRANCH  20  23
ENDBRANCH  17  20
ENDBRANCH   9  14
BRANCH   1  29
ATOM     29  O   UNL     1       1.044  14.960  20.736  0.00  0.00    +0.000 OA
BRANCH  29  31
ATOM     30  C   UNL     1       1.473  16.041  18.631  0.00  0.00    +0.000 C 
ATOM     31  C   UNL     1       0.576  15.091  19.390  0.00  0.00    +0.000 C 
ENDBRANCH  29  31
ENDBRANCH   1  29
TORSDOF 5
ENDMDL
MODEL 4
REMARK VINA RESULT:      -7.8      4.162     10.805
REMARK  Name = 
REMARK  6 active torsions:
REMARK  status: ('A' for Active; 'I' for Inactive)
REMARK    1  A    between atoms: C_1  and  C_2
REMARK    2  A    between atoms: C_2  and  O_3
REMARK    3  A    between atoms: O_3  and  C_4
REMARK    4  A    between atoms: C_12  and  C_14
REMARK    5  A    between atoms: C_17  and  S_18
REMARK    6  A    between atoms: S_18  and  N_21
REMARK                            x       y       z     vdW  Elec       q    Type
REMARK                         _______ _______ _______ _____ _____    ______ ____
ROOT
ATOM      1  C   UNL     1       2.085  16.708  18.418  0.00  0.00    +0.000 A 
ATOM      2  C   UNL     1       1.239  17.836  18.421  0.00  0.00    +0.000 A 
ATOM      3  C   UNL     1      -0.126  17.729  18.661  0.00  0.00    +0.000 A 
ATOM      4  C   UNL     1      -0.700  16.490  18.897  0.00  0.00    +0.000 A 
ATOM      5  C   UNL     1       0.127  15.361  18.883  0.00  0.00    +0.000 A 
ATOM      6  S   UNL     1      -0.345  13.732  19.110  0.00  0.00    +0.000 S 
ATOM      7  C   UNL     1       1.256  13.230  18.862  0.00  0.00    +0.000 A 
ATOM      8  N   UNL     1       1.602  11.899  18.899  0.00  0.00    +0.000 N 
ATOM      9  C   UNL     1       0.724  10.840  18.779  0.00  0.00    +0.000 C 
ATOM     10  O   UNL     1      -0.481  10.900  18.584  0.00  0.00    +0.000 OA
ATOM     11  N   UNL     1       2.146  14.181  18.706  0.00  0.00    +0.000 NA
ATOM     12  C   UNL     1       1.506  15.428  18.663  0.00  0.00    +0.000 A 
ATOM     13  H   UNL     1       2.596  11.756  18.961  0.00  0.00    +0.000 HD
ENDROOT
BRANCH   9  14
ATOM     14  C   UNL     1       1.320   9.478  18.898  0.00  0.00    +0.000 A 
ATOM     15  C   UNL     1       1.947   8.943  17.761  0.00  0.00    +0.000 A 
ATOM     16  C   UNL     1       2.510   7.666  17.795  0.00  0.00    +0.000 A 
ATOM     17  C   UNL     1       2.486   6.930  18.982  0.00  0.00    +0.000 A 
ATOM     18  C   UNL     1       1.853   7.446  20.121  0.00  0.00    +0.000 A 
ATOM     19  C   UNL     1       1.289   8.730  20.083  0.00  0.00    +0.000 A 
BRANCH  17  20
ATOM     20  S   UNL     1       3.160   5.271  18.975  0.00  0.00    +0.000 S 
ATOM     21  O   UNL     1       3.260   4.849  20.356  0.00  0.00    +0.000 OA
ATOM     22  O   UNL     1       2.388   4.506  18.019  0.00  0.00    +0.000 OA
BRANCH  20  23
ATOM     23  N   UNL     1       4.747   5.456  18.350  0.00  0.00    +0.000 NA
ATOM     24  C   UNL     1       5.843   5.326  19.344  0.00  0.00    +0.000 C 
ATOM     25  C   UNL     1       7.209   5.644  18.745  0.00  0.00    +0.000 C 
ATOM     26  C   UNL     1       7.452   4.855  17.469  0.00  0.00    +0.000 C 
ATOM     27  C   UNL     1       6.358   5.172  16.465  0.00  0.00    +0.000 C 
ATOM     28  C   UNL     1       4.978   4.842  17.020  0.00  0.00    +0.000 C 
ENDBRANCH  20  23
ENDBRANCH  17  20
ENDBRANCH   9  14
BRANCH   1  29
ATOM     29  O   UNL     1       3.442  16.793  18.171  0.00  0.00    +0.000 OA
BRANCH  29  31
ATOM     30  C   UNL     1       5.654  17.243  19.002  0.00  0.00    +0.000 C 
ATOM     31  C   UNL     1       4.284  16.689  19.323  0.00  0.00    +0.000 C 
ENDBRANCH  29  31
ENDBRANCH   1  29
TORSDOF 5
ENDMDL
MODEL 5
REMARK VINA RESULT:      -7.7      1.137      1.815
REMARK  Name = 
REMARK  6 active torsions:
REMARK  status: ('A' for Active; 'I' for Inactive)
REMARK    1  A    between atoms: C_1  and  C_2
REMARK    2  A    between atoms: C_2  and  O_3
REMARK    3  A    between atoms: O_3  and  C_4
REMARK    4  A    between atoms: C_12  and  C_14
REMARK    5  A    between atoms: C_17  and  S_18
REMARK    6  A    between atoms: S_18  and  N_21
REMARK                            x       y       z     vdW  Elec       q    Type
REMARK                         _______ _______ _______ _____ _____    ______ ____
ROOT
ATOM      1  C   UNL     1       3.824   4.196  19.002  0.00  0.00    +0.000 A 
ATOM      2  C   UNL     1       4.668   3.677  17.999  0.00  0.00    +0.000 A 
ATOM      3  C   UNL     1       5.068   4.441  16.909  0.00  0.00    +0.000 A 
ATOM      4  C   UNL     1       4.633   5.750  16.774  0.00  0.00    +0.000 A 
ATOM      5  C   UNL     1       3.784   6.272  17.758  0.00  0.00    +0.000 A 
ATOM      6  S   UNL     1       3.090   7.836  17.798  0.00  0.00    +0.000 S 
ATOM      7  C   UNL     1       2.275   7.440  19.231  0.00  0.00    +0.000 A 
ATOM      8  N   UNL     1       1.444   8.343  19.854  0.00  0.00    +0.000 N 
ATOM      9  C   UNL     1       0.900   9.468  19.266  0.00  0.00    +0.000 C 
ATOM     10  O   UNL     1       1.028   9.827  18.105  0.00  0.00    +0.000 OA
ATOM     11  N   UNL     1       2.537   6.261  19.743  0.00  0.00    +0.000 NA
ATOM     12  C   UNL     1       3.373   5.542  18.876  0.00  0.00    +0.000 A 
ATOM     13  H   UNL     1       1.205   8.071  20.792  0.00  0.00    +0.000 HD
ENDROOT
BRANCH   9  14
ATOM     14  C   UNL     1       0.064  10.330  20.149  0.00  0.00    +0.000 A 
ATOM     15  C   UNL     1       0.212  10.173  21.537  0.00  0.00    +0.000 A 
ATOM     16  C   UNL     1      -0.553  10.933  22.424  0.00  0.00    +0.000 A 
ATOM     17  C   UNL     1      -1.444  11.888  21.926  0.00  0.00    +0.000 A 
ATOM     18  C   UNL     1      -1.611  12.047  20.544  0.00  0.00    +0.000 A 
ATOM     19  C   UNL     1      -0.840  11.281  19.657  0.00  0.00    +0.000 A 
BRANCH  17  20
ATOM     20  S   UNL     1      -2.455  12.802  23.088  0.00  0.00    +0.000 S 
ATOM     21  O   UNL     1      -3.287  11.836  23.774  0.00  0.00    +0.000 OA
ATOM     22  O   UNL     1      -1.566  13.673  23.827  0.00  0.00    +0.000 OA
BRANCH  20  23
ATOM     23  N   UNL     1      -3.462  13.781  22.103  0.00  0.00    +0.000 NA
ATOM     24  C   UNL     1      -4.776  13.186  21.746  0.00  0.00    +0.000 C 
ATOM     25  C   UNL     1      -5.551  14.050  20.757  0.00  0.00    +0.000 C 
ATOM     26  C   UNL     1      -5.647  15.490  21.233  0.00  0.00    +0.000 C 
ATOM     27  C   UNL     1      -4.249  16.050  21.427  0.00  0.00    +0.000 C 
ATOM     28  C   UNL     1      -3.452  15.227  22.431  0.00  0.00    +0.000 C 
ENDBRANCH  20  23
ENDBRANCH  17  20
ENDBRANCH   9  14
BRANCH   1  29
ATOM     29  O   UNL     1       3.407   3.448  20.087  0.00  0.00    +0.000 OA
BRANCH  29  31
ATOM     30  C   UNL     1       1.126   3.058  20.744  0.00  0.00    +0.000 C 
ATOM     31  C   UNL     1       2.267   2.614  19.858  0.00  0.00    +0.000 C 
ENDBRANCH  29  31
ENDBRANCH   1  29
TORSDOF 5
ENDMDL
MODEL 6
REMARK VINA RESULT:      -7.7      1.840      2.875
REMARK  Name = 
REMARK  6 active torsions:
REMARK  status: ('A' for Active; 'I' for Inactive)
REMARK    1  A    between atoms: C_1  and  C_2
REMARK    2  A    between atoms: C_2  and  O_3
REMARK    3  A    between atoms: O_3  and  C_4
REMARK    4  A    between atoms: C_12  and  C_14
REMARK    5  A    between atoms: C_17  and  S_18
REMARK    6  A    between atoms: S_18  and  N_21
REMARK                            x       y       z     vdW  Elec       q    Type
REMARK                         _______ _______ _______ _____ _____    ______ ____
ROOT
ATOM      1  C   UNL     1       4.947   5.446  16.753  0.00  0.00    +0.000 A 
ATOM      2  C   UNL     1       5.211   4.076  16.552  0.00  0.00    +0.000 A 
ATOM      3  C   UNL     1       4.484   3.086  17.203  0.00  0.00    +0.000 A 
ATOM      4  C   UNL     1       3.472   3.427  18.087  0.00  0.00    +0.000 A 
ATOM      5  C   UNL     1       3.209   4.784  18.304  0.00  0.00    +0.000 A 
ATOM      6  S   UNL     1       2.045   5.454  19.364  0.00  0.00    +0.000 S 
ATOM      7  C   UNL     1       2.555   7.015  18.944  0.00  0.00    +0.000 A 
ATOM      8  N   UNL     1       1.980   8.132  19.506  0.00  0.00    +0.000 N 
ATOM      9  C   UNL     1       1.232   8.148  20.667  0.00  0.00    +0.000 C 
ATOM     10  O   UNL     1       0.989   7.201  21.400  0.00  0.00    +0.000 OA
ATOM     11  N   UNL     1       3.472   7.095  18.008  0.00  0.00    +0.000 NA
ATOM     12  C   UNL     1       3.905   5.809  17.657  0.00  0.00    +0.000 A 
ATOM     13  H   UNL     1       2.212   8.979  19.016  0.00  0.00    +0.000 HD
ENDROOT
BRANCH   9  14
ATOM     14  C   UNL     1       0.666   9.469  21.062  0.00  0.00    +0.000 A 
ATOM     15  C   UNL     1      -0.128   9.515  22.219  0.00  0.00    +0.000 A 
ATOM     16  C   UNL     1      -0.706  10.715  22.638  0.00  0.00    +0.000 A 
ATOM     17  C   UNL     1      -0.457  11.890  21.923  0.00  0.00    +0.000 A 
ATOM     18  C   UNL     1       0.323  11.858  20.760  0.00  0.00    +0.000 A 
ATOM     19  C   UNL     1       0.902  10.649  20.343  0.00  0.00    +0.000 A 
BRANCH  17  20
ATOM     20  S   UNL     1      -1.264  13.399  22.450  0.00  0.00    +0.000 S 
ATOM     21  O   UNL     1      -0.661  13.782  23.709  0.00  0.00    +0.000 OA
ATOM     22  O   UNL     1      -1.254  14.301  21.318  0.00  0.00    +0.000 OA
BRANCH  20  23
ATOM     23  N   UNL     1      -2.889  12.936  22.747  0.00  0.00    +0.000 NA
ATOM     24  C   UNL     1      -3.361  13.128  24.143  0.00  0.00    +0.000 C 
ATOM     25  C   UNL     1      -4.760  12.563  24.362  0.00  0.00    +0.000 C 
ATOM     26  C   UNL     1      -5.736  13.077  23.317  0.00  0.00    +0.000 C 
ATOM     27  C   UNL     1      -5.236  12.701  21.933  0.00  0.00    +0.000 C 
ATOM     28  C   UNL     1      -3.848  13.270  21.667  0.00  0.00    +0.000 C 
ENDBRANCH  20  23
ENDBRANCH  17  20
ENDBRANCH   9  14
BRANCH   1  29
ATOM     29  O   UNL     1       5.665   6.444  16.123  0.00  0.00    +0.000 OA
BRANCH  29  31
ATOM     30  C   UNL     1       7.391   7.172  17.634  0.00  0.00    +0.000 C 
ATOM     31  C   UNL     1       7.077   6.427  16.356  0.00  0.00    +0.000 C 
ENDBRANCH  29  31
ENDBRANCH   1  29
TORSDOF 5
ENDMDL
MODEL 7
REMARK VINA RESULT:      -7.7      2.773     10.175
REMARK  Name = 
REMARK  6 active torsions:
REMARK  status: ('A' for Active; 'I' for Inactive)
REMARK    1  A    between atoms: C_1  and  C_2
REMARK    2  A    between atoms: C_2  and  O_3
REMARK    3  A    between atoms: O_3  and  C_4
REMARK    4  A    between atoms: C_12  and  C_14
REMARK    5  A    between atoms: C_17  and  S_18
REMARK    6  A    between atoms: S_18  and  N_21
REMARK                            x       y       z     vdW  Elec       q    Type
REMARK                         _______ _______ _______ _____ _____    ______ ____
ROOT
ATOM      1  C   UNL     1      -4.924  12.275  19.032  0.00  0.00    +0.000 A 
ATOM      2  C   UNL     1      -5.541  13.358  19.691  0.00  0.00    +0.000 A 
ATOM      3  C   UNL     1      -4.847  14.163  20.587  0.00  0.00    +0.000 A 
ATOM      4  C   UNL     1      -3.513  13.912  20.865  0.00  0.00    +0.000 A 
ATOM      5  C   UNL     1      -2.893  12.832  20.227  0.00  0.00    +0.000 A 
ATOM      6  S   UNL     1      -1.279  12.301  20.430  0.00  0.00    +0.000 S 
ATOM      7  C   UNL     1      -1.561  11.023  19.352  0.00  0.00    +0.000 A 
ATOM      8  N   UNL     1      -0.575  10.112  19.049  0.00  0.00    +0.000 N 
ATOM      9  C   UNL     1       0.569   9.895  19.791  0.00  0.00    +0.000 C 
ATOM     10  O   UNL     1       0.878  10.434  20.843  0.00  0.00    +0.000 OA
ATOM     11  N   UNL     1      -2.740  10.996  18.777  0.00  0.00    +0.000 NA
ATOM     12  C   UNL     1      -3.551  12.009  19.308  0.00  0.00    +0.000 A 
ATOM     13  H   UNL     1      -0.796   9.550  18.244  0.00  0.00    +0.000 HD
ENDROOT
BRANCH   9  14
ATOM     14  C   UNL     1       1.523   8.888  19.244  0.00  0.00    +0.000 A 
ATOM     15  C   UNL     1       1.855   7.796  20.062  0.00  0.00    +0.000 A 
ATOM     16  C   UNL     1       2.756   6.825  19.622  0.00  0.00    +0.000 A 
ATOM     17  C   UNL     1       3.301   6.918  18.339  0.00  0.00    +0.000 A 
ATOM     18  C   UNL     1       2.989   8.008  17.515  0.00  0.00    +0.000 A 
ATOM     19  C   UNL     1       2.082   8.981  17.962  0.00  0.00    +0.000 A 
BRANCH  17  20
ATOM     20  S   UNL     1       4.501   5.691  17.828  0.00  0.00    +0.000 S 
ATOM     21  O   UNL     1       4.660   5.827  16.396  0.00  0.00    +0.000 OA
ATOM     22  O   UNL     1       5.638   5.818  18.715  0.00  0.00    +0.000 OA
BRANCH  20  23
ATOM     23  N   UNL     1       3.741   4.188  18.149  0.00  0.00    +0.000 NA
ATOM     24  C   UNL     1       4.159   3.517  19.407  0.00  0.00    +0.000 C 
ATOM     25  C   UNL     1       3.551   2.126  19.550  0.00  0.00    +0.000 C 
ATOM     26  C   UNL     1       2.044   2.156  19.353  0.00  0.00    +0.000 C 
ATOM     27  C   UNL     1       1.728   2.722  17.979  0.00  0.00    +0.000 C 
ATOM     28  C   UNL     1       2.299   4.124  17.808  0.00  0.00    +0.000 C 
ENDBRANCH  20  23
ENDBRANCH  17  20
ENDBRANCH   9  14
BRANCH   1  29
ATOM     29  O   UNL     1      -5.600  11.457  18.147  0.00  0.00    +0.000 OA
BRANCH  29  31
ATOM     30  C   UNL     1      -6.898   9.717  19.183  0.00  0.00    +0.000 C 
ATOM     31  C   UNL     1      -6.924  11.085  18.541  0.00  0.00    +0.000 C 
ENDBRANCH  29  31
ENDBRANCH   1  29
TORSDOF 5
ENDMDL
MODEL 8
REMARK VINA RESULT:      -7.7      0.991      1.044
REMARK  Name = 
REMARK  6 active torsions:
REMARK  status: ('A' for Active; 'I' for Inactive)
REMARK    1  A    between atoms: C_1  and  C_2
REMARK    2  A    between atoms: C_2  and  O_3
REMARK    3  A    between atoms: O_3  and  C_4
REMARK    4  A    between atoms: C_12  and  C_14
REMARK    5  A    between atoms: C_17  and  S_18
REMARK    6  A    between atoms: S_18  and  N_21
REMARK                            x       y       z     vdW  Elec       q    Type
REMARK                         _______ _______ _______ _____ _____    ______ ____
ROOT
ATOM      1  C   UNL     1       3.147   3.666  18.470  0.00  0.00    +0.000 A 
ATOM      2  C   UNL     1       4.005   2.966  17.597  0.00  0.00    +0.000 A 
ATOM      3  C   UNL     1       4.795   3.623  16.662  0.00  0.00    +0.000 A 
ATOM      4  C   UNL     1       4.753   5.004  16.556  0.00  0.00    +0.000 A 
ATOM      5  C   UNL     1       3.896   5.710  17.409  0.00  0.00    +0.000 A 
ATOM      6  S   UNL     1       3.641   7.401  17.449  0.00  0.00    +0.000 S 
ATOM      7  C   UNL     1       2.488   7.202  18.676  0.00  0.00    +0.000 A 
ATOM      8  N   UNL     1       1.817   8.279  19.208  0.00  0.00    +0.000 N 
ATOM      9  C   UNL     1       1.712   9.525  18.624  0.00  0.00    +0.000 C 
ATOM     10  O   UNL     1       2.153   9.869  17.537  0.00  0.00    +0.000 OA
ATOM     11  N   UNL     1       2.327   5.981  19.130  0.00  0.00    +0.000 NA
ATOM     12  C   UNL     1       3.098   5.088  18.374  0.00  0.00    +0.000 A 
ATOM     13  H   UNL     1       1.337   8.055  20.064  0.00  0.00    +0.000 HD
ENDROOT
BRANCH   9  14
ATOM     14  C   UNL     1       0.975  10.557  19.409  0.00  0.00    +0.000 A 
ATOM     15  C   UNL     1       1.258  11.905  19.137  0.00  0.00    +0.000 A 
ATOM     16  C   UNL     1       0.619  12.923  19.847  0.00  0.00    +0.000 A 
ATOM     17  C   UNL     1      -0.342  12.598  20.808  0.00  0.00    +0.000 A 
ATOM     18  C   UNL     1      -0.628  11.257  21.098  0.00  0.00    +0.000 A 
ATOM     19  C   UNL     1       0.017  10.238  20.382  0.00  0.00    +0.000 A 
BRANCH  17  20
ATOM     20  S   UNL     1      -1.097  13.925  21.744  0.00  0.00    +0.000 S 
ATOM     21  O   UNL     1      -0.251  14.165  22.893  0.00  0.00    +0.000 OA
ATOM     22  O   UNL     1      -1.395  14.987  20.807  0.00  0.00    +0.000 OA
BRANCH  20  23
ATOM     23  N   UNL     1      -2.584  13.269  22.295  0.00  0.00    +0.000 NA
ATOM     24  C   UNL     1      -2.838  13.402  23.753  0.00  0.00    +0.000 C 
ATOM     25  C   UNL     1      -4.104  12.672  24.188  0.00  0.00    +0.000 C 
ATOM     26  C   UNL     1      -5.294  13.064  23.327  0.00  0.00    +0.000 C 
ATOM     27  C   UNL     1      -4.989  12.751  21.873  0.00  0.00    +0.000 C 
ATOM     28  C   UNL     1      -3.742  13.484  21.394  0.00  0.00    +0.000 C 
ENDBRANCH  20  23
ENDBRANCH  17  20
ENDBRANCH   9  14
BRANCH   1  29
ATOM     29  O   UNL     1       2.346   3.030  19.399  0.00  0.00    +0.000 OA
BRANCH  29  31
ATOM     30  C   UNL     1       1.779   2.625  21.702  0.00  0.00    +0.000 C 
ATOM     31  C   UNL     1       2.885   2.948  20.723  0.00  0.00    +0.000 C 
ENDBRANCH  29  31
ENDBRANCH   1  29
TORSDOF 5
ENDMDL
MODEL 9
REMARK VINA RESULT:      -7.6      2.758     10.811
REMARK  Name = 
REMARK  6 active torsions:
REMARK  status: ('A' for Active; 'I' for Inactive)
REMARK    1  A    between atoms: C_1  and  C_2
REMARK    2  A    between atoms: C_2  and  O_3
REMARK    3  A    between atoms: O_3  and  C_4
REMARK    4  A    between atoms: C_12  and  C_14
REMARK    5  A    between atoms: C_17  and  S_18
REMARK    6  A    between atoms: S_18  and  N_21
REMARK                            x       y       z     vdW  Elec       q    Type
REMARK                         _______ _______ _______ _____ _____    ______ ____
ROOT
ATOM      1  C   UNL     1      -0.305  14.424  20.763  0.00  0.00    +0.000 A 
ATOM      2  C   UNL     1      -1.104  15.206  21.622  0.00  0.00    +0.000 A 
ATOM      3  C   UNL     1      -1.686  14.676  22.767  0.00  0.00    +0.000 A 
ATOM      4  C   UNL     1      -1.501  13.342  23.093  0.00  0.00    +0.000 A 
ATOM      5  C   UNL     1      -0.720  12.552  22.241  0.00  0.00    +0.000 A 
ATOM      6  S   UNL     1      -0.376  10.884  22.406  0.00  0.00    +0.000 S 
ATOM      7  C   UNL     1       0.505  10.919  20.958  0.00  0.00    +0.000 A 
ATOM      8  N   UNL     1       1.099   9.785  20.455  0.00  0.00    +0.000 N 
ATOM      9  C   UNL     1       0.785   8.489  20.816  0.00  0.00    +0.000 C 
ATOM     10  O   UNL     1      -0.083   8.132  21.598  0.00  0.00    +0.000 OA
ATOM     11  N   UNL     1       0.643  12.094  20.390  0.00  0.00    +0.000 NA
ATOM     12  C   UNL     1      -0.104  13.051  21.090  0.00  0.00    +0.000 A 
ATOM     13  H   UNL     1       1.765   9.983  19.727  0.00  0.00    +0.000 HD
ENDROOT
BRANCH   9  14
ATOM     14  C   UNL     1       1.596   7.416  20.173  0.00  0.00    +0.000 A 
ATOM     15  C   UNL     1       1.605   6.153  20.786  0.00  0.00    +0.000 A 
ATOM     16  C   UNL     1       2.357   5.107  20.250  0.00  0.00    +0.000 A 
ATOM     17  C   UNL     1       3.075   5.306  19.068  0.00  0.00    +0.000 A 
ATOM     18  C   UNL     1       3.086   6.564  18.450  0.00  0.00    +0.000 A 
ATOM     19  C   UNL     1       2.328   7.612  18.993  0.00  0.00    +0.000 A 
BRANCH  17  20
ATOM     20  S   UNL     1       4.079   3.963  18.440  0.00  0.00    +0.000 S 
ATOM     21  O   UNL     1       4.238   3.014  19.521  0.00  0.00    +0.000 OA
ATOM     22  O   UNL     1       3.501   3.558  17.177  0.00  0.00    +0.000 OA
BRANCH  20  23
ATOM     23  N   UNL     1       5.605   4.680  18.121  0.00  0.00    +0.000 NA
ATOM     24  C   UNL     1       5.737   5.334  16.793  0.00  0.00    +0.000 C 
ATOM     25  C   UNL     1       7.157   5.820  16.527  0.00  0.00    +0.000 C 
ATOM     26  C   UNL     1       7.677   6.670  17.674  0.00  0.00    +0.000 C 
ATOM     27  C   UNL     1       7.638   5.860  18.958  0.00  0.00    +0.000 C 
ATOM     28  C   UNL     1       6.227   5.378  19.272  0.00  0.00    +0.000 C 
ENDBRANCH  20  23
ENDBRANCH  17  20
ENDBRANCH   9  14
BRANCH   1  29
ATOM     29  O   UNL     1       0.274  14.931  19.615  0.00  0.00    +0.000 OA
BRANCH  29  31
ATOM     30  C   UNL     1       0.507  17.071  18.542  0.00  0.00    +0.000 C 
ATOM     31  C   UNL     1      -0.451  15.985  18.974  0.00  0.00    +0.000 C 
ENDBRANCH  29  31
ENDBRANCH   1  29
TORSDOF 5
ENDMDL
