MODEL 1
REMARK VINA RESULT:      -6.6      0.000      0.000
REMARK  Name = 
REMARK  6 active torsions:
REMARK  status: ('A' for Active; 'I' for Inactive)
REMARK    1  A    between atoms: C_1  and  O_2
REMARK    2  A    between atoms: O_2  and  C_3
REMARK    3  A    between atoms: C_7  and  O_8
REMARK    4  A    between atoms: O_8  and  C_9
REMARK    5  A    between atoms: C_10  and  C_11
REMARK    6  A    between atoms: N_15  and  N_16
REMARK                            x       y       z     vdW  Elec       q    Type
REMARK                         _______ _______ _______ _____ _____    ______ ____
ROOT
ATOM      1  C   UNL     1       2.360   4.831  19.339  0.00  0.00    +0.000 A 
ATOM      2  C   UNL     1       1.406   4.534  20.335  0.00  0.00    +0.000 A 
ATOM      3  C   UNL     1       1.592   3.473  21.207  0.00  0.00    +0.000 A 
ATOM      4  C   UNL     1       2.731   2.690  21.119  0.00  0.00    +0.000 A 
ATOM      5  C   UNL     1       3.711   2.945  20.139  0.00  0.00    +0.000 A 
ATOM      6  C   UNL     1       3.530   4.024  19.224  0.00  0.00    +0.000 A 
ENDROOT
BRANCH   6   7
ATOM      7  C   UNL     1       4.550   4.270  18.145  0.00  0.00    +0.000 A 
ATOM      8  N   UNL     1       4.450   3.757  16.892  0.00  0.00    +0.000 NA
ATOM      9  N   UNL     1       5.413   4.148  16.057  0.00  0.00    +0.000 NA
ATOM     10  C   UNL     1       6.301   4.986  16.631  0.00  0.00    +0.000 A 
ATOM     11  N   UNL     1       7.393   5.585  15.946  0.00  0.00    +0.000 N 
ATOM     12  S   UNL     1       5.918   5.267  18.240  0.00  0.00    +0.000 S 
ATOM     13  H   UNL     1       8.017   6.219  16.468  0.00  0.00    +0.000 HD
BRANCH  11  14
ATOM     14  N   UNL     1       7.626   5.390  14.585  0.00  0.00    +0.000 NA
ATOM     15  H   UNL     1       7.868   6.292  14.116  0.00  0.00    +0.000 HD
ATOM     16  H   UNL     1       6.747   5.021  14.159  0.00  0.00    +0.000 HD
ENDBRANCH  11  14
ENDBRANCH   6   7
BRANCH   1  18
ATOM     17  C   UNL     1       2.490   7.202  18.758  0.00  0.00    +0.000 C 
ATOM     18  O   UNL     1       2.168   5.884  18.499  0.00  0.00    +0.000 OA
ENDBRANCH   1  18
BRANCH   5  19
ATOM     19  O   UNL     1       4.826   2.167  20.061  0.00  0.00    +0.000 OA
ATOM     20  C   UNL     1       5.223   1.219  20.983  0.00  0.00    +0.000 C 
ENDBRANCH   5  19
TORSDOF 4
ENDMDL
MODEL 2
REMARK VINA RESULT:      -6.6      0.077      3.136
REMARK  Name = 
REMARK  6 active torsions:
REMARK  status: ('A' for Active; 'I' for Inactive)
REMARK    1  A    between atoms: C_1  and  O_2
REMARK    2  A    between atoms: O_2  and  C_3
REMARK    3  A    between atoms: C_7  and  O_8
REMARK    4  A    between atoms: O_8  and  C_9
REMARK    5  A    between atoms: C_10  and  C_11
REMARK    6  A    between atoms: N_15  and  N_16
REMARK                            x       y       z     vdW  Elec       q    Type
REMARK                         _______ _______ _______ _____ _____    ______ ____
ROOT
ATOM      1  C   UNL     1       3.718   2.905  20.130  0.00  0.00    +0.000 A 
ATOM      2  C   UNL     1       2.758   2.724  21.148  0.00  0.00    +0.000 A 
ATOM      3  C   UNL     1       1.661   3.563  21.251  0.00  0.00    +0.000 A 
ATOM      4  C   UNL     1       1.484   4.594  20.342  0.00  0.00    +0.000 A 
ATOM      5  C   UNL     1       2.417   4.817  19.310  0.00  0.00    +0.000 A 
ATOM      6  C   UNL     1       3.560   3.972  19.197  0.00  0.00    +0.000 A 
ENDROOT
BRANCH   6   7
ATOM      7  C   UNL     1       4.584   4.236  18.126  0.00  0.00    +0.000 A 
ATOM      8  N   UNL     1       4.522   3.692  16.884  0.00  0.00    +0.000 NA
ATOM      9  N   UNL     1       5.480   4.103  16.053  0.00  0.00    +0.000 NA
ATOM     10  C   UNL     1       6.326   4.988  16.620  0.00  0.00    +0.000 A 
ATOM     11  N   UNL     1       7.403   5.616  15.936  0.00  0.00    +0.000 N 
ATOM     12  S   UNL     1       5.910   5.289  18.217  0.00  0.00    +0.000 S 
ATOM     13  H   UNL     1       7.994   6.285  16.452  0.00  0.00    +0.000 HD
BRANCH  11  14
ATOM     14  N   UNL     1       7.662   5.400  14.582  0.00  0.00    +0.000 NA
ATOM     15  H   UNL     1       8.400   6.054  14.237  0.00  0.00    +0.000 HD
ATOM     16  H   UNL     1       6.781   5.587  14.054  0.00  0.00    +0.000 HD
ENDBRANCH  11  14
ENDBRANCH   6   7
BRANCH   1  18
ATOM     17  C   UNL     1       5.229   1.201  21.018  0.00  0.00    +0.000 C 
ATOM     18  O   UNL     1       4.783   2.064  20.036  0.00  0.00    +0.000 OA
ENDBRANCH   1  18
BRANCH   5  19
ATOM     19  O   UNL     1       2.233   5.834  18.423  0.00  0.00    +0.000 OA
ATOM     20  C   UNL     1       2.495   7.170  18.650  0.00  0.00    +0.000 C 
ENDBRANCH   5  19
TORSDOF 4
ENDMDL
MODEL 3
REMARK VINA RESULT:      -6.5      1.151      1.217
REMARK  Name = 
REMARK  6 active torsions:
REMARK  status: ('A' for Active; 'I' for Inactive)
REMARK    1  A    between atoms: C_1  and  O_2
REMARK    2  A    between atoms: O_2  and  C_3
REMARK    3  A    between atoms: C_7  and  O_8
REMARK    4  A    between atoms: O_8  and  C_9
REMARK    5  A    between atoms: C_10  and  C_11
REMARK    6  A    between atoms: N_15  and  N_16
REMARK                            x       y       z     vdW  Elec       q    Type
REMARK                         _______ _______ _______ _____ _____    ______ ____
ROOT
ATOM      1  C   UNL     1       2.903   5.990  19.233  0.00  0.00    +0.000 A 
ATOM      2  C   UNL     1       1.946   5.894  20.266  0.00  0.00    +0.000 A 
ATOM      3  C   UNL     1       1.719   4.693  20.918  0.00  0.00    +0.000 A 
ATOM      4  C   UNL     1       2.440   3.563  20.569  0.00  0.00    +0.000 A 
ATOM      5  C   UNL     1       3.403   3.608  19.541  0.00  0.00    +0.000 A 
ATOM      6  C   UNL     1       3.640   4.832  18.849  0.00  0.00    +0.000 A 
ENDROOT
BRANCH   6   7
ATOM      7  C   UNL     1       4.633   4.873  17.719  0.00  0.00    +0.000 A 
ATOM      8  N   UNL     1       4.353   4.441  16.463  0.00  0.00    +0.000 NA
ATOM      9  N   UNL     1       5.337   4.628  15.583  0.00  0.00    +0.000 NA
ATOM     10  C   UNL     1       6.424   5.217  16.123  0.00  0.00    +0.000 A 
ATOM     11  N   UNL     1       7.589   5.570  15.389  0.00  0.00    +0.000 N 
ATOM     12  S   UNL     1       6.200   5.523  17.758  0.00  0.00    +0.000 S 
ATOM     13  H   UNL     1       8.369   6.024  15.889  0.00  0.00    +0.000 HD
BRANCH  11  14
ATOM     14  N   UNL     1       7.700   5.374  14.013  0.00  0.00    +0.000 NA
ATOM     15  H   UNL     1       8.427   4.655  13.798  0.00  0.00    +0.000 HD
ATOM     16  H   UNL     1       7.992   6.279  13.583  0.00  0.00    +0.000 HD
ENDBRANCH  11  14
ENDBRANCH   6   7
BRANCH   1  18
ATOM     17  C   UNL     1       2.155   8.077  18.202  0.00  0.00    +0.000 C 
ATOM     18  O   UNL     1       3.123   7.181  18.612  0.00  0.00    +0.000 OA
ENDBRANCH   1  18
BRANCH   5  19
ATOM     19  O   UNL     1       4.105   2.490  19.206  0.00  0.00    +0.000 OA
ATOM     20  C   UNL     1       3.621   1.406  18.501  0.00  0.00    +0.000 C 
ENDBRANCH   5  19
TORSDOF 4
ENDMDL
MODEL 4
REMARK VINA RESULT:      -6.5      1.209      3.269
REMARK  Name = 
REMARK  6 active torsions:
REMARK  status: ('A' for Active; 'I' for Inactive)
REMARK    1  A    between atoms: C_1  and  O_2
REMARK    2  A    between atoms: O_2  and  C_3
REMARK    3  A    between atoms: C_7  and  O_8
REMARK    4  A    between atoms: O_8  and  C_9
REMARK    5  A    between atoms: C_10  and  C_11
REMARK    6  A    between atoms: N_15  and  N_16
REMARK                            x       y       z     vdW  Elec       q    Type
REMARK                         _______ _______ _______ _____ _____    ______ ____
ROOT
ATOM      1  C   UNL     1       3.457   3.680  19.500  0.00  0.00    +0.000 A 
ATOM      2  C   UNL     1       2.551   3.703  20.582  0.00  0.00    +0.000 A 
ATOM      3  C   UNL     1       1.868   4.862  20.915  0.00  0.00    +0.000 A 
ATOM      4  C   UNL     1       2.057   6.019  20.178  0.00  0.00    +0.000 A 
ATOM      5  C   UNL     1       2.954   6.047  19.091  0.00  0.00    +0.000 A 
ATOM      6  C   UNL     1       3.677   4.868  18.743  0.00  0.00    +0.000 A 
ENDROOT
BRANCH   6   7
ATOM      7  C   UNL     1       4.671   4.906  17.613  0.00  0.00    +0.000 A 
ATOM      8  N   UNL     1       4.409   4.424  16.372  0.00  0.00    +0.000 NA
ATOM      9  N   UNL     1       5.388   4.614  15.487  0.00  0.00    +0.000 NA
ATOM     10  C   UNL     1       6.453   5.256  16.010  0.00  0.00    +0.000 A 
ATOM     11  N   UNL     1       7.608   5.624  15.267  0.00  0.00    +0.000 N 
ATOM     12  S   UNL     1       6.215   5.607  17.633  0.00  0.00    +0.000 S 
ATOM     13  H   UNL     1       8.372   6.119  15.752  0.00  0.00    +0.000 HD
BRANCH  11  14
ATOM     14  N   UNL     1       7.729   5.387  13.898  0.00  0.00    +0.000 NA
ATOM     15  H   UNL     1       8.718   5.512  13.585  0.00  0.00    +0.000 HD
ATOM     16  H   UNL     1       7.133   6.083  13.398  0.00  0.00    +0.000 HD
ENDBRANCH  11  14
ENDBRANCH   6   7
BRANCH   1  18
ATOM     17  C   UNL     1       3.575   1.449  18.509  0.00  0.00    +0.000 C 
ATOM     18  O   UNL     1       4.111   2.531  19.179  0.00  0.00    +0.000 OA
ENDBRANCH   1  18
BRANCH   5  19
ATOM     19  O   UNL     1       3.133   7.192  18.375  0.00  0.00    +0.000 OA
ATOM     20  C   UNL     1       2.194   8.185  18.180  0.00  0.00    +0.000 C 
ENDBRANCH   5  19
TORSDOF 4
ENDMDL
MODEL 5
REMARK VINA RESULT:      -6.1      1.698      3.721
REMARK  Name = 
REMARK  6 active torsions:
REMARK  status: ('A' for Active; 'I' for Inactive)
REMARK    1  A    between atoms: C_1  and  O_2
REMARK    2  A    between atoms: O_2  and  C_3
REMARK    3  A    between atoms: C_7  and  O_8
REMARK    4  A    between atoms: O_8  and  C_9
REMARK    5  A    between atoms: C_10  and  C_11
REMARK    6  A    between atoms: N_15  and  N_16
REMARK                            x       y       z     vdW  Elec       q    Type
REMARK                         _______ _______ _______ _____ _____    ______ ____
ROOT
ATOM      1  C   UNL     1       3.688   4.436  19.355  0.00  0.00    +0.000 A 
ATOM      2  C   UNL     1       2.768   4.434  20.425  0.00  0.00    +0.000 A 
ATOM      3  C   UNL     1       1.942   5.522  20.658  0.00  0.00    +0.000 A 
ATOM      4  C   UNL     1       2.001   6.632  19.830  0.00  0.00    +0.000 A 
ATOM      5  C   UNL     1       2.906   6.682  18.751  0.00  0.00    +0.000 A 
ATOM      6  C   UNL     1       3.774   5.578  18.505  0.00  0.00    +0.000 A 
ENDROOT
BRANCH   6   7
ATOM      7  C   UNL     1       4.775   5.647  17.384  0.00  0.00    +0.000 A 
ATOM      8  N   UNL     1       5.831   6.500  17.377  0.00  0.00    +0.000 NA
ATOM      9  N   UNL     1       6.647   6.361  16.332  0.00  0.00    +0.000 NA
ATOM     10  C   UNL     1       6.256   5.388  15.483  0.00  0.00    +0.000 A 
ATOM     11  N   UNL     1       6.976   5.005  14.319  0.00  0.00    +0.000 N 
ATOM     12  S   UNL     1       4.839   4.657  16.008  0.00  0.00    +0.000 S 
ATOM     13  H   UNL     1       6.600   4.244  13.733  0.00  0.00    +0.000 HD
BRANCH  11  14
ATOM     14  N   UNL     1       8.194   5.583  13.964  0.00  0.00    +0.000 NA
ATOM     15  H   UNL     1       8.964   4.878  13.999  0.00  0.00    +0.000 HD
ATOM     16  H   UNL     1       8.405   6.337  14.655  0.00  0.00    +0.000 HD
ENDBRANCH  11  14
ENDBRANCH   6   7
BRANCH   1  18
ATOM     17  C   UNL     1       4.443   2.159  19.824  0.00  0.00    +0.000 C 
ATOM     18  O   UNL     1       4.483   3.354  19.134  0.00  0.00    +0.000 OA
ENDBRANCH   1  18
BRANCH   5  19
ATOM     19  O   UNL     1       2.956   7.779  17.945  0.00  0.00    +0.000 OA
ATOM     20  C   UNL     1       2.088   8.852  17.976  0.00  0.00    +0.000 C 
ENDBRANCH   5  19
TORSDOF 4
ENDMDL
MODEL 6
REMARK VINA RESULT:      -6.0      1.070      1.094
REMARK  Name = 
REMARK  6 active torsions:
REMARK  status: ('A' for Active; 'I' for Inactive)
REMARK    1  A    between atoms: C_1  and  O_2
REMARK    2  A    between atoms: O_2  and  C_3
REMARK    3  A    between atoms: C_7  and  O_8
REMARK    4  A    between atoms: O_8  and  C_9
REMARK    5  A    between atoms: C_10  and  C_11
REMARK    6  A    between atoms: N_15  and  N_16
REMARK                            x       y       z     vdW  Elec       q    Type
REMARK                         _______ _______ _______ _____ _____    ______ ____
ROOT
ATOM      1  C   UNL     1       2.205   4.878  19.609  0.00  0.00    +0.000 A 
ATOM      2  C   UNL     1       1.295   4.475  20.609  0.00  0.00    +0.000 A 
ATOM      3  C   UNL     1       1.549   3.366  21.399  0.00  0.00    +0.000 A 
ATOM      4  C   UNL     1       2.715   2.638  21.225  0.00  0.00    +0.000 A 
ATOM      5  C   UNL     1       3.653   2.999  20.238  0.00  0.00    +0.000 A 
ATOM      6  C   UNL     1       3.401   4.129  19.405  0.00  0.00    +0.000 A 
ENDROOT
BRANCH   6   7
ATOM      7  C   UNL     1       4.377   4.489  18.317  0.00  0.00    +0.000 A 
ATOM      8  N   UNL     1       5.472   5.264  18.524  0.00  0.00    +0.000 NA
ATOM      9  N   UNL     1       6.254   5.410  17.454  0.00  0.00    +0.000 NA
ATOM     10  C   UNL     1       5.795   4.751  16.370  0.00  0.00    +0.000 A 
ATOM     11  N   UNL     1       6.467   4.705  15.118  0.00  0.00    +0.000 N 
ATOM     12  S   UNL     1       4.358   3.953  16.708  0.00  0.00    +0.000 S 
ATOM     13  H   UNL     1       6.041   4.169  14.347  0.00  0.00    +0.000 HD
BRANCH  11  14
ATOM     14  N   UNL     1       7.703   5.314  14.905  0.00  0.00    +0.000 NA
ATOM     15  H   UNL     1       7.960   5.289  13.893  0.00  0.00    +0.000 HD
ATOM     16  H   UNL     1       8.422   4.779  15.442  0.00  0.00    +0.000 HD
ENDBRANCH  11  14
ENDBRANCH   6   7
BRANCH   1  18
ATOM     17  C   UNL     1       2.374   7.264  19.107  0.00  0.00    +0.000 C 
ATOM     18  O   UNL     1       1.946   5.977  18.849  0.00  0.00    +0.000 OA
ENDBRANCH   1  18
BRANCH   5  19
ATOM     19  O   UNL     1       4.795   2.275  20.075  0.00  0.00    +0.000 OA
ATOM     20  C   UNL     1       5.206   1.217  20.860  0.00  0.00    +0.000 C 
ENDBRANCH   5  19
TORSDOF 4
ENDMDL
MODEL 7
REMARK VINA RESULT:      -6.0      1.696      1.990
REMARK  Name = 
REMARK  6 active torsions:
REMARK  status: ('A' for Active; 'I' for Inactive)
REMARK    1  A    between atoms: C_1  and  O_2
REMARK    2  A    between atoms: O_2  and  C_3
REMARK    3  A    between atoms: C_7  and  O_8
REMARK    4  A    between atoms: O_8  and  C_9
REMARK    5  A    between atoms: C_10  and  C_11
REMARK    6  A    between atoms: N_15  and  N_16
REMARK                            x       y       z     vdW  Elec       q    Type
REMARK                         _______ _______ _______ _____ _____    ______ ____
ROOT
ATOM      1  C   UNL     1       2.891   6.760  18.864  0.00  0.00    +0.000 A 
ATOM      2  C   UNL     1       1.943   6.656  19.904  0.00  0.00    +0.000 A 
ATOM      3  C   UNL     1       1.858   5.511  20.679  0.00  0.00    +0.000 A 
ATOM      4  C   UNL     1       2.716   4.448  20.449  0.00  0.00    +0.000 A 
ATOM      5  C   UNL     1       3.677   4.503  19.420  0.00  0.00    +0.000 A 
ATOM      6  C   UNL     1       3.769   5.668  18.602  0.00  0.00    +0.000 A 
ENDROOT
BRANCH   6   7
ATOM      7  C   UNL     1       4.761   5.713  17.471  0.00  0.00    +0.000 A 
ATOM      8  N   UNL     1       5.831   6.547  17.449  0.00  0.00    +0.000 NA
ATOM      9  N   UNL     1       6.635   6.387  16.398  0.00  0.00    +0.000 NA
ATOM     10  C   UNL     1       6.219   5.416  15.559  0.00  0.00    +0.000 A 
ATOM     11  N   UNL     1       6.922   5.014  14.390  0.00  0.00    +0.000 N 
ATOM     12  S   UNL     1       4.795   4.713  16.102  0.00  0.00    +0.000 S 
ATOM     13  H   UNL     1       6.528   4.256  13.813  0.00  0.00    +0.000 HD
BRANCH  11  14
ATOM     14  N   UNL     1       8.147   5.569  14.021  0.00  0.00    +0.000 NA
ATOM     15  H   UNL     1       8.032   6.217  13.210  0.00  0.00    +0.000 HD
ATOM     16  H   UNL     1       8.779   4.788  13.734  0.00  0.00    +0.000 HD
ENDBRANCH  11  14
ENDBRANCH   6   7
BRANCH   1  18
ATOM     17  C   UNL     1       2.008   8.885  18.040  0.00  0.00    +0.000 C 
ATOM     18  O   UNL     1       2.969   7.897  18.120  0.00  0.00    +0.000 OA
ENDBRANCH   1  18
BRANCH   5  19
ATOM     19  O   UNL     1       4.514   3.451  19.203  0.00  0.00    +0.000 OA
ATOM     20  C   UNL     1       4.490   2.241  19.865  0.00  0.00    +0.000 C 
ENDBRANCH   5  19
TORSDOF 4
ENDMDL
MODEL 8
REMARK VINA RESULT:      -6.0      1.059      3.310
REMARK  Name = 
REMARK  6 active torsions:
REMARK  status: ('A' for Active; 'I' for Inactive)
REMARK    1  A    between atoms: C_1  and  O_2
REMARK    2  A    between atoms: O_2  and  C_3
REMARK    3  A    between atoms: C_7  and  O_8
REMARK    4  A    between atoms: O_8  and  C_9
REMARK    5  A    between atoms: C_10  and  C_11
REMARK    6  A    between atoms: N_15  and  N_16
REMARK                            x       y       z     vdW  Elec       q    Type
REMARK                         _______ _______ _______ _____ _____    ______ ____
ROOT
ATOM      1  C   UNL     1       3.663   2.963  20.216  0.00  0.00    +0.000 A 
ATOM      2  C   UNL     1       2.753   2.670  21.253  0.00  0.00    +0.000 A 
ATOM      3  C   UNL     1       1.637   3.461  21.467  0.00  0.00    +0.000 A 
ATOM      4  C   UNL     1       1.390   4.554  20.651  0.00  0.00    +0.000 A 
ATOM      5  C   UNL     1       2.272   4.889  19.604  0.00  0.00    +0.000 A 
ATOM      6  C   UNL     1       3.434   4.094  19.379  0.00  0.00    +0.000 A 
ENDROOT
BRANCH   6   7
ATOM      7  C   UNL     1       4.403   4.476  18.293  0.00  0.00    +0.000 A 
ATOM      8  N   UNL     1       5.506   5.237  18.510  0.00  0.00    +0.000 NA
ATOM      9  N   UNL     1       6.281   5.405  17.439  0.00  0.00    +0.000 NA
ATOM     10  C   UNL     1       5.809   4.777  16.342  0.00  0.00    +0.000 A 
ATOM     11  N   UNL     1       6.471   4.758  15.084  0.00  0.00    +0.000 N 
ATOM     12  S   UNL     1       4.369   3.980  16.671  0.00  0.00    +0.000 S 
ATOM     13  H   UNL     1       6.034   4.245  14.304  0.00  0.00    +0.000 HD
BRANCH  11  14
ATOM     14  N   UNL     1       7.709   5.364  14.877  0.00  0.00    +0.000 NA
ATOM     15  H   UNL     1       7.721   5.886  13.972  0.00  0.00    +0.000 HD
ATOM     16  H   UNL     1       8.432   4.611  14.834  0.00  0.00    +0.000 HD
ENDBRANCH  11  14
ENDBRANCH   6   7
BRANCH   1  18
ATOM     17  C   UNL     1       5.246   1.227  20.893  0.00  0.00    +0.000 C 
ATOM     18  O   UNL     1       4.749   2.168  20.012  0.00  0.00    +0.000 OA
ENDBRANCH   1  18
BRANCH   5  19
ATOM     19  O   UNL     1       2.019   5.966  18.810  0.00  0.00    +0.000 OA
ATOM     20  C   UNL     1       2.371   7.274  19.076  0.00  0.00    +0.000 C 
ENDBRANCH   5  19
TORSDOF 4
ENDMDL
MODEL 9
REMARK VINA RESULT:      -5.9      1.443      1.470
REMARK  Name = 
REMARK  6 active torsions:
REMARK  status: ('A' for Active; 'I' for Inactive)
REMARK    1  A    between atoms: C_1  and  O_2
REMARK    2  A    between atoms: O_2  and  C_3
REMARK    3  A    between atoms: C_7  and  O_8
REMARK    4  A    between atoms: O_8  and  C_9
REMARK    5  A    between atoms: C_10  and  C_11
REMARK    6  A    between atoms: N_15  and  N_16
REMARK                            x       y       z     vdW  Elec       q    Type
REMARK                         _______ _______ _______ _____ _____    ______ ____
ROOT
ATOM      1  C   UNL     1       2.746   5.663  19.749  0.00  0.00    +0.000 A 
ATOM      2  C   UNL     1       1.816   5.329  20.756  0.00  0.00    +0.000 A 
ATOM      3  C   UNL     1       1.704   4.029  21.220  0.00  0.00    +0.000 A 
ATOM      4  C   UNL     1       2.518   3.033  20.707  0.00  0.00    +0.000 A 
ATOM      5  C   UNL     1       3.460   3.316  19.698  0.00  0.00    +0.000 A 
ATOM      6  C   UNL     1       3.579   4.646  19.197  0.00  0.00    +0.000 A 
ENDROOT
BRANCH   6   7
ATOM      7  C   UNL     1       4.549   4.944  18.086  0.00  0.00    +0.000 A 
ATOM      8  N   UNL     1       5.736   5.574  18.280  0.00  0.00    +0.000 NA
ATOM      9  N   UNL     1       6.490   5.681  17.186  0.00  0.00    +0.000 NA
ATOM     10  C   UNL     1       5.916   5.134  16.094  0.00  0.00    +0.000 A 
ATOM     11  N   UNL     1       6.531   5.073  14.814  0.00  0.00    +0.000 N 
ATOM     12  S   UNL     1       4.408   4.494  16.457  0.00  0.00    +0.000 S 
ATOM     13  H   UNL     1       6.016   4.629  14.039  0.00  0.00    +0.000 HD
BRANCH  11  14
ATOM     14  N   UNL     1       7.822   5.543  14.576  0.00  0.00    +0.000 NA
ATOM     15  H   UNL     1       8.061   6.320  15.232  0.00  0.00    +0.000 HD
ATOM     16  H   UNL     1       7.854   5.913  13.600  0.00  0.00    +0.000 HD
ENDBRANCH  11  14
ENDBRANCH   6   7
BRANCH   1  18
ATOM     17  C   UNL     1       2.336   7.453  18.135  0.00  0.00    +0.000 C 
ATOM     18  O   UNL     1       2.851   6.948  19.312  0.00  0.00    +0.000 OA
ENDBRANCH   1  18
BRANCH   5  19
ATOM     19  O   UNL     1       4.254   2.328  19.200  0.00  0.00    +0.000 OA
ATOM     20  C   UNL     1       3.840   1.267  18.419  0.00  0.00    +0.000 C 
ENDBRANCH   5  19
TORSDOF 4
ENDMDL
