MODEL 1
REMARK VINA RESULT:      -7.0      0.000      0.000
REMARK  Name = 
REMARK  5 active torsions:
REMARK  status: ('A' for Active; 'I' for Inactive)
REMARK    1  A    between atoms: C_1  and  C_2
REMARK    2  A    between atoms: C_6  and  C_7
REMARK    3  A    between atoms: C_7  and  N_8
REMARK    4  A    between atoms: C_9  and  C_11
REMARK    5  A    between atoms: C_11  and  N_12
REMARK                            x       y       z     vdW  Elec       q    Type
REMARK                         _______ _______ _______ _____ _____    ______ ____
ROOT
ATOM      1  C   UNL     1       4.645   3.173  19.459  0.00  0.00    +0.000 C 
ENDROOT
BRANCH   1   2
ATOM      2  N   UNL     1       5.082   3.921  18.255  0.00  0.00    +0.000 N 
ATOM      3  N   UNL     1       4.209   3.850  17.195  0.00  0.00    +0.000 NA
ATOM      4  C   UNL     1       4.364   4.646  16.184  0.00  0.00    +0.000 A 
ATOM      5  C   UNL     1       5.443   5.667  16.108  0.00  0.00    +0.000 A 
ATOM      6  O   UNL     1       5.547   6.348  15.097  0.00  0.00    +0.000 OA
ATOM      7  C   UNL     1       6.299   5.802  17.282  0.00  0.00    +0.000 A 
ATOM      8  C   UNL     1       7.282   6.805  17.314  0.00  0.00    +0.000 A 
ATOM      9  C   UNL     1       8.074   6.946  18.443  0.00  0.00    +0.000 A 
ATOM     10  C   UNL     1       7.889   6.083  19.517  0.00  0.00    +0.000 A 
ATOM     11  C   UNL     1       6.906   5.083  19.465  0.00  0.00    +0.000 A 
ATOM     12  C   UNL     1       6.073   4.919  18.348  0.00  0.00    +0.000 A 
ENDBRANCH   1   2
BRANCH   1  14
ATOM     13  N   UNL     1       3.321   5.191  19.923  0.00  0.00    +0.000 N 
ATOM     14  C   UNL     1       3.460   3.837  20.169  0.00  0.00    +0.000 C 
ATOM     15  O   UNL     1       2.732   3.222  20.940  0.00  0.00    +0.000 OA
ATOM     16  H   UNL     1       3.792   5.561  19.104  0.00  0.00    +0.000 HD
BRANCH  13  17
ATOM     17  C   UNL     1       2.203   5.913  20.489  0.00  0.00    +0.000 C 
BRANCH  17  23
ATOM     18  C   UNL     1       0.747   8.672  21.518  0.00  0.00    +0.000 C 
ATOM     19  C   UNL     1       1.387   8.402  20.192  0.00  0.00    +0.000 A 
ATOM     20  C   UNL     1       1.413   9.390  19.146  0.00  0.00    +0.000 A 
ATOM     21  C   UNL     1       2.034   8.946  18.006  0.00  0.00    +0.000 A 
ATOM     22  S   UNL     1       2.598   7.350  18.168  0.00  0.00    +0.000 S 
ATOM     23  C   UNL     1       2.012   7.226  19.784  0.00  0.00    +0.000 A 
ENDBRANCH  17  23
ENDBRANCH  13  17
ENDBRANCH   1  14
TORSDOF 4
ENDMDL
MODEL 2
REMARK VINA RESULT:      -6.9      1.981      5.915
REMARK  Name = 
REMARK  5 active torsions:
REMARK  status: ('A' for Active; 'I' for Inactive)
REMARK    1  A    between atoms: C_1  and  C_2
REMARK    2  A    between atoms: C_6  and  C_7
REMARK    3  A    between atoms: C_7  and  N_8
REMARK    4  A    between atoms: C_9  and  C_11
REMARK    5  A    between atoms: C_11  and  N_12
REMARK                            x       y       z     vdW  Elec       q    Type
REMARK                         _______ _______ _______ _____ _____    ______ ____
ROOT
ATOM      1  C   UNL     1       1.894   5.933  20.543  0.00  0.00    +0.000 C 
ENDROOT
BRANCH   1   2
ATOM      2  N   UNL     1       2.027   7.250  19.873  0.00  0.00    +0.000 N 
ATOM      3  N   UNL     1       2.525   7.186  18.593  0.00  0.00    +0.000 NA
ATOM      4  C   UNL     1       2.463   8.232  17.830  0.00  0.00    +0.000 A 
ATOM      5  C   UNL     1       1.858   9.521  18.260  0.00  0.00    +0.000 A 
ATOM      6  O   UNL     1       1.882  10.474  17.494  0.00  0.00    +0.000 OA
ATOM      7  C   UNL     1       1.243   9.544  19.583  0.00  0.00    +0.000 A 
ATOM      8  C   UNL     1       0.576  10.701  20.019  0.00  0.00    +0.000 A 
ATOM      9  C   UNL     1      -0.030  10.708  21.265  0.00  0.00    +0.000 A 
ATOM     10  C   UNL     1       0.045   9.574  22.067  0.00  0.00    +0.000 A 
ATOM     11  C   UNL     1       0.721   8.429  21.618  0.00  0.00    +0.000 A 
ATOM     12  C   UNL     1       1.332   8.376  20.355  0.00  0.00    +0.000 A 
ENDBRANCH   1   2
BRANCH   1  14
ATOM     13  N   UNL     1       4.107   5.113  19.858  0.00  0.00    +0.000 N 
ATOM     14  C   UNL     1       2.750   4.846  19.886  0.00  0.00    +0.000 C 
ATOM     15  O   UNL     1       2.257   3.847  19.373  0.00  0.00    +0.000 OA
ATOM     16  H   UNL     1       4.451   5.815  20.505  0.00  0.00    +0.000 HD
BRANCH  13  17
ATOM     17  C   UNL     1       5.022   4.132  19.318  0.00  0.00    +0.000 C 
BRANCH  17  23
ATOM     18  C   UNL     1       7.804   5.860  19.066  0.00  0.00    +0.000 C 
ATOM     19  C   UNL     1       6.885   5.419  17.969  0.00  0.00    +0.000 A 
ATOM     20  C   UNL     1       7.134   5.750  16.592  0.00  0.00    +0.000 A 
ATOM     21  C   UNL     1       6.172   5.264  15.742  0.00  0.00    +0.000 A 
ATOM     22  S   UNL     1       4.963   4.405  16.574  0.00  0.00    +0.000 S 
ATOM     23  C   UNL     1       5.717   4.673  18.101  0.00  0.00    +0.000 A 
ENDBRANCH  17  23
ENDBRANCH  13  17
ENDBRANCH   1  14
TORSDOF 4
ENDMDL
MODEL 3
REMARK VINA RESULT:      -6.8      3.855      6.520
REMARK  Name = 
REMARK  5 active torsions:
REMARK  status: ('A' for Active; 'I' for Inactive)
REMARK    1  A    between atoms: C_1  and  C_2
REMARK    2  A    between atoms: C_6  and  C_7
REMARK    3  A    between atoms: C_7  and  N_8
REMARK    4  A    between atoms: C_9  and  C_11
REMARK    5  A    between atoms: C_11  and  N_12
REMARK                            x       y       z     vdW  Elec       q    Type
REMARK                         _______ _______ _______ _____ _____    ______ ____
ROOT
ATOM      1  C   UNL     1       8.019   6.335  18.712  0.00  0.00    +0.000 C 
ENDROOT
BRANCH   1   2
ATOM      2  N   UNL     1       6.786   5.541  18.495  0.00  0.00    +0.000 N 
ATOM      3  N   UNL     1       5.851   5.661  19.497  0.00  0.00    +0.000 NA
ATOM      4  C   UNL     1       4.650   5.209  19.309  0.00  0.00    +0.000 A 
ATOM      5  C   UNL     1       4.209   4.570  18.040  0.00  0.00    +0.000 A 
ATOM      6  O   UNL     1       3.070   4.130  17.962  0.00  0.00    +0.000 OA
ATOM      7  C   UNL     1       5.179   4.542  16.951  0.00  0.00    +0.000 A 
ATOM      8  C   UNL     1       4.802   4.033  15.698  0.00  0.00    +0.000 A 
ATOM      9  C   UNL     1       5.719   4.033  14.659  0.00  0.00    +0.000 A 
ATOM     10  C   UNL     1       7.001   4.524  14.881  0.00  0.00    +0.000 A 
ATOM     11  C   UNL     1       7.362   5.023  16.142  0.00  0.00    +0.000 A 
ATOM     12  C   UNL     1       6.458   5.057  17.214  0.00  0.00    +0.000 A 
ENDBRANCH   1   2
BRANCH   1  14
ATOM     13  N   UNL     1       8.726   8.689  18.751  0.00  0.00    +0.000 N 
ATOM     14  C   UNL     1       7.922   7.749  18.130  0.00  0.00    +0.000 C 
ATOM     15  O   UNL     1       7.148   8.030  17.222  0.00  0.00    +0.000 OA
ATOM     16  H   UNL     1       9.498   8.338  19.307  0.00  0.00    +0.000 HD
BRANCH  13  17
ATOM     17  C   UNL     1       8.765  10.044  18.249  0.00  0.00    +0.000 C 
BRANCH  17  23
ATOM     18  C   UNL     1      11.500  11.741  17.593  0.00  0.00    +0.000 C 
ATOM     19  C   UNL     1      10.770  11.629  18.895  0.00  0.00    +0.000 A 
ATOM     20  C   UNL     1      11.239  12.285  20.086  0.00  0.00    +0.000 A 
ATOM     21  C   UNL     1      10.438  12.051  21.177  0.00  0.00    +0.000 A 
ATOM     22  S   UNL     1       9.117  11.051  20.793  0.00  0.00    +0.000 S 
ATOM     23  C   UNL     1       9.602  10.913  19.144  0.00  0.00    +0.000 A 
ENDBRANCH  17  23
ENDBRANCH  13  17
ENDBRANCH   1  14
TORSDOF 4
ENDMDL
MODEL 4
REMARK VINA RESULT:      -6.8      1.277      2.482
REMARK  Name = 
REMARK  5 active torsions:
REMARK  status: ('A' for Active; 'I' for Inactive)
REMARK    1  A    between atoms: C_1  and  C_2
REMARK    2  A    between atoms: C_6  and  C_7
REMARK    3  A    between atoms: C_7  and  N_8
REMARK    4  A    between atoms: C_9  and  C_11
REMARK    5  A    between atoms: C_11  and  N_12
REMARK                            x       y       z     vdW  Elec       q    Type
REMARK                         _______ _______ _______ _____ _____    ______ ____
ROOT
ATOM      1  C   UNL     1       4.805   3.690  19.231  0.00  0.00    +0.000 C 
ENDROOT
BRANCH   1   2
ATOM      2  N   UNL     1       5.520   4.740  18.465  0.00  0.00    +0.000 N 
ATOM      3  N   UNL     1       6.296   5.574  19.235  0.00  0.00    +0.000 NA
ATOM      4  C   UNL     1       7.144   6.369  18.661  0.00  0.00    +0.000 A 
ATOM      5  C   UNL     1       7.345   6.422  17.188  0.00  0.00    +0.000 A 
ATOM      6  O   UNL     1       8.133   7.235  16.725  0.00  0.00    +0.000 OA
ATOM      7  C   UNL     1       6.590   5.461  16.391  0.00  0.00    +0.000 A 
ATOM      8  C   UNL     1       6.796   5.396  15.004  0.00  0.00    +0.000 A 
ATOM      9  C   UNL     1       6.096   4.462  14.255  0.00  0.00    +0.000 A 
ATOM     10  C   UNL     1       5.193   3.617  14.890  0.00  0.00    +0.000 A 
ATOM     11  C   UNL     1       4.996   3.700  16.277  0.00  0.00    +0.000 A 
ATOM     12  C   UNL     1       5.697   4.619  17.072  0.00  0.00    +0.000 A 
ENDBRANCH   1   2
BRANCH   1  14
ATOM     13  N   UNL     1       3.364   5.512  20.034  0.00  0.00    +0.000 N 
ATOM     14  C   UNL     1       3.441   4.161  19.746  0.00  0.00    +0.000 C 
ATOM     15  O   UNL     1       2.512   3.384  19.941  0.00  0.00    +0.000 OA
ATOM     16  H   UNL     1       4.070   6.111  19.622  0.00  0.00    +0.000 HD
BRANCH  13  17
ATOM     17  C   UNL     1       2.109   6.083  20.469  0.00  0.00    +0.000 C 
BRANCH  17  23
ATOM     18  C   UNL     1       0.556   8.747  21.602  0.00  0.00    +0.000 C 
ATOM     19  C   UNL     1       1.221   8.558  20.274  0.00  0.00    +0.000 A 
ATOM     20  C   UNL     1       1.229   9.592  19.275  0.00  0.00    +0.000 A 
ATOM     21  C   UNL     1       1.878   9.221  18.125  0.00  0.00    +0.000 A 
ATOM     22  S   UNL     1       2.489   7.636  18.222  0.00  0.00    +0.000 S 
ATOM     23  C   UNL     1       1.887   7.421  19.823  0.00  0.00    +0.000 A 
ENDBRANCH  17  23
ENDBRANCH  13  17
ENDBRANCH   1  14
TORSDOF 4
ENDMDL
MODEL 5
REMARK VINA RESULT:      -6.8      3.978      6.399
REMARK  Name = 
REMARK  5 active torsions:
REMARK  status: ('A' for Active; 'I' for Inactive)
REMARK    1  A    between atoms: C_1  and  C_2
REMARK    2  A    between atoms: C_6  and  C_7
REMARK    3  A    between atoms: C_7  and  N_8
REMARK    4  A    between atoms: C_9  and  C_11
REMARK    5  A    between atoms: C_11  and  N_12
REMARK                            x       y       z     vdW  Elec       q    Type
REMARK                         _______ _______ _______ _____ _____    ______ ____
ROOT
ATOM      1  C   UNL     1       8.089   6.411  18.591  0.00  0.00    +0.000 C 
ENDROOT
BRANCH   1   2
ATOM      2  N   UNL     1       6.863   5.594  18.419  0.00  0.00    +0.000 N 
ATOM      3  N   UNL     1       5.969   5.688  19.460  0.00  0.00    +0.000 NA
ATOM      4  C   UNL     1       4.770   5.215  19.318  0.00  0.00    +0.000 A 
ATOM      5  C   UNL     1       4.289   4.577  18.063  0.00  0.00    +0.000 A 
ATOM      6  O   UNL     1       3.157   4.115  18.029  0.00  0.00    +0.000 OA
ATOM      7  C   UNL     1       5.213   4.576  16.935  0.00  0.00    +0.000 A 
ATOM      8  C   UNL     1       4.793   4.069  15.694  0.00  0.00    +0.000 A 
ATOM      9  C   UNL     1       5.667   4.095  14.618  0.00  0.00    +0.000 A 
ATOM     10  C   UNL     1       6.947   4.610  14.791  0.00  0.00    +0.000 A 
ATOM     11  C   UNL     1       7.351   5.106  16.039  0.00  0.00    +0.000 A 
ATOM     12  C   UNL     1       6.491   5.114  17.148  0.00  0.00    +0.000 A 
ENDBRANCH   1   2
BRANCH   1  14
ATOM     13  N   UNL     1       8.704   8.785  18.761  0.00  0.00    +0.000 N 
ATOM     14  C   UNL     1       7.909   7.855  18.113  0.00  0.00    +0.000 C 
ATOM     15  O   UNL     1       7.082   8.165  17.263  0.00  0.00    +0.000 OA
ATOM     16  H   UNL     1       9.515   8.430  19.256  0.00  0.00    +0.000 HD
BRANCH  13  17
ATOM     17  C   UNL     1       8.667  10.171  18.353  0.00  0.00    +0.000 C 
BRANCH  17  23
ATOM     18  C   UNL     1       8.981  11.186  21.461  0.00  0.00    +0.000 C 
ATOM     19  C   UNL     1       9.924  11.398  20.319  0.00  0.00    +0.000 A 
ATOM     20  C   UNL     1      11.146  12.142  20.471  0.00  0.00    +0.000 A 
ATOM     21  C   UNL     1      11.866  12.233  19.306  0.00  0.00    +0.000 A 
ATOM     22  S   UNL     1      11.098  11.430  18.018  0.00  0.00    +0.000 S 
ATOM     23  C   UNL     1       9.775  10.944  19.010  0.00  0.00    +0.000 A 
ENDBRANCH  17  23
ENDBRANCH  13  17
ENDBRANCH   1  14
TORSDOF 4
ENDMDL
MODEL 6
REMARK VINA RESULT:      -6.8      4.154      6.495
REMARK  Name = 
REMARK  5 active torsions:
REMARK  status: ('A' for Active; 'I' for Inactive)
REMARK    1  A    between atoms: C_1  and  C_2
REMARK    2  A    between atoms: C_6  and  C_7
REMARK    3  A    between atoms: C_7  and  N_8
REMARK    4  A    between atoms: C_9  and  C_11
REMARK    5  A    between atoms: C_11  and  N_12
REMARK                            x       y       z     vdW  Elec       q    Type
REMARK                         _______ _______ _______ _____ _____    ______ ____
ROOT
ATOM      1  C   UNL     1       7.828   6.870  18.109  0.00  0.00    +0.000 C 
ENDROOT
BRANCH   1   2
ATOM      2  N   UNL     1       7.016   6.064  17.165  0.00  0.00    +0.000 N 
ATOM      3  N   UNL     1       7.599   5.875  15.935  0.00  0.00    +0.000 NA
ATOM      4  C   UNL     1       7.100   4.999  15.119  0.00  0.00    +0.000 A 
ATOM      5  C   UNL     1       5.918   4.157  15.448  0.00  0.00    +0.000 A 
ATOM      6  O   UNL     1       5.483   3.388  14.603  0.00  0.00    +0.000 OA
ATOM      7  C   UNL     1       5.373   4.296  16.794  0.00  0.00    +0.000 A 
ATOM      8  C   UNL     1       4.313   3.470  17.202  0.00  0.00    +0.000 A 
ATOM      9  C   UNL     1       3.816   3.587  18.491  0.00  0.00    +0.000 A 
ATOM     10  C   UNL     1       4.368   4.530  19.351  0.00  0.00    +0.000 A 
ATOM     11  C   UNL     1       5.422   5.351  18.924  0.00  0.00    +0.000 A 
ATOM     12  C   UNL     1       5.964   5.252  17.634  0.00  0.00    +0.000 A 
ENDBRANCH   1   2
BRANCH   1  14
ATOM     13  N   UNL     1       8.709   9.135  18.474  0.00  0.00    +0.000 N 
ATOM     14  C   UNL     1       7.767   8.371  17.809  0.00  0.00    +0.000 C 
ATOM     15  O   UNL     1       6.909   8.858  17.081  0.00  0.00    +0.000 OA
ATOM     16  H   UNL     1       9.516   8.647  18.848  0.00  0.00    +0.000 HD
BRANCH  13  17
ATOM     17  C   UNL     1       8.789  10.557  18.224  0.00  0.00    +0.000 C 
BRANCH  17  23
ATOM     18  C   UNL     1       9.069  11.361  21.396  0.00  0.00    +0.000 C 
ATOM     19  C   UNL     1      10.083  11.523  20.308  0.00  0.00    +0.000 A 
ATOM     20  C   UNL     1      11.372  12.111  20.553  0.00  0.00    +0.000 A 
ATOM     21  C   UNL     1      12.152  12.181  19.426  0.00  0.00    +0.000 A 
ATOM     22  S   UNL     1      11.360  11.542  18.063  0.00  0.00    +0.000 S 
ATOM     23  C   UNL     1       9.945  11.160  18.970  0.00  0.00    +0.000 A 
ENDBRANCH  17  23
ENDBRANCH  13  17
ENDBRANCH   1  14
TORSDOF 4
ENDMDL
MODEL 7
REMARK VINA RESULT:      -6.7      1.979      3.034
REMARK  Name = 
REMARK  5 active torsions:
REMARK  status: ('A' for Active; 'I' for Inactive)
REMARK    1  A    between atoms: C_1  and  C_2
REMARK    2  A    between atoms: C_6  and  C_7
REMARK    3  A    between atoms: C_7  and  N_8
REMARK    4  A    between atoms: C_9  and  C_11
REMARK    5  A    between atoms: C_11  and  N_12
REMARK                            x       y       z     vdW  Elec       q    Type
REMARK                         _______ _______ _______ _____ _____    ______ ____
ROOT
ATOM      1  C   UNL     1       2.928   5.276  17.938  0.00  0.00    +0.000 C 
ENDROOT
BRANCH   1   2
ATOM      2  N   UNL     1       4.407   5.349  18.007  0.00  0.00    +0.000 N 
ATOM      3  N   UNL     1       4.914   5.383  19.284  0.00  0.00    +0.000 NA
ATOM      4  C   UNL     1       6.185   5.209  19.473  0.00  0.00    +0.000 A 
ATOM      5  C   UNL     1       7.146   4.952  18.367  0.00  0.00    +0.000 A 
ATOM      6  O   UNL     1       8.337   4.844  18.628  0.00  0.00    +0.000 OA
ATOM      7  C   UNL     1       6.581   4.817  17.029  0.00  0.00    +0.000 A 
ATOM      8  C   UNL     1       7.419   4.488  15.951  0.00  0.00    +0.000 A 
ATOM      9  C   UNL     1       6.872   4.334  14.687  0.00  0.00    +0.000 A 
ATOM     10  C   UNL     1       5.507   4.522  14.506  0.00  0.00    +0.000 A 
ATOM     11  C   UNL     1       4.685   4.857  15.594  0.00  0.00    +0.000 A 
ATOM     12  C   UNL     1       5.197   5.005  16.892  0.00  0.00    +0.000 A 
ENDBRANCH   1   2
BRANCH   1  14
ATOM     13  N   UNL     1       2.392   7.063  19.539  0.00  0.00    +0.000 N 
ATOM     14  C   UNL     1       2.253   5.719  19.240  0.00  0.00    +0.000 C 
ATOM     15  O   UNL     1       1.686   4.927  19.985  0.00  0.00    +0.000 OA
ATOM     16  H   UNL     1       2.648   7.679  18.775  0.00  0.00    +0.000 HD
BRANCH  13  17
ATOM     17  C   UNL     1       1.746   7.610  20.711  0.00  0.00    +0.000 C 
BRANCH  17  23
ATOM     18  C   UNL     1      -0.391   9.357  22.490  0.00  0.00    +0.000 C 
ATOM     19  C   UNL     1       0.076   9.614  21.091  0.00  0.00    +0.000 A 
ATOM     20  C   UNL     1      -0.416  10.722  20.318  0.00  0.00    +0.000 A 
ATOM     21  C   UNL     1       0.126  10.778  19.058  0.00  0.00    +0.000 A 
ATOM     22  S   UNL     1       1.230   9.514  18.783  0.00  0.00    +0.000 S 
ATOM     23  C   UNL     1       0.997   8.864  20.362  0.00  0.00    +0.000 A 
ENDBRANCH  17  23
ENDBRANCH  13  17
ENDBRANCH   1  14
TORSDOF 4
ENDMDL
MODEL 8
REMARK VINA RESULT:      -6.6      3.438      7.515
REMARK  Name = 
REMARK  5 active torsions:
REMARK  status: ('A' for Active; 'I' for Inactive)
REMARK    1  A    between atoms: C_1  and  C_2
REMARK    2  A    between atoms: C_6  and  C_7
REMARK    3  A    between atoms: C_7  and  N_8
REMARK    4  A    between atoms: C_9  and  C_11
REMARK    5  A    between atoms: C_11  and  N_12
REMARK                            x       y       z     vdW  Elec       q    Type
REMARK                         _______ _______ _______ _____ _____    ______ ____
ROOT
ATOM      1  C   UNL     1       1.566   8.993  18.150  0.00  0.00    +0.000 C 
ENDROOT
BRANCH   1   2
ATOM      2  N   UNL     1       1.005   9.146  19.514  0.00  0.00    +0.000 N 
ATOM      3  N   UNL     1       1.689   8.460  20.489  0.00  0.00    +0.000 NA
ATOM      4  C   UNL     1       1.441   8.704  21.738  0.00  0.00    +0.000 A 
ATOM      5  C   UNL     1       0.448   9.717  22.189  0.00  0.00    +0.000 A 
ATOM      6  O   UNL     1       0.241   9.853  23.387  0.00  0.00    +0.000 OA
ATOM      7  C   UNL     1      -0.196  10.509  21.147  0.00  0.00    +0.000 A 
ATOM      8  C   UNL     1      -1.078  11.541  21.505  0.00  0.00    +0.000 A 
ATOM      9  C   UNL     1      -1.667  12.308  20.512  0.00  0.00    +0.000 A 
ATOM     10  C   UNL     1      -1.384  12.032  19.179  0.00  0.00    +0.000 A 
ATOM     11  C   UNL     1      -0.505  10.992  18.840  0.00  0.00    +0.000 A 
ATOM     12  C   UNL     1       0.124  10.204  19.816  0.00  0.00    +0.000 A 
ENDBRANCH   1   2
BRANCH   1  14
ATOM     13  N   UNL     1       1.998   6.579  18.304  0.00  0.00    +0.000 N 
ATOM     14  C   UNL     1       2.547   7.822  18.043  0.00  0.00    +0.000 C 
ATOM     15  O   UNL     1       3.738   7.986  17.802  0.00  0.00    +0.000 OA
ATOM     16  H   UNL     1       0.988   6.501  18.249  0.00  0.00    +0.000 HD
BRANCH  13  17
ATOM     17  C   UNL     1       2.812   5.391  18.174  0.00  0.00    +0.000 C 
BRANCH  17  23
ATOM     18  C   UNL     1       2.508   2.158  17.684  0.00  0.00    +0.000 C 
ATOM     19  C   UNL     1       2.175   2.943  18.914  0.00  0.00    +0.000 A 
ATOM     20  C   UNL     1       1.626   2.318  20.087  0.00  0.00    +0.000 A 
ATOM     21  C   UNL     1       1.379   3.208  21.102  0.00  0.00    +0.000 A 
ATOM     22  S   UNL     1       1.802   4.798  20.671  0.00  0.00    +0.000 S 
ATOM     23  C   UNL     1       2.327   4.314  19.102  0.00  0.00    +0.000 A 
ENDBRANCH  17  23
ENDBRANCH  13  17
ENDBRANCH   1  14
TORSDOF 4
ENDMDL
MODEL 9
REMARK VINA RESULT:      -6.6      1.039      1.462
REMARK  Name = 
REMARK  5 active torsions:
REMARK  status: ('A' for Active; 'I' for Inactive)
REMARK    1  A    between atoms: C_1  and  C_2
REMARK    2  A    between atoms: C_6  and  C_7
REMARK    3  A    between atoms: C_7  and  N_8
REMARK    4  A    between atoms: C_9  and  C_11
REMARK    5  A    between atoms: C_11  and  N_12
REMARK                            x       y       z     vdW  Elec       q    Type
REMARK                         _______ _______ _______ _____ _____    ______ ____
ROOT
ATOM      1  C   UNL     1       4.587   3.282  19.436  0.00  0.00    +0.000 C 
ENDROOT
BRANCH   1   2
ATOM      2  N   UNL     1       5.137   3.854  18.183  0.00  0.00    +0.000 N 
ATOM      3  N   UNL     1       4.398   3.570  17.059  0.00  0.00    +0.000 NA
ATOM      4  C   UNL     1       4.643   4.205  15.955  0.00  0.00    +0.000 A 
ATOM      5  C   UNL     1       5.687   5.258  15.834  0.00  0.00    +0.000 A 
ATOM      6  O   UNL     1       5.884   5.775  14.743  0.00  0.00    +0.000 OA
ATOM      7  C   UNL     1       6.392   5.621  17.058  0.00  0.00    +0.000 A 
ATOM      8  C   UNL     1       7.328   6.668  17.035  0.00  0.00    +0.000 A 
ATOM      9  C   UNL     1       7.977   7.027  18.206  0.00  0.00    +0.000 A 
ATOM     10  C   UNL     1       7.698   6.335  19.380  0.00  0.00    +0.000 A 
ATOM     11  C   UNL     1       6.764   5.288  19.383  0.00  0.00    +0.000 A 
ATOM     12  C   UNL     1       6.074   4.906  18.222  0.00  0.00    +0.000 A 
ENDBRANCH   1   2
BRANCH   1  14
ATOM     13  N   UNL     1       3.120   5.033  20.344  0.00  0.00    +0.000 N 
ATOM     14  C   UNL     1       3.174   3.786  19.746  0.00  0.00    +0.000 C 
ATOM     15  O   UNL     1       2.176   3.107  19.532  0.00  0.00    +0.000 OA
ATOM     16  H   UNL     1       3.943   5.619  20.259  0.00  0.00    +0.000 HD
BRANCH  13  17
ATOM     17  C   UNL     1       1.839   5.640  20.627  0.00  0.00    +0.000 C 
BRANCH  17  23
ATOM     18  C   UNL     1       2.944   6.807  17.762  0.00  0.00    +0.000 C 
ATOM     19  C   UNL     1       2.249   7.552  18.859  0.00  0.00    +0.000 A 
ATOM     20  C   UNL     1       1.995   8.965  18.774  0.00  0.00    +0.000 A 
ATOM     21  C   UNL     1       1.359   9.462  19.884  0.00  0.00    +0.000 A 
ATOM     22  S   UNL     1       1.054   8.251  21.039  0.00  0.00    +0.000 S 
ATOM     23  C   UNL     1       1.777   7.030  20.061  0.00  0.00    +0.000 A 
ENDBRANCH  17  23
ENDBRANCH  13  17
ENDBRANCH   1  14
TORSDOF 4
ENDMDL
