MODEL 1
REMARK VINA RESULT:      -7.8      0.000      0.000
REMARK  Name = 
REMARK  6 active torsions:
REMARK  status: ('A' for Active; 'I' for Inactive)
REMARK    1  A    between atoms: C_1  and  C_2
REMARK    2  A    between atoms: C_5  and  N_6
REMARK    3  A    between atoms: N_6  and  S_7
REMARK    4  A    between atoms: S_7  and  C_10
REMARK    5  A    between atoms: C_16  and  C_17
REMARK    6  A    between atoms: C_18  and  C_19
REMARK                            x       y       z     vdW  Elec       q    Type
REMARK                         _______ _______ _______ _____ _____    ______ ____
ROOT
ATOM      1  C   UNL     1       3.437   1.210  18.564  0.00  0.00    +0.000 C 
ATOM      2  C   UNL     1       3.159   2.459  19.341  0.00  0.00    +0.000 A 
ATOM      3  C   UNL     1       2.302   2.497  20.426  0.00  0.00    +0.000 A 
ATOM      4  S   UNL     1       2.180   4.046  21.122  0.00  0.00    +0.000 S 
ATOM      5  C   UNL     1       3.232   4.719  19.959  0.00  0.00    +0.000 A 
ATOM      6  C   UNL     1       3.686   3.781  19.045  0.00  0.00    +0.000 A 
ENDROOT
BRANCH   6   7
ATOM      7  C   UNL     1       4.627   4.055  17.887  0.00  0.00    +0.000 A 
ATOM      8  N   UNL     1       4.250   3.849  16.641  0.00  0.00    +0.000 NA
ATOM      9  C   UNL     1       5.276   4.156  15.764  0.00  0.00    +0.000 A 
ATOM     10  C   UNL     1       5.240   4.017  14.361  0.00  0.00    +0.000 A 
ATOM     11  C   UNL     1       6.347   4.403  13.599  0.00  0.00    +0.000 A 
ATOM     12  C   UNL     1       7.486   4.914  14.214  0.00  0.00    +0.000 A 
ATOM     13  C   UNL     1       7.551   5.045  15.604  0.00  0.00    +0.000 A 
ATOM     14  C   UNL     1       6.431   4.659  16.358  0.00  0.00    +0.000 A 
ATOM     15  S   UNL     1       6.207   4.705  18.056  0.00  0.00    +0.000 S 
ENDBRANCH   6   7
BRANCH   5  16
ATOM     16  N   UNL     1       3.509   6.130  19.992  0.00  0.00    +0.000 N 
ATOM     17  H   UNL     1       3.235   6.557  20.881  0.00  0.00    +0.000 HD
BRANCH  16  18
ATOM     18  S   UNL     1       2.618   7.028  18.831  0.00  0.00    +0.000 S 
ATOM     19  O   UNL     1       3.517   7.780  17.985  0.00  0.00    +0.000 OA
ATOM     20  O   UNL     1       1.671   6.077  18.288  0.00  0.00    +0.000 OA
BRANCH  18  21
ATOM     21  C   UNL     1       1.659   8.199  19.776  0.00  0.00    +0.000 A 
ATOM     22  C   UNL     1       1.468   7.975  21.146  0.00  0.00    +0.000 A 
ATOM     23  C   UNL     1       0.724   8.873  21.904  0.00  0.00    +0.000 A 
ATOM     24  C   UNL     1       0.175   9.998  21.296  0.00  0.00    +0.000 A 
ATOM     25  C   UNL     1       0.358  10.230  19.928  0.00  0.00    +0.000 A 
ATOM     26 CL   UNL     1      -0.369  11.663  19.289  0.00  0.00    +0.000 Cl
ATOM     27  C   UNL     1       1.097   9.333  19.133  0.00  0.00    +0.000 A 
ATOM     28  C   UNL     1       1.287   9.559  17.654  0.00  0.00    +0.000 C 
ENDBRANCH  18  21
ENDBRANCH  16  18
ENDBRANCH   5  16
TORSDOF 4
ENDMDL
MODEL 2
REMARK VINA RESULT:      -7.1      0.836      1.535
REMARK  Name = 
REMARK  6 active torsions:
REMARK  status: ('A' for Active; 'I' for Inactive)
REMARK    1  A    between atoms: C_1  and  C_2
REMARK    2  A    between atoms: C_5  and  N_6
REMARK    3  A    between atoms: N_6  and  S_7
REMARK    4  A    between atoms: S_7  and  C_10
REMARK    5  A    between atoms: C_16  and  C_17
REMARK    6  A    between atoms: C_18  and  C_19
REMARK                            x       y       z     vdW  Elec       q    Type
REMARK                         _______ _______ _______ _____ _____    ______ ____
ROOT
ATOM      1  C   UNL     1       3.597   1.231  18.834  0.00  0.00    +0.000 C 
ATOM      2  C   UNL     1       3.216   2.516  19.502  0.00  0.00    +0.000 A 
ATOM      3  C   UNL     1       2.325   2.582  20.558  0.00  0.00    +0.000 A 
ATOM      4  S   UNL     1       2.083   4.169  21.123  0.00  0.00    +0.000 S 
ATOM      5  C   UNL     1       3.125   4.817  19.938  0.00  0.00    +0.000 A 
ATOM      6  C   UNL     1       3.666   3.842  19.114  0.00  0.00    +0.000 A 
ENDROOT
BRANCH   6   7
ATOM      7  C   UNL     1       4.623   4.086  17.962  0.00  0.00    +0.000 A 
ATOM      8  N   UNL     1       4.230   3.951  16.712  0.00  0.00    +0.000 NA
ATOM      9  C   UNL     1       5.275   4.212  15.841  0.00  0.00    +0.000 A 
ATOM     10  C   UNL     1       5.227   4.124  14.435  0.00  0.00    +0.000 A 
ATOM     11  C   UNL     1       6.358   4.453  13.682  0.00  0.00    +0.000 A 
ATOM     12  C   UNL     1       7.532   4.859  14.309  0.00  0.00    +0.000 A 
ATOM     13  C   UNL     1       7.609   4.938  15.703  0.00  0.00    +0.000 A 
ATOM     14  C   UNL     1       6.464   4.609  16.448  0.00  0.00    +0.000 A 
ATOM     15  S   UNL     1       6.247   4.613  18.148  0.00  0.00    +0.000 S 
ENDBRANCH   6   7
BRANCH   5  16
ATOM     16  N   UNL     1       3.311   6.242  19.864  0.00  0.00    +0.000 N 
ATOM     17  H   UNL     1       2.825   6.734  20.619  0.00  0.00    +0.000 HD
BRANCH  16  18
ATOM     18  S   UNL     1       2.648   6.943  18.444  0.00  0.00    +0.000 S 
ATOM     19  O   UNL     1       3.703   7.271  17.511  0.00  0.00    +0.000 OA
ATOM     20  O   UNL     1       1.553   6.067  18.085  0.00  0.00    +0.000 OA
BRANCH  18  21
ATOM     21  C   UNL     1       1.905   8.476  18.979  0.00  0.00    +0.000 A 
ATOM     22  C   UNL     1       1.963   9.592  18.134  0.00  0.00    +0.000 A 
ATOM     23  C   UNL     1       1.392  10.797  18.528  0.00  0.00    +0.000 A 
ATOM     24  C   UNL     1       0.760  10.888  19.764  0.00  0.00    +0.000 A 
ATOM     25  C   UNL     1       0.699   9.779  20.617  0.00  0.00    +0.000 A 
ATOM     26 CL   UNL     1      -0.117  10.015  22.125  0.00  0.00    +0.000 Cl
ATOM     27  C   UNL     1       1.276   8.549  20.250  0.00  0.00    +0.000 A 
ATOM     28  C   UNL     1       1.236   7.351  21.166  0.00  0.00    +0.000 C 
ENDBRANCH  18  21
ENDBRANCH  16  18
ENDBRANCH   5  16
TORSDOF 4
ENDMDL
MODEL 3
REMARK VINA RESULT:      -7.0      0.969      1.073
REMARK  Name = 
REMARK  6 active torsions:
REMARK  status: ('A' for Active; 'I' for Inactive)
REMARK    1  A    between atoms: C_1  and  C_2
REMARK    2  A    between atoms: C_5  and  N_6
REMARK    3  A    between atoms: N_6  and  S_7
REMARK    4  A    between atoms: S_7  and  C_10
REMARK    5  A    between atoms: C_16  and  C_17
REMARK    6  A    between atoms: C_18  and  C_19
REMARK                            x       y       z     vdW  Elec       q    Type
REMARK                         _______ _______ _______ _____ _____    ______ ____
ROOT
ATOM      1  C   UNL     1       3.914   1.061  18.679  0.00  0.00    +0.000 C 
ATOM      2  C   UNL     1       2.981   2.217  18.869  0.00  0.00    +0.000 A 
ATOM      3  C   UNL     1       1.849   2.151  19.662  0.00  0.00    +0.000 A 
ATOM      4  S   UNL     1       0.979   3.614  19.701  0.00  0.00    +0.000 S 
ATOM      5  C   UNL     1       2.065   4.360  18.617  0.00  0.00    +0.000 A 
ATOM      6  C   UNL     1       3.093   3.515  18.225  0.00  0.00    +0.000 A 
ENDROOT
BRANCH   6   7
ATOM      7  C   UNL     1       4.215   3.870  17.269  0.00  0.00    +0.000 A 
ATOM      8  N   UNL     1       4.074   3.717  15.968  0.00  0.00    +0.000 NA
ATOM      9  C   UNL     1       5.229   4.092  15.304  0.00  0.00    +0.000 A 
ATOM     10  C   UNL     1       5.449   4.022  13.913  0.00  0.00    +0.000 A 
ATOM     11  C   UNL     1       6.661   4.472  13.380  0.00  0.00    +0.000 A 
ATOM     12  C   UNL     1       7.655   4.980  14.212  0.00  0.00    +0.000 A 
ATOM     13  C   UNL     1       7.466   5.044  15.596  0.00  0.00    +0.000 A 
ATOM     14  C   UNL     1       6.243   4.593  16.118  0.00  0.00    +0.000 A 
ATOM     15  S   UNL     1       5.718   4.549  17.749  0.00  0.00    +0.000 S 
ENDBRANCH   6   7
BRANCH   5  16
ATOM     16  N   UNL     1       1.816   5.710  18.187  0.00  0.00    +0.000 N 
ATOM     17  H   UNL     1       2.009   5.840  17.190  0.00  0.00    +0.000 HD
BRANCH  16  18
ATOM     18  S   UNL     1       2.840   6.865  18.940  0.00  0.00    +0.000 S 
ATOM     19  O   UNL     1       3.633   6.232  19.970  0.00  0.00    +0.000 OA
ATOM     20  O   UNL     1       3.447   7.583  17.839  0.00  0.00    +0.000 OA
BRANCH  18  21
ATOM     21  C   UNL     1       1.739   8.020  19.740  0.00  0.00    +0.000 A 
ATOM     22  C   UNL     1       1.301   7.751  21.044  0.00  0.00    +0.000 A 
ATOM     23  C   UNL     1       0.442   8.635  21.688  0.00  0.00    +0.000 A 
ATOM     24  C   UNL     1       0.023   9.789  21.034  0.00  0.00    +0.000 A 
ATOM     25  C   UNL     1       0.453  10.065  19.730  0.00  0.00    +0.000 A 
ATOM     26 CL   UNL     1      -0.132  11.532  19.024  0.00  0.00    +0.000 Cl
ATOM     27  C   UNL     1       1.314   9.184  19.049  0.00  0.00    +0.000 A 
ATOM     28  C   UNL     1       1.770   9.458  17.637  0.00  0.00    +0.000 C 
ENDBRANCH  18  21
ENDBRANCH  16  18
ENDBRANCH   5  16
TORSDOF 4
ENDMDL
MODEL 4
REMARK VINA RESULT:      -6.9      0.788      1.211
REMARK  Name = 
REMARK  6 active torsions:
REMARK  status: ('A' for Active; 'I' for Inactive)
REMARK    1  A    between atoms: C_1  and  C_2
REMARK    2  A    between atoms: C_5  and  N_6
REMARK    3  A    between atoms: N_6  and  S_7
REMARK    4  A    between atoms: S_7  and  C_10
REMARK    5  A    between atoms: C_16  and  C_17
REMARK    6  A    between atoms: C_18  and  C_19
REMARK                            x       y       z     vdW  Elec       q    Type
REMARK                         _______ _______ _______ _____ _____    ______ ____
ROOT
ATOM      1  C   UNL     1       3.213   1.156  18.799  0.00  0.00    +0.000 C 
ATOM      2  C   UNL     1       3.026   2.415  19.588  0.00  0.00    +0.000 A 
ATOM      3  C   UNL     1       2.302   2.468  20.765  0.00  0.00    +0.000 A 
ATOM      4  S   UNL     1       2.260   4.026  21.449  0.00  0.00    +0.000 S 
ATOM      5  C   UNL     1       3.167   4.684  20.162  0.00  0.00    +0.000 A 
ATOM      6  C   UNL     1       3.512   3.733  19.213  0.00  0.00    +0.000 A 
ENDROOT
BRANCH   6   7
ATOM      7  C   UNL     1       4.310   3.991  17.949  0.00  0.00    +0.000 A 
ATOM      8  N   UNL     1       5.559   4.405  18.006  0.00  0.00    +0.000 NA
ATOM      9  C   UNL     1       6.073   4.583  16.733  0.00  0.00    +0.000 A 
ATOM     10  C   UNL     1       7.363   5.055  16.415  0.00  0.00    +0.000 A 
ATOM     11  C   UNL     1       7.755   5.151  15.076  0.00  0.00    +0.000 A 
ATOM     12  C   UNL     1       6.880   4.791  14.055  0.00  0.00    +0.000 A 
ATOM     13  C   UNL     1       5.589   4.337  14.345  0.00  0.00    +0.000 A 
ATOM     14  C   UNL     1       5.210   4.241  15.694  0.00  0.00    +0.000 A 
ATOM     15  S   UNL     1       3.719   3.719  16.359  0.00  0.00    +0.000 S 
ENDBRANCH   6   7
BRANCH   5  16
ATOM     16  N   UNL     1       3.444   6.095  20.143  0.00  0.00    +0.000 N 
ATOM     17  H   UNL     1       3.171   6.554  21.016  0.00  0.00    +0.000 HD
BRANCH  16  18
ATOM     18  S   UNL     1       2.551   6.949  18.951  0.00  0.00    +0.000 S 
ATOM     19  O   UNL     1       3.450   7.624  18.042  0.00  0.00    +0.000 OA
ATOM     20  O   UNL     1       1.564   5.997  18.487  0.00  0.00    +0.000 OA
BRANCH  18  21
ATOM     21  C   UNL     1       1.650   8.203  19.847  0.00  0.00    +0.000 A 
ATOM     22  C   UNL     1       1.441   8.039  21.223  0.00  0.00    +0.000 A 
ATOM     23  C   UNL     1       0.741   9.001  21.943  0.00  0.00    +0.000 A 
ATOM     24  C   UNL     1       0.253  10.130  21.291  0.00  0.00    +0.000 A 
ATOM     25  C   UNL     1       0.454  10.301  19.916  0.00  0.00    +0.000 A 
ATOM     26 CL   UNL     1      -0.195  11.746  19.220  0.00  0.00    +0.000 Cl
ATOM     27  C   UNL     1       1.150   9.339  19.159  0.00  0.00    +0.000 A 
ATOM     28  C   UNL     1       1.358   9.501  17.674  0.00  0.00    +0.000 C 
ENDBRANCH  18  21
ENDBRANCH  16  18
ENDBRANCH   5  16
TORSDOF 4
ENDMDL
MODEL 5
REMARK VINA RESULT:      -6.6      5.341     10.753
REMARK  Name = 
REMARK  6 active torsions:
REMARK  status: ('A' for Active; 'I' for Inactive)
REMARK    1  A    between atoms: C_1  and  C_2
REMARK    2  A    between atoms: C_5  and  N_6
REMARK    3  A    between atoms: N_6  and  S_7
REMARK    4  A    between atoms: S_7  and  C_10
REMARK    5  A    between atoms: C_16  and  C_17
REMARK    6  A    between atoms: C_18  and  C_19
REMARK                            x       y       z     vdW  Elec       q    Type
REMARK                         _______ _______ _______ _____ _____    ______ ____
ROOT
ATOM      1  C   UNL     1      -5.383  12.281  19.322  0.00  0.00    +0.000 C 
ATOM      2  C   UNL     1      -3.996  11.901  18.905  0.00  0.00    +0.000 A 
ATOM      3  C   UNL     1      -3.734  11.053  17.843  0.00  0.00    +0.000 A 
ATOM      4  S   UNL     1      -2.069  10.801  17.592  0.00  0.00    +0.000 S 
ATOM      5  C   UNL     1      -1.655  11.780  18.927  0.00  0.00    +0.000 A 
ATOM      6  C   UNL     1      -2.767  12.307  19.566  0.00  0.00    +0.000 A 
ENDROOT
BRANCH   6   7
ATOM      7  C   UNL     1      -2.744  13.209  20.785  0.00  0.00    +0.000 A 
ATOM      8  N   UNL     1      -3.105  12.761  21.970  0.00  0.00    +0.000 NA
ATOM      9  C   UNL     1      -3.013  13.764  22.920  0.00  0.00    +0.000 A 
ATOM     10  C   UNL     1      -3.358  13.653  24.282  0.00  0.00    +0.000 A 
ATOM     11  C   UNL     1      -3.178  14.748  25.133  0.00  0.00    +0.000 A 
ATOM     12  C   UNL     1      -2.670  15.948  24.645  0.00  0.00    +0.000 A 
ATOM     13  C   UNL     1      -2.337  16.087  23.294  0.00  0.00    +0.000 A 
ATOM     14  C   UNL     1      -2.518  14.979  22.451  0.00  0.00    +0.000 A 
ATOM     15  S   UNL     1      -2.200  14.839  20.773  0.00  0.00    +0.000 S 
ENDBRANCH   6   7
BRANCH   5  16
ATOM     16  N   UNL     1      -0.271  11.933  19.288  0.00  0.00    +0.000 N 
ATOM     17  H   UNL     1       0.356  11.741  18.502  0.00  0.00    +0.000 HD
BRANCH  16  18
ATOM     18  S   UNL     1       0.248  10.819  20.487  0.00  0.00    +0.000 S 
ATOM     19  O   UNL     1       1.180  11.457  21.390  0.00  0.00    +0.000 OA
ATOM     20  O   UNL     1      -0.973  10.200  20.958  0.00  0.00    +0.000 OA
BRANCH  18  21
ATOM     21  C   UNL     1       1.138   9.552  19.599  0.00  0.00    +0.000 A 
ATOM     22  C   UNL     1       1.495   9.779  18.263  0.00  0.00    +0.000 A 
ATOM     23  C   UNL     1       2.188   8.807  17.550  0.00  0.00    +0.000 A 
ATOM     24  C   UNL     1       2.529   7.609  18.171  0.00  0.00    +0.000 A 
ATOM     25  C   UNL     1       2.175   7.371  19.505  0.00  0.00    +0.000 A 
ATOM     26 CL   UNL     1       2.658   5.848  20.167  0.00  0.00    +0.000 Cl
ATOM     27  C   UNL     1       1.464   8.332  20.248  0.00  0.00    +0.000 A 
ATOM     28  C   UNL     1       1.058   8.083  21.680  0.00  0.00    +0.000 C 
ENDBRANCH  18  21
ENDBRANCH  16  18
ENDBRANCH   5  16
TORSDOF 4
ENDMDL
MODEL 6
REMARK VINA RESULT:      -6.5      7.951     10.646
REMARK  Name = 
REMARK  6 active torsions:
REMARK  status: ('A' for Active; 'I' for Inactive)
REMARK    1  A    between atoms: C_1  and  C_2
REMARK    2  A    between atoms: C_5  and  N_6
REMARK    3  A    between atoms: N_6  and  S_7
REMARK    4  A    between atoms: S_7  and  C_10
REMARK    5  A    between atoms: C_16  and  C_17
REMARK    6  A    between atoms: C_18  and  C_19
REMARK                            x       y       z     vdW  Elec       q    Type
REMARK                         _______ _______ _______ _____ _____    ______ ____
ROOT
ATOM      1  C   UNL     1      -7.375  13.435  20.883  0.00  0.00    +0.000 C 
ATOM      2  C   UNL     1      -6.127  13.923  21.552  0.00  0.00    +0.000 A 
ATOM      3  C   UNL     1      -6.140  14.722  22.682  0.00  0.00    +0.000 A 
ATOM      4  S   UNL     1      -4.578  15.121  23.229  0.00  0.00    +0.000 S 
ATOM      5  C   UNL     1      -3.843  14.279  21.940  0.00  0.00    +0.000 A 
ATOM      6  C   UNL     1      -4.769  13.686  21.094  0.00  0.00    +0.000 A 
ENDROOT
BRANCH   6   7
ATOM      7  C   UNL     1      -4.444  12.873  19.856  0.00  0.00    +0.000 A 
ATOM      8  N   UNL     1      -3.302  12.225  19.749  0.00  0.00    +0.000 NA
ATOM      9  C   UNL     1      -3.226  11.568  18.532  0.00  0.00    +0.000 A 
ATOM     10  C   UNL     1      -2.132  10.812  18.062  0.00  0.00    +0.000 A 
ATOM     11  C   UNL     1      -2.214  10.174  16.821  0.00  0.00    +0.000 A 
ATOM     12  C   UNL     1      -3.362  10.286  16.042  0.00  0.00    +0.000 A 
ATOM     13  C   UNL     1      -4.452  11.045  16.479  0.00  0.00    +0.000 A 
ATOM     14  C   UNL     1      -4.359  11.677  17.730  0.00  0.00    +0.000 A 
ATOM     15  S   UNL     1      -5.515  12.656  18.531  0.00  0.00    +0.000 S 
ENDBRANCH   6   7
BRANCH   5  16
ATOM     16  N   UNL     1      -2.410  14.289  21.817  0.00  0.00    +0.000 N 
ATOM     17  H   UNL     1      -2.101  14.027  20.877  0.00  0.00    +0.000 HD
BRANCH  16  18
ATOM     18  S   UNL     1      -1.631  13.137  22.824  0.00  0.00    +0.000 S 
ATOM     19  O   UNL     1      -0.809  13.809  23.806  0.00  0.00    +0.000 OA
ATOM     20  O   UNL     1      -2.683  12.219  23.205  0.00  0.00    +0.000 OA
BRANCH  18  21
ATOM     21  C   UNL     1      -0.542  12.226  21.742  0.00  0.00    +0.000 A 
ATOM     22  C   UNL     1       0.001  12.870  20.622  0.00  0.00    +0.000 A 
ATOM     23  C   UNL     1       0.851  12.181  19.764  0.00  0.00    +0.000 A 
ATOM     24  C   UNL     1       1.162  10.850  20.025  0.00  0.00    +0.000 A 
ATOM     25  C   UNL     1       0.622  10.197  21.140  0.00  0.00    +0.000 A 
ATOM     26 CL   UNL     1       1.087   8.545  21.361  0.00  0.00    +0.000 Cl
ATOM     27  C   UNL     1      -0.248  10.865  22.020  0.00  0.00    +0.000 A 
ATOM     28  C   UNL     1      -0.853  10.170  23.215  0.00  0.00    +0.000 C 
ENDBRANCH  18  21
ENDBRANCH  16  18
ENDBRANCH   5  16
TORSDOF 4
ENDMDL
MODEL 7
REMARK VINA RESULT:      -6.4      7.728     10.299
REMARK  Name = 
REMARK  6 active torsions:
REMARK  status: ('A' for Active; 'I' for Inactive)
REMARK    1  A    between atoms: C_1  and  C_2
REMARK    2  A    between atoms: C_5  and  N_6
REMARK    3  A    between atoms: N_6  and  S_7
REMARK    4  A    between atoms: S_7  and  C_10
REMARK    5  A    between atoms: C_16  and  C_17
REMARK    6  A    between atoms: C_18  and  C_19
REMARK                            x       y       z     vdW  Elec       q    Type
REMARK                         _______ _______ _______ _____ _____    ______ ____
ROOT
ATOM      1  C   UNL     1      -6.370  12.583  22.064  0.00  0.00    +0.000 C 
ATOM      2  C   UNL     1      -5.111  13.341  22.350  0.00  0.00    +0.000 A 
ATOM      3  C   UNL     1      -4.937  14.114  23.484  0.00  0.00    +0.000 A 
ATOM      4  S   UNL     1      -3.407  14.858  23.552  0.00  0.00    +0.000 S 
ATOM      5  C   UNL     1      -2.954  14.206  22.041  0.00  0.00    +0.000 A 
ATOM      6  C   UNL     1      -3.949  13.420  21.480  0.00  0.00    +0.000 A 
ENDROOT
BRANCH   6   7
ATOM      7  C   UNL     1      -3.866  12.704  20.146  0.00  0.00    +0.000 A 
ATOM      8  N   UNL     1      -2.762  12.088  19.773  0.00  0.00    +0.000 NA
ATOM      9  C   UNL     1      -2.920  11.521  18.519  0.00  0.00    +0.000 A 
ATOM     10  C   UNL     1      -1.934  10.822  17.793  0.00  0.00    +0.000 A 
ATOM     11  C   UNL     1      -2.252  10.273  16.547  0.00  0.00    +0.000 A 
ATOM     12  C   UNL     1      -3.529  10.418  16.014  0.00  0.00    +0.000 A 
ATOM     13  C   UNL     1      -4.518  11.122  16.708  0.00  0.00    +0.000 A 
ATOM     14  C   UNL     1      -4.188  11.665  17.961  0.00  0.00    +0.000 A 
ATOM     15  S   UNL     1      -5.172  12.561  19.040  0.00  0.00    +0.000 S 
ENDBRANCH   6   7
BRANCH   5  16
ATOM     16  N   UNL     1      -1.671  14.543  21.484  0.00  0.00    +0.000 N 
ATOM     17  H   UNL     1      -1.548  14.162  20.541  0.00  0.00    +0.000 HD
BRANCH  16  18
ATOM     18  S   UNL     1      -0.352  13.874  22.356  0.00  0.00    +0.000 S 
ATOM     19  O   UNL     1       0.782  14.770  22.308  0.00  0.00    +0.000 OA
ATOM     20  O   UNL     1      -0.932  13.437  23.609  0.00  0.00    +0.000 OA
BRANCH  18  21
ATOM     21  C   UNL     1       0.094  12.390  21.470  0.00  0.00    +0.000 A 
ATOM     22  C   UNL     1       0.912  12.494  20.336  0.00  0.00    +0.000 A 
ATOM     23  C   UNL     1       1.273  11.352  19.629  0.00  0.00    +0.000 A 
ATOM     24  C   UNL     1       0.822  10.107  20.054  0.00  0.00    +0.000 A 
ATOM     25  C   UNL     1       0.002   9.993  21.184  0.00  0.00    +0.000 A 
ATOM     26 CL   UNL     1      -0.491   8.392  21.615  0.00  0.00    +0.000 Cl
ATOM     27  C   UNL     1      -0.388  11.131  21.914  0.00  0.00    +0.000 A 
ATOM     28  C   UNL     1      -1.287  11.027  23.121  0.00  0.00    +0.000 C 
ENDBRANCH  18  21
ENDBRANCH  16  18
ENDBRANCH   5  16
TORSDOF 4
ENDMDL
MODEL 8
REMARK VINA RESULT:      -6.3      1.131      1.949
REMARK  Name = 
REMARK  6 active torsions:
REMARK  status: ('A' for Active; 'I' for Inactive)
REMARK    1  A    between atoms: C_1  and  C_2
REMARK    2  A    between atoms: C_5  and  N_6
REMARK    3  A    between atoms: N_6  and  S_7
REMARK    4  A    between atoms: S_7  and  C_10
REMARK    5  A    between atoms: C_16  and  C_17
REMARK    6  A    between atoms: C_18  and  C_19
REMARK                            x       y       z     vdW  Elec       q    Type
REMARK                         _______ _______ _______ _____ _____    ______ ____
ROOT
ATOM      1  C   UNL     1       3.513   1.169  18.966  0.00  0.00    +0.000 C 
ATOM      2  C   UNL     1       3.216   2.470  19.646  0.00  0.00    +0.000 A 
ATOM      3  C   UNL     1       2.483   2.560  20.815  0.00  0.00    +0.000 A 
ATOM      4  S   UNL     1       2.306   4.161  21.366  0.00  0.00    +0.000 S 
ATOM      5  C   UNL     1       3.162   4.782  20.027  0.00  0.00    +0.000 A 
ATOM      6  C   UNL     1       3.592   3.787  19.161  0.00  0.00    +0.000 A 
ENDROOT
BRANCH   6   7
ATOM      7  C   UNL     1       4.373   4.005  17.879  0.00  0.00    +0.000 A 
ATOM      8  N   UNL     1       5.608   4.461  17.905  0.00  0.00    +0.000 NA
ATOM      9  C   UNL     1       6.108   4.589  16.620  0.00  0.00    +0.000 A 
ATOM     10  C   UNL     1       7.380   5.085  16.268  0.00  0.00    +0.000 A 
ATOM     11  C   UNL     1       7.760   5.123  14.922  0.00  0.00    +0.000 A 
ATOM     12  C   UNL     1       6.891   4.683  13.929  0.00  0.00    +0.000 A 
ATOM     13  C   UNL     1       5.618   4.203  14.252  0.00  0.00    +0.000 A 
ATOM     14  C   UNL     1       5.250   4.166  15.607  0.00  0.00    +0.000 A 
ATOM     15  S   UNL     1       3.781   3.632  16.310  0.00  0.00    +0.000 S 
ENDBRANCH   6   7
BRANCH   5  16
ATOM     16  N   UNL     1       3.320   6.205  19.889  0.00  0.00    +0.000 N 
ATOM     17  H   UNL     1       2.827   6.721  20.622  0.00  0.00    +0.000 HD
BRANCH  16  18
ATOM     18  S   UNL     1       2.639   6.829  18.441  0.00  0.00    +0.000 S 
ATOM     19  O   UNL     1       3.678   7.068  17.464  0.00  0.00    +0.000 OA
ATOM     20  O   UNL     1       1.514   5.960  18.167  0.00  0.00    +0.000 OA
BRANCH  18  21
ATOM     21  C   UNL     1       1.947   8.412  18.891  0.00  0.00    +0.000 A 
ATOM     22  C   UNL     1       2.074   9.488  18.001  0.00  0.00    +0.000 A 
ATOM     23  C   UNL     1       1.544  10.731  18.329  0.00  0.00    +0.000 A 
ATOM     24  C   UNL     1       0.884  10.900  19.543  0.00  0.00    +0.000 A 
ATOM     25  C   UNL     1       0.756   9.833  20.439  0.00  0.00    +0.000 A 
ATOM     26 CL   UNL     1      -0.088  10.166  21.912  0.00  0.00    +0.000 Cl
ATOM     27  C   UNL     1       1.290   8.566  20.139  0.00  0.00    +0.000 A 
ATOM     28  C   UNL     1       1.177   7.411  21.103  0.00  0.00    +0.000 C 
ENDBRANCH  18  21
ENDBRANCH  16  18
ENDBRANCH   5  16
TORSDOF 4
ENDMDL
MODEL 9
REMARK VINA RESULT:      -6.3      4.963      9.558
REMARK  Name = 
REMARK  6 active torsions:
REMARK  status: ('A' for Active; 'I' for Inactive)
REMARK    1  A    between atoms: C_1  and  C_2
REMARK    2  A    between atoms: C_5  and  N_6
REMARK    3  A    between atoms: N_6  and  S_7
REMARK    4  A    between atoms: S_7  and  C_10
REMARK    5  A    between atoms: C_16  and  C_17
REMARK    6  A    between atoms: C_18  and  C_19
REMARK                            x       y       z     vdW  Elec       q    Type
REMARK                         _______ _______ _______ _____ _____    ______ ____
ROOT
ATOM      1  C   UNL     1      -2.310  14.046  23.108  0.00  0.00    +0.000 C 
ATOM      2  C   UNL     1      -1.569  12.779  22.813  0.00  0.00    +0.000 A 
ATOM      3  C   UNL     1      -1.837  11.582  23.452  0.00  0.00    +0.000 A 
ATOM      4  S   UNL     1      -0.847  10.306  22.914  0.00  0.00    +0.000 S 
ATOM      5  C   UNL     1       0.002  11.332  21.847  0.00  0.00    +0.000 A 
ATOM      6  C   UNL     1      -0.459  12.639  21.885  0.00  0.00    +0.000 A 
ENDROOT
BRANCH   6   7
ATOM      7  C   UNL     1       0.084  13.794  21.065  0.00  0.00    +0.000 A 
ATOM      8  N   UNL     1      -0.670  14.412  20.179  0.00  0.00    +0.000 NA
ATOM      9  C   UNL     1       0.043  15.419  19.549  0.00  0.00    +0.000 A 
ATOM     10  C   UNL     1      -0.434  16.256  18.520  0.00  0.00    +0.000 A 
ATOM     11  C   UNL     1       0.395  17.256  18.002  0.00  0.00    +0.000 A 
ATOM     12  C   UNL     1       1.688  17.426  18.489  0.00  0.00    +0.000 A 
ATOM     13  C   UNL     1       2.188  16.597  19.497  0.00  0.00    +0.000 A 
ATOM     14  C   UNL     1       1.344  15.599  20.012  0.00  0.00    +0.000 A 
ATOM     15  S   UNL     1       1.663  14.447  21.240  0.00  0.00    +0.000 S 
ENDBRANCH   6   7
BRANCH   5  16
ATOM     16  N   UNL     1       1.093  10.800  21.075  0.00  0.00    +0.000 N 
ATOM     17  H   UNL     1       1.854  11.475  20.964  0.00  0.00    +0.000 HD
BRANCH  16  18
ATOM     18  S   UNL     1       0.662  10.423  19.456  0.00  0.00    +0.000 S 
ATOM     19  O   UNL     1      -0.736  10.059  19.384  0.00  0.00    +0.000 OA
ATOM     20  O   UNL     1       1.212  11.510  18.673  0.00  0.00    +0.000 OA
BRANCH  18  21
ATOM     21  C   UNL     1       1.619   8.975  19.038  0.00  0.00    +0.000 A 
ATOM     22  C   UNL     1       2.323   8.950  17.827  0.00  0.00    +0.000 A 
ATOM     23  C   UNL     1       3.075   7.833  17.479  0.00  0.00    +0.000 A 
ATOM     24  C   UNL     1       3.128   6.743  18.342  0.00  0.00    +0.000 A 
ATOM     25  C   UNL     1       2.425   6.757  19.553  0.00  0.00    +0.000 A 
ATOM     26 CL   UNL     1       2.573   5.344  20.541  0.00  0.00    +0.000 Cl
ATOM     27  C   UNL     1       1.648   7.869  19.927  0.00  0.00    +0.000 A 
ATOM     28  C   UNL     1       0.870   7.891  21.219  0.00  0.00    +0.000 C 
ENDBRANCH  18  21
ENDBRANCH  16  18
ENDBRANCH   5  16
TORSDOF 4
ENDMDL
