MODEL 1
REMARK VINA RESULT:      -7.6      0.000      0.000
REMARK  Name = 
REMARK  5 active torsions:
REMARK  status: ('A' for Active; 'I' for Inactive)
REMARK    1  A    between atoms: C_1  and  O_2
REMARK    2  A    between atoms: O_2  and  C_3
REMARK    3  A    between atoms: C_3  and  C_5
REMARK    4  A    between atoms: C_8  and  C_9
REMARK    5  A    between atoms: C_13  and  N_14
REMARK                            x       y       z     vdW  Elec       q    Type
REMARK                         _______ _______ _______ _____ _____    ______ ____
ROOT
ATOM      1  C   UNL     1       2.745   7.266  18.671  0.00  0.00    +0.000 A 
ATOM      2  C   UNL     1       3.670   7.623  17.707  0.00  0.00    +0.000 A 
ATOM      3  C   UNL     1       4.207   6.446  17.130  0.00  0.00    +0.000 A 
ATOM      4  C   UNL     1       5.168   6.221  16.130  0.00  0.00    +0.000 A 
ATOM      5  C   UNL     1       5.435   4.901  15.743  0.00  0.00    +0.000 A 
ATOM      6  C   UNL     1       4.764   3.822  16.336  0.00  0.00    +0.000 A 
ATOM      7  C   UNL     1       3.830   4.036  17.359  0.00  0.00    +0.000 A 
ATOM      8  C   UNL     1       3.576   5.363  17.736  0.00  0.00    +0.000 A 
ATOM      9  N   UNL     1       2.740   5.884  18.705  0.00  0.00    +0.000 N 
ATOM     10  H   UNL     1       2.169   5.326  19.324  0.00  0.00    +0.000 HD
ENDROOT
BRANCH   1  14
ATOM     11  C   UNL     1       0.323   9.867  21.077  0.00  0.00    +0.000 A 
ATOM     12  C   UNL     1       0.611  10.187  19.748  0.00  0.00    +0.000 A 
ATOM     13  C   UNL     1       1.394   9.324  18.972  0.00  0.00    +0.000 A 
ATOM     14  C   UNL     1       1.903   8.128  19.504  0.00  0.00    +0.000 A 
ATOM     15  C   UNL     1       1.613   7.815  20.836  0.00  0.00    +0.000 A 
ATOM     16  C   UNL     1       0.831   8.677  21.616  0.00  0.00    +0.000 A 
BRANCH  11  17
ATOM     17  C   UNL     1      -0.521  10.806  21.868  0.00  0.00    +0.000 C 
ATOM     18  O   UNL     1      -0.433  10.947  23.076  0.00  0.00    +0.000 OA
BRANCH  17  20
ATOM     19  C   UNL     1      -2.079  12.547  21.661  0.00  0.00    +0.000 C 
ATOM     20  O   UNL     1      -1.376  11.465  21.048  0.00  0.00    +0.000 OA
ENDBRANCH  17  20
ENDBRANCH  11  17
ENDBRANCH   1  14
BRANCH   5  21
ATOM     21  N   UNL     1       6.433   4.659  14.695  0.00  0.00    +0.000 N 
ATOM     22  O   UNL     1       6.192   3.772  13.862  0.00  0.00    +0.000 OA
ATOM     23  O   UNL     1       7.457   5.355  14.699  0.00  0.00    +0.000 OA
ENDBRANCH   5  21
TORSDOF 4
ENDMDL
MODEL 2
REMARK VINA RESULT:      -7.5      0.208      1.048
REMARK  Name = 
REMARK  5 active torsions:
REMARK  status: ('A' for Active; 'I' for Inactive)
REMARK    1  A    between atoms: C_1  and  O_2
REMARK    2  A    between atoms: O_2  and  C_3
REMARK    3  A    between atoms: C_3  and  C_5
REMARK    4  A    between atoms: C_8  and  C_9
REMARK    5  A    between atoms: C_13  and  N_14
REMARK                            x       y       z     vdW  Elec       q    Type
REMARK                         _______ _______ _______ _____ _____    ______ ____
ROOT
ATOM      1  C   UNL     1       2.696   7.383  18.704  0.00  0.00    +0.000 A 
ATOM      2  C   UNL     1       3.602   7.736  17.721  0.00  0.00    +0.000 A 
ATOM      3  C   UNL     1       4.144   6.556  17.156  0.00  0.00    +0.000 A 
ATOM      4  C   UNL     1       5.093   6.326  16.145  0.00  0.00    +0.000 A 
ATOM      5  C   UNL     1       5.370   5.002  15.776  0.00  0.00    +0.000 A 
ATOM      6  C   UNL     1       4.722   3.926  16.396  0.00  0.00    +0.000 A 
ATOM      7  C   UNL     1       3.801   4.146  17.430  0.00  0.00    +0.000 A 
ATOM      8  C   UNL     1       3.536   5.475  17.788  0.00  0.00    +0.000 A 
ATOM      9  N   UNL     1       2.708   6.002  18.761  0.00  0.00    +0.000 N 
ATOM     10  H   UNL     1       2.153   5.448  19.398  0.00  0.00    +0.000 HD
ENDROOT
BRANCH   1  14
ATOM     11  C   UNL     1       0.192   9.846  21.172  0.00  0.00    +0.000 A 
ATOM     12  C   UNL     1       0.766   8.676  21.679  0.00  0.00    +0.000 A 
ATOM     13  C   UNL     1       1.589   7.889  20.865  0.00  0.00    +0.000 A 
ATOM     14  C   UNL     1       1.856   8.250  19.535  0.00  0.00    +0.000 A 
ATOM     15  C   UNL     1       1.277   9.420  19.034  0.00  0.00    +0.000 A 
ATOM     16  C   UNL     1       0.451  10.210  19.844  0.00  0.00    +0.000 A 
BRANCH  11  17
ATOM     17  C   UNL     1      -0.670  10.663  22.072  0.00  0.00    +0.000 C 
ATOM     18  O   UNL     1      -0.663  10.571  23.288  0.00  0.00    +0.000 OA
BRANCH  17  20
ATOM     19  C   UNL     1      -2.044  12.563  22.086  0.00  0.00    +0.000 C 
ATOM     20  O   UNL     1      -1.436  11.508  21.340  0.00  0.00    +0.000 OA
ENDBRANCH  17  20
ENDBRANCH  11  17
ENDBRANCH   1  14
BRANCH   5  21
ATOM     21  N   UNL     1       6.356   4.754  14.717  0.00  0.00    +0.000 N 
ATOM     22  O   UNL     1       6.049   3.957  13.817  0.00  0.00    +0.000 OA
ATOM     23  O   UNL     1       7.436   5.358  14.779  0.00  0.00    +0.000 OA
ENDBRANCH   5  21
TORSDOF 4
ENDMDL
MODEL 3
REMARK VINA RESULT:      -7.4      2.011      8.699
REMARK  Name = 
REMARK  5 active torsions:
REMARK  status: ('A' for Active; 'I' for Inactive)
REMARK    1  A    between atoms: C_1  and  O_2
REMARK    2  A    between atoms: O_2  and  C_3
REMARK    3  A    between atoms: C_3  and  C_5
REMARK    4  A    between atoms: C_8  and  C_9
REMARK    5  A    between atoms: C_13  and  N_14
REMARK                            x       y       z     vdW  Elec       q    Type
REMARK                         _______ _______ _______ _____ _____    ______ ____
ROOT
ATOM      1  C   UNL     1       2.636   7.534  18.706  0.00  0.00    +0.000 A 
ATOM      2  C   UNL     1       1.928   8.598  18.179  0.00  0.00    +0.000 A 
ATOM      3  C   UNL     1       1.093   9.136  19.188  0.00  0.00    +0.000 A 
ATOM      4  C   UNL     1       0.174  10.199  19.206  0.00  0.00    +0.000 A 
ATOM      5  C   UNL     1      -0.461  10.515  20.415  0.00  0.00    +0.000 A 
ATOM      6  C   UNL     1      -0.194   9.791  21.585  0.00  0.00    +0.000 A 
ATOM      7  C   UNL     1       0.695   8.707  21.567  0.00  0.00    +0.000 A 
ATOM      8  C   UNL     1       1.321   8.403  20.350  0.00  0.00    +0.000 A 
ATOM      9  N   UNL     1       2.214   7.403  20.016  0.00  0.00    +0.000 N 
ATOM     10  H   UNL     1       2.546   6.698  20.659  0.00  0.00    +0.000 HD
ENDROOT
BRANCH   1  14
ATOM     11  C   UNL     1       5.581   5.107  16.741  0.00  0.00    +0.000 A 
ATOM     12  C   UNL     1       5.445   6.462  16.425  0.00  0.00    +0.000 A 
ATOM     13  C   UNL     1       4.487   7.243  17.082  0.00  0.00    +0.000 A 
ATOM     14  C   UNL     1       3.649   6.692  18.063  0.00  0.00    +0.000 A 
ATOM     15  C   UNL     1       3.788   5.336  18.374  0.00  0.00    +0.000 A 
ATOM     16  C   UNL     1       4.745   4.549  17.718  0.00  0.00    +0.000 A 
BRANCH  11  17
ATOM     17  C   UNL     1       6.619   4.310  16.028  0.00  0.00    +0.000 C 
ATOM     18  O   UNL     1       7.813   4.384  16.264  0.00  0.00    +0.000 OA
BRANCH  17  20
ATOM     19  C   UNL     1       6.211   3.925  13.751  0.00  0.00    +0.000 C 
ATOM     20  O   UNL     1       6.035   3.507  15.105  0.00  0.00    +0.000 OA
ENDBRANCH  17  20
ENDBRANCH  11  17
ENDBRANCH   1  14
BRANCH   5  21
ATOM     21  N   UNL     1      -1.418  11.627  20.442  0.00  0.00    +0.000 N 
ATOM     22  O   UNL     1      -1.633  12.178  21.533  0.00  0.00    +0.000 OA
ATOM     23  O   UNL     1      -1.953  11.956  19.374  0.00  0.00    +0.000 OA
ENDBRANCH   5  21
TORSDOF 4
ENDMDL
MODEL 4
REMARK VINA RESULT:      -7.4      0.641      1.144
REMARK  Name = 
REMARK  5 active torsions:
REMARK  status: ('A' for Active; 'I' for Inactive)
REMARK    1  A    between atoms: C_1  and  O_2
REMARK    2  A    between atoms: O_2  and  C_3
REMARK    3  A    between atoms: C_3  and  C_5
REMARK    4  A    between atoms: C_8  and  C_9
REMARK    5  A    between atoms: C_13  and  N_14
REMARK                            x       y       z     vdW  Elec       q    Type
REMARK                         _______ _______ _______ _____ _____    ______ ____
ROOT
ATOM      1  C   UNL     1       2.644   7.409  18.436  0.00  0.00    +0.000 A 
ATOM      2  C   UNL     1       3.640   7.675  17.514  0.00  0.00    +0.000 A 
ATOM      3  C   UNL     1       4.205   6.449  17.085  0.00  0.00    +0.000 A 
ATOM      4  C   UNL     1       5.234   6.133  16.181  0.00  0.00    +0.000 A 
ATOM      5  C   UNL     1       5.514   4.782  15.934  0.00  0.00    +0.000 A 
ATOM      6  C   UNL     1       4.792   3.763  16.568  0.00  0.00    +0.000 A 
ATOM      7  C   UNL     1       3.788   4.071  17.498  0.00  0.00    +0.000 A 
ATOM      8  C   UNL     1       3.521   5.427  17.736  0.00  0.00    +0.000 A 
ATOM      9  N   UNL     1       2.622   6.035  18.591  0.00  0.00    +0.000 N 
ATOM     10  H   UNL     1       2.001   5.537  19.213  0.00  0.00    +0.000 HD
ENDROOT
BRANCH   1  14
ATOM     11  C   UNL     1       0.077  10.223  20.413  0.00  0.00    +0.000 A 
ATOM     12  C   UNL     1       0.397  10.376  19.062  0.00  0.00    +0.000 A 
ATOM     13  C   UNL     1       1.228   9.444  18.428  0.00  0.00    +0.000 A 
ATOM     14  C   UNL     1       1.753   8.345  19.125  0.00  0.00    +0.000 A 
ATOM     15  C   UNL     1       1.429   8.198  20.478  0.00  0.00    +0.000 A 
ATOM     16  C   UNL     1       0.600   9.130  21.117  0.00  0.00    +0.000 A 
BRANCH  11  17
ATOM     17  C   UNL     1      -0.818  11.229  21.051  0.00  0.00    +0.000 C 
ATOM     18  O   UNL     1      -1.602  11.931  20.433  0.00  0.00    +0.000 OA
BRANCH  17  20
ATOM     19  C   UNL     1      -1.779  11.605  23.157  0.00  0.00    +0.000 C 
ATOM     20  O   UNL     1      -0.631  11.233  22.394  0.00  0.00    +0.000 OA
ENDBRANCH  17  20
ENDBRANCH  11  17
ENDBRANCH   1  14
BRANCH   5  21
ATOM     21  N   UNL     1       6.583   4.444  14.987  0.00  0.00    +0.000 N 
ATOM     22  O   UNL     1       7.724   4.867  15.228  0.00  0.00    +0.000 OA
ATOM     23  O   UNL     1       6.287   3.752  14.003  0.00  0.00    +0.000 OA
ENDBRANCH   5  21
TORSDOF 4
ENDMDL
MODEL 5
REMARK VINA RESULT:      -7.4      2.453      3.633
REMARK  Name = 
REMARK  5 active torsions:
REMARK  status: ('A' for Active; 'I' for Inactive)
REMARK    1  A    between atoms: C_1  and  O_2
REMARK    2  A    between atoms: O_2  and  C_3
REMARK    3  A    between atoms: C_3  and  C_5
REMARK    4  A    between atoms: C_8  and  C_9
REMARK    5  A    between atoms: C_13  and  N_14
REMARK                            x       y       z     vdW  Elec       q    Type
REMARK                         _______ _______ _______ _____ _____    ______ ____
ROOT
ATOM      1  C   UNL     1       1.079   8.571  20.496  0.00  0.00    +0.000 A 
ATOM      2  C   UNL     1       1.477   7.324  20.944  0.00  0.00    +0.000 A 
ATOM      3  C   UNL     1       2.292   6.722  19.955  0.00  0.00    +0.000 A 
ATOM      4  C   UNL     1       2.949   5.481  19.880  0.00  0.00    +0.000 A 
ATOM      5  C   UNL     1       3.742   5.212  18.757  0.00  0.00    +0.000 A 
ATOM      6  C   UNL     1       3.883   6.151  17.726  0.00  0.00    +0.000 A 
ATOM      7  C   UNL     1       3.202   7.376  17.777  0.00  0.00    +0.000 A 
ATOM      8  C   UNL     1       2.411   7.629  18.906  0.00  0.00    +0.000 A 
ATOM      9  N   UNL     1       1.621   8.715  19.232  0.00  0.00    +0.000 N 
ATOM     10  H   UNL     1       1.494   9.525  18.641  0.00  0.00    +0.000 HD
ENDROOT
BRANCH   1  14
ATOM     11  C   UNL     1      -1.348  11.459  22.542  0.00  0.00    +0.000 A 
ATOM     12  C   UNL     1      -0.875  10.324  23.207  0.00  0.00    +0.000 A 
ATOM     13  C   UNL     1      -0.076   9.396  22.529  0.00  0.00    +0.000 A 
ATOM     14  C   UNL     1       0.267   9.580  21.180  0.00  0.00    +0.000 A 
ATOM     15  C   UNL     1      -0.210  10.717  20.521  0.00  0.00    +0.000 A 
ATOM     16  C   UNL     1      -1.012  11.647  21.195  0.00  0.00    +0.000 A 
BRANCH  11  17
ATOM     17  C   UNL     1      -2.188  12.429  23.300  0.00  0.00    +0.000 C 
ATOM     18  O   UNL     1      -1.787  13.510  23.697  0.00  0.00    +0.000 OA
BRANCH  17  20
ATOM     19  C   UNL     1      -4.198  12.554  24.501  0.00  0.00    +0.000 C 
ATOM     20  O   UNL     1      -3.438  11.932  23.464  0.00  0.00    +0.000 OA
ENDBRANCH  17  20
ENDBRANCH  11  17
ENDBRANCH   1  14
BRANCH   5  21
ATOM     21  N   UNL     1       4.436   3.921  18.674  0.00  0.00    +0.000 N 
ATOM     22  O   UNL     1       5.514   3.805  19.277  0.00  0.00    +0.000 OA
ATOM     23  O   UNL     1       3.905   3.020  18.010  0.00  0.00    +0.000 OA
ENDBRANCH   5  21
TORSDOF 4
ENDMDL
MODEL 6
REMARK VINA RESULT:      -7.4      0.745      1.580
REMARK  Name = 
REMARK  5 active torsions:
REMARK  status: ('A' for Active; 'I' for Inactive)
REMARK    1  A    between atoms: C_1  and  O_2
REMARK    2  A    between atoms: O_2  and  C_3
REMARK    3  A    between atoms: C_3  and  C_5
REMARK    4  A    between atoms: C_8  and  C_9
REMARK    5  A    between atoms: C_13  and  N_14
REMARK                            x       y       z     vdW  Elec       q    Type
REMARK                         _______ _______ _______ _____ _____    ______ ____
ROOT
ATOM      1  C   UNL     1       2.598   7.505  18.420  0.00  0.00    +0.000 A 
ATOM      2  C   UNL     1       3.679   7.720  17.585  0.00  0.00    +0.000 A 
ATOM      3  C   UNL     1       4.211   6.466  17.196  0.00  0.00    +0.000 A 
ATOM      4  C   UNL     1       5.292   6.096  16.378  0.00  0.00    +0.000 A 
ATOM      5  C   UNL     1       5.519   4.733  16.146  0.00  0.00    +0.000 A 
ATOM      6  C   UNL     1       4.694   3.753  16.713  0.00  0.00    +0.000 A 
ATOM      7  C   UNL     1       3.635   4.113  17.559  0.00  0.00    +0.000 A 
ATOM      8  C   UNL     1       3.422   5.481  17.783  0.00  0.00    +0.000 A 
ATOM      9  N   UNL     1       2.490   6.135  18.565  0.00  0.00    +0.000 N 
ATOM     10  H   UNL     1       1.794   5.670  19.132  0.00  0.00    +0.000 HD
ENDROOT
BRANCH   1  14
ATOM     11  C   UNL     1      -0.062  10.313  20.281  0.00  0.00    +0.000 A 
ATOM     12  C   UNL     1       0.516   9.278  21.021  0.00  0.00    +0.000 A 
ATOM     13  C   UNL     1       1.389   8.376  20.403  0.00  0.00    +0.000 A 
ATOM     14  C   UNL     1       1.704   8.487  19.040  0.00  0.00    +0.000 A 
ATOM     15  C   UNL     1       1.121   9.524  18.304  0.00  0.00    +0.000 A 
ATOM     16  C   UNL     1       0.244  10.428  18.919  0.00  0.00    +0.000 A 
BRANCH  11  17
ATOM     17  C   UNL     1      -0.979  11.259  20.977  0.00  0.00    +0.000 C 
ATOM     18  O   UNL     1      -1.736  12.022  20.398  0.00  0.00    +0.000 OA
BRANCH  17  20
ATOM     19  C   UNL     1      -1.890  11.738  23.084  0.00  0.00    +0.000 C 
ATOM     20  O   UNL     1      -0.846  11.133  22.320  0.00  0.00    +0.000 OA
ENDBRANCH  17  20
ENDBRANCH  11  17
ENDBRANCH   1  14
BRANCH   5  21
ATOM     21  N   UNL     1       6.643   4.339  15.287  0.00  0.00    +0.000 N 
ATOM     22  O   UNL     1       7.788   4.629  15.665  0.00  0.00    +0.000 OA
ATOM     23  O   UNL     1       6.384   3.735  14.237  0.00  0.00    +0.000 OA
ENDBRANCH   5  21
TORSDOF 4
ENDMDL
MODEL 7
REMARK VINA RESULT:      -7.3      2.346      3.343
REMARK  Name = 
REMARK  5 active torsions:
REMARK  status: ('A' for Active; 'I' for Inactive)
REMARK    1  A    between atoms: C_1  and  O_2
REMARK    2  A    between atoms: O_2  and  C_3
REMARK    3  A    between atoms: C_3  and  C_5
REMARK    4  A    between atoms: C_8  and  C_9
REMARK    5  A    between atoms: C_13  and  N_14
REMARK                            x       y       z     vdW  Elec       q    Type
REMARK                         _______ _______ _______ _____ _____    ______ ____
ROOT
ATOM      1  C   UNL     1       1.084   8.573  20.481  0.00  0.00    +0.000 A 
ATOM      2  C   UNL     1       1.558   7.335  20.875  0.00  0.00    +0.000 A 
ATOM      3  C   UNL     1       2.374   6.808  19.844  0.00  0.00    +0.000 A 
ATOM      4  C   UNL     1       3.091   5.607  19.709  0.00  0.00    +0.000 A 
ATOM      5  C   UNL     1       3.864   5.417  18.556  0.00  0.00    +0.000 A 
ATOM      6  C   UNL     1       3.927   6.395  17.554  0.00  0.00    +0.000 A 
ATOM      7  C   UNL     1       3.186   7.581  17.666  0.00  0.00    +0.000 A 
ATOM      8  C   UNL     1       2.416   7.755  18.824  0.00  0.00    +0.000 A 
ATOM      9  N   UNL     1       1.581   8.787  19.208  0.00  0.00    +0.000 N 
ATOM     10  H   UNL     1       1.396   9.608  18.650  0.00  0.00    +0.000 HD
ENDROOT
BRANCH   1  14
ATOM     11  C   UNL     1      -1.336  11.405  22.613  0.00  0.00    +0.000 A 
ATOM     12  C   UNL     1      -1.007  11.614  21.271  0.00  0.00    +0.000 A 
ATOM     13  C   UNL     1      -0.225  10.677  20.586  0.00  0.00    +0.000 A 
ATOM     14  C   UNL     1       0.242   9.515  21.221  0.00  0.00    +0.000 A 
ATOM     15  C   UNL     1      -0.090   9.312  22.565  0.00  0.00    +0.000 A 
ATOM     16  C   UNL     1      -0.871  10.249  23.255  0.00  0.00    +0.000 A 
BRANCH  11  17
ATOM     17  C   UNL     1      -2.179  12.420  23.306  0.00  0.00    +0.000 C 
ATOM     18  O   UNL     1      -1.857  13.588  23.447  0.00  0.00    +0.000 OA
BRANCH  17  20
ATOM     19  C   UNL     1      -4.320  12.776  24.192  0.00  0.00    +0.000 C 
ATOM     20  O   UNL     1      -3.332  11.852  23.735  0.00  0.00    +0.000 OA
ENDBRANCH  17  20
ENDBRANCH  11  17
ENDBRANCH   1  14
BRANCH   5  21
ATOM     21  N   UNL     1       4.621   4.167  18.410  0.00  0.00    +0.000 N 
ATOM     22  O   UNL     1       4.155   3.294  17.663  0.00  0.00    +0.000 OA
ATOM     23  O   UNL     1       5.683   4.057  19.039  0.00  0.00    +0.000 OA
ENDBRANCH   5  21
TORSDOF 4
ENDMDL
MODEL 8
REMARK VINA RESULT:      -7.3      2.009      8.736
REMARK  Name = 
REMARK  5 active torsions:
REMARK  status: ('A' for Active; 'I' for Inactive)
REMARK    1  A    between atoms: C_1  and  O_2
REMARK    2  A    between atoms: O_2  and  C_3
REMARK    3  A    between atoms: C_3  and  C_5
REMARK    4  A    between atoms: C_8  and  C_9
REMARK    5  A    between atoms: C_13  and  N_14
REMARK                            x       y       z     vdW  Elec       q    Type
REMARK                         _______ _______ _______ _____ _____    ______ ____
ROOT
ATOM      1  C   UNL     1       2.607   7.713  18.417  0.00  0.00    +0.000 A 
ATOM      2  C   UNL     1       1.874   8.759  17.888  0.00  0.00    +0.000 A 
ATOM      3  C   UNL     1       1.032   9.284  18.899  0.00  0.00    +0.000 A 
ATOM      4  C   UNL     1       0.091  10.327  18.916  0.00  0.00    +0.000 A 
ATOM      5  C   UNL     1      -0.545  10.635  20.126  0.00  0.00    +0.000 A 
ATOM      6  C   UNL     1      -0.257   9.923  21.298  0.00  0.00    +0.000 A 
ATOM      7  C   UNL     1       0.655   8.858  21.282  0.00  0.00    +0.000 A 
ATOM      8  C   UNL     1       1.282   8.562  20.063  0.00  0.00    +0.000 A 
ATOM      9  N   UNL     1       2.195   7.580  19.730  0.00  0.00    +0.000 N 
ATOM     10  H   UNL     1       2.545   6.886  20.375  0.00  0.00    +0.000 HD
ENDROOT
BRANCH   1  14
ATOM     11  C   UNL     1       5.629   5.257  16.611  0.00  0.00    +0.000 A 
ATOM     12  C   UNL     1       4.662   4.698  17.452  0.00  0.00    +0.000 A 
ATOM     13  C   UNL     1       3.677   5.510  18.025  0.00  0.00    +0.000 A 
ATOM     14  C   UNL     1       3.635   6.890  17.774  0.00  0.00    +0.000 A 
ATOM     15  C   UNL     1       4.606   7.444  16.933  0.00  0.00    +0.000 A 
ATOM     16  C   UNL     1       5.596   6.635  16.358  0.00  0.00    +0.000 A 
BRANCH  11  17
ATOM     17  C   UNL     1       6.656   4.360  16.012  0.00  0.00    +0.000 C 
ATOM     18  O   UNL     1       7.835   4.369  16.326  0.00  0.00    +0.000 OA
BRANCH  17  20
ATOM     19  C   UNL     1       6.183   4.006  13.743  0.00  0.00    +0.000 C 
ATOM     20  O   UNL     1       6.082   3.547  15.091  0.00  0.00    +0.000 OA
ENDBRANCH  17  20
ENDBRANCH  11  17
ENDBRANCH   1  14
BRANCH   5  21
ATOM     21  N   UNL     1      -1.525  11.727  20.153  0.00  0.00    +0.000 N 
ATOM     22  O   UNL     1      -1.945  12.153  19.066  0.00  0.00    +0.000 OA
ATOM     23  O   UNL     1      -1.880  12.159  21.259  0.00  0.00    +0.000 OA
ENDBRANCH   5  21
TORSDOF 4
ENDMDL
MODEL 9
REMARK VINA RESULT:      -7.2      2.001      3.117
REMARK  Name = 
REMARK  5 active torsions:
REMARK  status: ('A' for Active; 'I' for Inactive)
REMARK    1  A    between atoms: C_1  and  O_2
REMARK    2  A    between atoms: O_2  and  C_3
REMARK    3  A    between atoms: C_3  and  C_5
REMARK    4  A    between atoms: C_8  and  C_9
REMARK    5  A    between atoms: C_13  and  N_14
REMARK                            x       y       z     vdW  Elec       q    Type
REMARK                         _______ _______ _______ _____ _____    ______ ____
ROOT
ATOM      1  C   UNL     1       1.186   8.655  20.433  0.00  0.00    +0.000 A 
ATOM      2  C   UNL     1       1.755   8.727  19.174  0.00  0.00    +0.000 A 
ATOM      3  C   UNL     1       2.442   7.516  18.914  0.00  0.00    +0.000 A 
ATOM      4  C   UNL     1       3.189   7.056  17.816  0.00  0.00    +0.000 A 
ATOM      5  C   UNL     1       3.701   5.752  17.855  0.00  0.00    +0.000 A 
ATOM      6  C   UNL     1       3.480   4.919  18.960  0.00  0.00    +0.000 A 
ATOM      7  C   UNL     1       2.766   5.383  20.074  0.00  0.00    +0.000 A 
ATOM      8  C   UNL     1       2.262   6.691  20.020  0.00  0.00    +0.000 A 
ATOM      9  N   UNL     1       1.549   7.424  20.948  0.00  0.00    +0.000 N 
ATOM     10  H   UNL     1       1.291   7.086  21.865  0.00  0.00    +0.000 HD
ENDROOT
BRANCH   1  14
ATOM     11  C   UNL     1      -1.314  11.469  22.494  0.00  0.00    +0.000 A 
ATOM     12  C   UNL     1      -0.808  10.346  23.154  0.00  0.00    +0.000 A 
ATOM     13  C   UNL     1       0.015   9.443  22.472  0.00  0.00    +0.000 A 
ATOM     14  C   UNL     1       0.348   9.639  21.123  0.00  0.00    +0.000 A 
ATOM     15  C   UNL     1      -0.163  10.764  20.467  0.00  0.00    +0.000 A 
ATOM     16  C   UNL     1      -0.988  11.670  21.146  0.00  0.00    +0.000 A 
BRANCH  11  17
ATOM     17  C   UNL     1      -2.178  12.414  23.257  0.00  0.00    +0.000 C 
ATOM     18  O   UNL     1      -1.810  13.511  23.643  0.00  0.00    +0.000 OA
BRANCH  17  20
ATOM     19  C   UNL     1      -4.175  12.472  24.485  0.00  0.00    +0.000 C 
ATOM     20  O   UNL     1      -3.408  11.874  23.439  0.00  0.00    +0.000 OA
ENDBRANCH  17  20
ENDBRANCH  11  17
ENDBRANCH   1  14
BRANCH   5  21
ATOM     21  N   UNL     1       4.477   5.261  16.710  0.00  0.00    +0.000 N 
ATOM     22  O   UNL     1       5.081   6.097  16.020  0.00  0.00    +0.000 OA
ATOM     23  O   UNL     1       4.488   4.041  16.499  0.00  0.00    +0.000 OA
ENDBRANCH   5  21
TORSDOF 4
ENDMDL
