MODEL 1
REMARK VINA RESULT:      -7.5      0.000      0.000
REMARK  Name = 
REMARK  6 active torsions:
REMARK  status: ('A' for Active; 'I' for Inactive)
REMARK    1  A    between atoms: N_3  and  C_4
REMARK    2  A    between atoms: N_11  and  C_12
REMARK    3  A    between atoms: N_11  and  C_24
REMARK    4  A    between atoms: C_12  and  C_13
REMARK    5  A    between atoms: C_15  and  O_16
REMARK    6  A    between atoms: C_24  and  C_25
REMARK                            x       y       z     vdW  Elec       q    Type
REMARK                         _______ _______ _______ _____ _____    ______ ____
ROOT
ATOM      1  O   UNL     1       4.698   5.430  19.145  0.00  0.00    +0.000 OA
ATOM      2  C   UNL     1       3.696   5.872  18.588  0.00  0.00    +0.000 C 
ATOM      3  N   UNL     1       2.437   5.351  18.794  0.00  0.00    +0.000 N 
ATOM      4  N   UNL     1       3.767   6.894  17.654  0.00  0.00    +0.000 N 
ATOM      5  H   UNL     1       1.866   5.292  17.962  0.00  0.00    +0.000 HD
ENDROOT
BRANCH   3   6
ATOM      6  C   UNL     1       2.176   4.316  19.730  0.00  0.00    +0.000 A 
ATOM      7  C   UNL     1       2.053   4.580  21.099  0.00  0.00    +0.000 A 
ATOM      8  C   UNL     1       1.775   3.540  21.992  0.00  0.00    +0.000 A 
ATOM      9  C   UNL     1       1.631   2.233  21.529  0.00  0.00    +0.000 A 
ATOM     10  C   UNL     1       1.756   1.959  20.168  0.00  0.00    +0.000 A 
ATOM     11  C   UNL     1       2.011   2.999  19.272  0.00  0.00    +0.000 A 
ATOM     12 CL   UNL     1       2.194   2.615  17.594  0.00  0.00    +0.000 Cl
ENDBRANCH   3   6
BRANCH   4  13
ATOM     13  C   UNL     1       2.615   7.664  17.154  0.00  0.00    +0.000 C 
BRANCH  13  14
ATOM     14  C   UNL     1       2.035   8.640  18.168  0.00  0.00    +0.000 A 
ATOM     15  N   UNL     1       1.865   9.921  17.790  0.00  0.00    +0.000 NA
ATOM     16  C   UNL     1       1.323  10.722  18.717  0.00  0.00    +0.000 A 
ATOM     17  C   UNL     1       0.926  10.345  19.988  0.00  0.00    +0.000 A 
ATOM     18  C   UNL     1       0.354  11.207  20.951  0.00  0.00    +0.000 A 
ATOM     19  C   UNL     1      -0.009  10.719  22.203  0.00  0.00    +0.000 A 
ATOM     20  C   UNL     1       0.193   9.372  22.488  0.00  0.00    +0.000 A 
ATOM     21  C   UNL     1       0.758   8.529  21.523  0.00  0.00    +0.000 A 
ATOM     22  C   UNL     1       1.136   8.993  20.267  0.00  0.00    +0.000 A 
ATOM     23  N   UNL     1       1.681   8.148  19.376  0.00  0.00    +0.000 NA
BRANCH  16  24
ATOM     24  O   UNL     1       1.169  12.007  18.288  0.00  0.00    +0.000 OA
ATOM     25  H   UNL     1       1.038  12.465  19.135  0.00  0.00    +0.000 HD
ENDBRANCH  16  24
ENDBRANCH  13  14
ENDBRANCH   4  13
BRANCH   4  26
ATOM     26  C   UNL     1       5.092   7.403  17.309  0.00  0.00    +0.000 C 
BRANCH  26  27
ATOM     27  C   UNL     1       5.799   6.437  16.396  0.00  0.00    +0.000 A 
ATOM     28  C   UNL     1       5.379   5.926  15.181  0.00  0.00    +0.000 A 
ATOM     29  C   UNL     1       6.277   4.952  14.656  0.00  0.00    +0.000 A 
ATOM     30  C   UNL     1       7.361   4.755  15.480  0.00  0.00    +0.000 A 
ATOM     31  S   UNL     1       7.305   5.758  16.864  0.00  0.00    +0.000 S 
ENDBRANCH  26  27
ENDBRANCH   4  26
TORSDOF 6
ENDMDL
MODEL 2
REMARK VINA RESULT:      -7.3      4.449      8.565
REMARK  Name = 
REMARK  6 active torsions:
REMARK  status: ('A' for Active; 'I' for Inactive)
REMARK    1  A    between atoms: N_3  and  C_4
REMARK    2  A    between atoms: N_11  and  C_12
REMARK    3  A    between atoms: N_11  and  C_24
REMARK    4  A    between atoms: C_12  and  C_13
REMARK    5  A    between atoms: C_15  and  O_16
REMARK    6  A    between atoms: C_24  and  C_25
REMARK                            x       y       z     vdW  Elec       q    Type
REMARK                         _______ _______ _______ _____ _____    ______ ____
ROOT
ATOM      1  O   UNL     1      -0.652  12.728  18.646  0.00  0.00    +0.000 OA
ATOM      2  C   UNL     1      -0.724  11.692  19.304  0.00  0.00    +0.000 C 
ATOM      3  N   UNL     1      -1.587  10.666  18.988  0.00  0.00    +0.000 N 
ATOM      4  N   UNL     1       0.019  11.506  20.460  0.00  0.00    +0.000 N 
ATOM      5  H   UNL     1      -2.027  10.228  19.785  0.00  0.00    +0.000 HD
ENDROOT
BRANCH   3   6
ATOM      6  C   UNL     1      -2.405  10.678  17.829  0.00  0.00    +0.000 A 
ATOM      7  C   UNL     1      -2.017  10.032  16.650  0.00  0.00    +0.000 A 
ATOM      8  C   UNL     1      -2.858  10.045  15.532  0.00  0.00    +0.000 A 
ATOM      9  C   UNL     1      -4.080  10.713  15.579  0.00  0.00    +0.000 A 
ATOM     10  C   UNL     1      -4.475  11.363  16.746  0.00  0.00    +0.000 A 
ATOM     11  C   UNL     1      -3.647  11.331  17.871  0.00  0.00    +0.000 A 
ATOM     12 CL   UNL     1      -4.156  12.180  19.292  0.00  0.00    +0.000 Cl
ENDBRANCH   3   6
BRANCH   4  13
ATOM     13  C   UNL     1       0.207  10.216  21.145  0.00  0.00    +0.000 C 
BRANCH  13  14
ATOM     14  C   UNL     1       0.945   9.176  20.315  0.00  0.00    +0.000 A 
ATOM     15  N   UNL     1       1.369   9.528  19.086  0.00  0.00    +0.000 NA
ATOM     16  C   UNL     1       2.038   8.578  18.419  0.00  0.00    +0.000 A 
ATOM     17  C   UNL     1       2.328   7.307  18.884  0.00  0.00    +0.000 A 
ATOM     18  C   UNL     1       3.038   6.319  18.163  0.00  0.00    +0.000 A 
ATOM     19  C   UNL     1       3.273   5.071  18.730  0.00  0.00    +0.000 A 
ATOM     20  C   UNL     1       2.807   4.813  20.015  0.00  0.00    +0.000 A 
ATOM     21  C   UNL     1       2.108   5.802  20.719  0.00  0.00    +0.000 A 
ATOM     22  C   UNL     1       1.853   7.055  20.173  0.00  0.00    +0.000 A 
ATOM     23  N   UNL     1       1.173   7.971  20.883  0.00  0.00    +0.000 NA
BRANCH  16  24
ATOM     24  O   UNL     1       2.448   8.982  17.183  0.00  0.00    +0.000 OA
ATOM     25  H   UNL     1       1.816   9.700  17.009  0.00  0.00    +0.000 HD
ENDBRANCH  16  24
ENDBRANCH  13  14
ENDBRANCH   4  13
BRANCH   4  26
ATOM     26  C   UNL     1       0.862  12.612  20.907  0.00  0.00    +0.000 C 
BRANCH  26  27
ATOM     27  C   UNL     1       0.130  13.447  21.922  0.00  0.00    +0.000 A 
ATOM     28  C   UNL     1      -0.932  13.091  22.735  0.00  0.00    +0.000 A 
ATOM     29  C   UNL     1      -1.430  14.188  23.498  0.00  0.00    +0.000 A 
ATOM     30  C   UNL     1      -0.728  15.345  23.254  0.00  0.00    +0.000 A 
ATOM     31  S   UNL     1       0.538  15.103  22.130  0.00  0.00    +0.000 S 
ENDBRANCH  26  27
ENDBRANCH   4  26
TORSDOF 6
ENDMDL
MODEL 3
REMARK VINA RESULT:      -7.1      4.278      8.525
REMARK  Name = 
REMARK  6 active torsions:
REMARK  status: ('A' for Active; 'I' for Inactive)
REMARK    1  A    between atoms: N_3  and  C_4
REMARK    2  A    between atoms: N_11  and  C_12
REMARK    3  A    between atoms: N_11  and  C_24
REMARK    4  A    between atoms: C_12  and  C_13
REMARK    5  A    between atoms: C_15  and  O_16
REMARK    6  A    between atoms: C_24  and  C_25
REMARK                            x       y       z     vdW  Elec       q    Type
REMARK                         _______ _______ _______ _____ _____    ______ ____
ROOT
ATOM      1  O   UNL     1      -0.377  12.124  18.501  0.00  0.00    +0.000 OA
ATOM      2  C   UNL     1      -0.638  11.115  19.152  0.00  0.00    +0.000 C 
ATOM      3  N   UNL     1      -1.642  10.240  18.801  0.00  0.00    +0.000 N 
ATOM      4  N   UNL     1       0.023  10.815  20.334  0.00  0.00    +0.000 N 
ATOM      5  H   UNL     1      -2.176   9.880  19.581  0.00  0.00    +0.000 HD
ENDROOT
BRANCH   3   6
ATOM      6  C   UNL     1      -2.405  10.380  17.614  0.00  0.00    +0.000 A 
ATOM      7  C   UNL     1      -2.037   9.739  16.425  0.00  0.00    +0.000 A 
ATOM      8  C   UNL     1      -2.824   9.882  15.277  0.00  0.00    +0.000 A 
ATOM      9  C   UNL     1      -3.971  10.673  15.304  0.00  0.00    +0.000 A 
ATOM     10  C   UNL     1      -4.344  11.319  16.481  0.00  0.00    +0.000 A 
ATOM     11  C   UNL     1      -3.573  11.159  17.634  0.00  0.00    +0.000 A 
ATOM     12 CL   UNL     1      -4.050  12.005  19.067  0.00  0.00    +0.000 Cl
ENDBRANCH   3   6
BRANCH   4  13
ATOM     13  C   UNL     1      -0.024   9.514  21.021  0.00  0.00    +0.000 C 
BRANCH  13  14
ATOM     14  C   UNL     1       0.958   8.488  20.473  0.00  0.00    +0.000 A 
ATOM     15  N   UNL     1       1.136   7.347  21.165  0.00  0.00    +0.000 NA
ATOM     16  C   UNL     1       1.990   6.473  20.614  0.00  0.00    +0.000 A 
ATOM     17  C   UNL     1       2.673   6.643  19.422  0.00  0.00    +0.000 A 
ATOM     18  C   UNL     1       3.570   5.706  18.858  0.00  0.00    +0.000 A 
ATOM     19  C   UNL     1       4.204   5.982  17.651  0.00  0.00    +0.000 A 
ATOM     20  C   UNL     1       3.937   7.185  17.006  0.00  0.00    +0.000 A 
ATOM     21  C   UNL     1       3.045   8.102  17.575  0.00  0.00    +0.000 A 
ATOM     22  C   UNL     1       2.403   7.855  18.784  0.00  0.00    +0.000 A 
ATOM     23  N   UNL     1       1.560   8.767  19.295  0.00  0.00    +0.000 NA
BRANCH  16  24
ATOM     24  O   UNL     1       2.136   5.334  21.349  0.00  0.00    +0.000 OA
ATOM     25  H   UNL     1       2.339   5.708  22.223  0.00  0.00    +0.000 HD
ENDBRANCH  16  24
ENDBRANCH  13  14
ENDBRANCH   4  13
BRANCH   4  26
ATOM     26  C   UNL     1       1.016  11.773  20.815  0.00  0.00    +0.000 C 
BRANCH  26  27
ATOM     27  C   UNL     1       0.355  12.824  21.666  0.00  0.00    +0.000 A 
ATOM     28  C   UNL     1      -0.753  12.705  22.487  0.00  0.00    +0.000 A 
ATOM     29  C   UNL     1      -1.149  13.951  23.057  0.00  0.00    +0.000 A 
ATOM     30  C   UNL     1      -0.326  14.981  22.663  0.00  0.00    +0.000 A 
ATOM     31  S   UNL     1       0.927  14.443  21.632  0.00  0.00    +0.000 S 
ENDBRANCH  26  27
ENDBRANCH   4  26
TORSDOF 6
ENDMDL
MODEL 4
REMARK VINA RESULT:      -7.1      3.726      6.145
REMARK  Name = 
REMARK  6 active torsions:
REMARK  status: ('A' for Active; 'I' for Inactive)
REMARK    1  A    between atoms: N_3  and  C_4
REMARK    2  A    between atoms: N_11  and  C_12
REMARK    3  A    between atoms: N_11  and  C_24
REMARK    4  A    between atoms: C_12  and  C_13
REMARK    5  A    between atoms: C_15  and  O_16
REMARK    6  A    between atoms: C_24  and  C_25
REMARK                            x       y       z     vdW  Elec       q    Type
REMARK                         _______ _______ _______ _____ _____    ______ ____
ROOT
ATOM      1  O   UNL     1       1.756   9.377  17.498  0.00  0.00    +0.000 OA
ATOM      2  C   UNL     1       1.531   9.141  18.682  0.00  0.00    +0.000 C 
ATOM      3  N   UNL     1       1.964   7.993  19.309  0.00  0.00    +0.000 N 
ATOM      4  N   UNL     1       0.762   9.989  19.465  0.00  0.00    +0.000 N 
ATOM      5  H   UNL     1       1.297   7.591  19.954  0.00  0.00    +0.000 HD
ENDROOT
BRANCH   3   6
ATOM      6  C   UNL     1       2.779   7.025  18.667  0.00  0.00    +0.000 A 
ATOM      7  C   UNL     1       3.662   7.377  17.640  0.00  0.00    +0.000 A 
ATOM      8  C   UNL     1       4.468   6.401  17.042  0.00  0.00    +0.000 A 
ATOM      9  C   UNL     1       4.387   5.072  17.454  0.00  0.00    +0.000 A 
ATOM     10  C   UNL     1       3.508   4.711  18.474  0.00  0.00    +0.000 A 
ATOM     11  C   UNL     1       2.720   5.687  19.087  0.00  0.00    +0.000 A 
ATOM     12 CL   UNL     1       1.615   5.194  20.326  0.00  0.00    +0.000 Cl
ENDBRANCH   3   6
BRANCH   4  13
ATOM     13  C   UNL     1       0.674   9.934  20.934  0.00  0.00    +0.000 C 
BRANCH  13  14
ATOM     14  C   UNL     1       0.093  11.190  21.566  0.00  0.00    +0.000 A 
ATOM     15  N   UNL     1       0.766  12.347  21.415  0.00  0.00    +0.000 NA
ATOM     16  C   UNL     1       0.187  13.421  21.969  0.00  0.00    +0.000 A 
ATOM     17  C   UNL     1      -1.016  13.435  22.654  0.00  0.00    +0.000 A 
ATOM     18  C   UNL     1      -1.609  14.582  23.231  0.00  0.00    +0.000 A 
ATOM     19  C   UNL     1      -2.826  14.480  23.899  0.00  0.00    +0.000 A 
ATOM     20  C   UNL     1      -3.449  13.239  23.985  0.00  0.00    +0.000 A 
ATOM     21  C   UNL     1      -2.850  12.113  23.407  0.00  0.00    +0.000 A 
ATOM     22  C   UNL     1      -1.632  12.185  22.739  0.00  0.00    +0.000 A 
ATOM     23  N   UNL     1      -1.092  11.077  22.205  0.00  0.00    +0.000 NA
BRANCH  16  24
ATOM     24  O   UNL     1       0.904  14.567  21.788  0.00  0.00    +0.000 OA
ATOM     25  H   UNL     1       0.224  15.145  21.402  0.00  0.00    +0.000 HD
ENDBRANCH  16  24
ENDBRANCH  13  14
ENDBRANCH   4  13
BRANCH   4  26
ATOM     26  C   UNL     1       0.178  11.161  18.818  0.00  0.00    +0.000 C 
BRANCH  26  27
ATOM     27  C   UNL     1      -1.225  10.859  18.364  0.00  0.00    +0.000 A 
ATOM     28  C   UNL     1      -1.658   9.907  17.457  0.00  0.00    +0.000 A 
ATOM     29  C   UNL     1      -3.058   9.989  17.202  0.00  0.00    +0.000 A 
ATOM     30  C   UNL     1      -3.654  10.994  17.928  0.00  0.00    +0.000 A 
ATOM     31  S   UNL     1      -2.536  11.815  18.927  0.00  0.00    +0.000 S 
ENDBRANCH  26  27
ENDBRANCH   4  26
TORSDOF 6
ENDMDL
MODEL 5
REMARK VINA RESULT:      -7.0      1.153      1.717
REMARK  Name = 
REMARK  6 active torsions:
REMARK  status: ('A' for Active; 'I' for Inactive)
REMARK    1  A    between atoms: N_3  and  C_4
REMARK    2  A    between atoms: N_11  and  C_12
REMARK    3  A    between atoms: N_11  and  C_24
REMARK    4  A    between atoms: C_12  and  C_13
REMARK    5  A    between atoms: C_15  and  O_16
REMARK    6  A    between atoms: C_24  and  C_25
REMARK                            x       y       z     vdW  Elec       q    Type
REMARK                         _______ _______ _______ _____ _____    ______ ____
ROOT
ATOM      1  O   UNL     1       4.619   5.411  19.078  0.00  0.00    +0.000 OA
ATOM      2  C   UNL     1       3.607   5.891  18.572  0.00  0.00    +0.000 C 
ATOM      3  N   UNL     1       2.350   5.364  18.772  0.00  0.00    +0.000 N 
ATOM      4  N   UNL     1       3.665   6.971  17.703  0.00  0.00    +0.000 N 
ATOM      5  H   UNL     1       1.762   5.360  17.950  0.00  0.00    +0.000 HD
ENDROOT
BRANCH   3   6
ATOM      6  C   UNL     1       2.103   4.274  19.646  0.00  0.00    +0.000 A 
ATOM      7  C   UNL     1       1.883   4.468  21.015  0.00  0.00    +0.000 A 
ATOM      8  C   UNL     1       1.622   3.372  21.845  0.00  0.00    +0.000 A 
ATOM      9  C   UNL     1       1.591   2.082  21.320  0.00  0.00    +0.000 A 
ATOM     10  C   UNL     1       1.813   1.878  19.960  0.00  0.00    +0.000 A 
ATOM     11  C   UNL     1       2.052   2.972  19.125  0.00  0.00    +0.000 A 
ATOM     12 CL   UNL     1       2.357   2.675  17.446  0.00  0.00    +0.000 Cl
ENDBRANCH   3   6
BRANCH   4  13
ATOM     13  C   UNL     1       2.507   7.775  17.277  0.00  0.00    +0.000 C 
BRANCH  13  14
ATOM     14  C   UNL     1       1.802   8.497  18.416  0.00  0.00    +0.000 A 
ATOM     15  N   UNL     1       2.048   8.088  19.675  0.00  0.00    +0.000 NA
ATOM     16  C   UNL     1       1.421   8.784  20.634  0.00  0.00    +0.000 A 
ATOM     17  C   UNL     1       0.575   9.862  20.436  0.00  0.00    +0.000 A 
ATOM     18  C   UNL     1      -0.076  10.583  21.464  0.00  0.00    +0.000 A 
ATOM     19  C   UNL     1      -0.907  11.654  21.150  0.00  0.00    +0.000 A 
ATOM     20  C   UNL     1      -1.081  12.007  19.815  0.00  0.00    +0.000 A 
ATOM     21  C   UNL     1      -0.427  11.286  18.809  0.00  0.00    +0.000 A 
ATOM     22  C   UNL     1       0.403  10.207  19.094  0.00  0.00    +0.000 A 
ATOM     23  N   UNL     1       1.005   9.540  18.095  0.00  0.00    +0.000 NA
BRANCH  16  24
ATOM     24  O   UNL     1       1.702   8.334  21.890  0.00  0.00    +0.000 OA
ATOM     25  H   UNL     1       0.891   8.592  22.359  0.00  0.00    +0.000 HD
ENDBRANCH  16  24
ENDBRANCH  13  14
ENDBRANCH   4  13
BRANCH   4  26
ATOM     26  C   UNL     1       4.985   7.494  17.362  0.00  0.00    +0.000 C 
BRANCH  26  27
ATOM     27  C   UNL     1       5.713   6.527  16.466  0.00  0.00    +0.000 A 
ATOM     28  C   UNL     1       5.297   5.972  15.269  0.00  0.00    +0.000 A 
ATOM     29  C   UNL     1       6.220   5.013  14.759  0.00  0.00    +0.000 A 
ATOM     30  C   UNL     1       7.318   4.872  15.576  0.00  0.00    +0.000 A 
ATOM     31  S   UNL     1       7.244   5.907  16.934  0.00  0.00    +0.000 S 
ENDBRANCH  26  27
ENDBRANCH   4  26
TORSDOF 6
ENDMDL
MODEL 6
REMARK VINA RESULT:      -6.9      3.693      6.128
REMARK  Name = 
REMARK  6 active torsions:
REMARK  status: ('A' for Active; 'I' for Inactive)
REMARK    1  A    between atoms: N_3  and  C_4
REMARK    2  A    between atoms: N_11  and  C_12
REMARK    3  A    between atoms: N_11  and  C_24
REMARK    4  A    between atoms: C_12  and  C_13
REMARK    5  A    between atoms: C_15  and  O_16
REMARK    6  A    between atoms: C_24  and  C_25
REMARK                            x       y       z     vdW  Elec       q    Type
REMARK                         _______ _______ _______ _____ _____    ______ ____
ROOT
ATOM      1  O   UNL     1       1.953   9.214  17.282  0.00  0.00    +0.000 OA
ATOM      2  C   UNL     1       1.743   8.966  18.467  0.00  0.00    +0.000 C 
ATOM      3  N   UNL     1       2.175   7.808  19.075  0.00  0.00    +0.000 N 
ATOM      4  N   UNL     1       0.994   9.813  19.270  0.00  0.00    +0.000 N 
ATOM      5  H   UNL     1       1.515   7.405  19.726  0.00  0.00    +0.000 HD
ENDROOT
BRANCH   3   6
ATOM      6  C   UNL     1       2.972   6.840  18.410  0.00  0.00    +0.000 A 
ATOM      7  C   UNL     1       3.937   7.209  17.466  0.00  0.00    +0.000 A 
ATOM      8  C   UNL     1       4.721   6.231  16.844  0.00  0.00    +0.000 A 
ATOM      9  C   UNL     1       4.538   4.884  17.149  0.00  0.00    +0.000 A 
ATOM     10  C   UNL     1       3.577   4.505  18.085  0.00  0.00    +0.000 A 
ATOM     11  C   UNL     1       2.810   5.482  18.724  0.00  0.00    +0.000 A 
ATOM     12 CL   UNL     1       1.603   4.970  19.855  0.00  0.00    +0.000 Cl
ENDBRANCH   3   6
BRANCH   4  13
ATOM     13  C   UNL     1       0.927   9.743  20.740  0.00  0.00    +0.000 C 
BRANCH  13  14
ATOM     14  C   UNL     1       0.294  10.964  21.390  0.00  0.00    +0.000 A 
ATOM     15  N   UNL     1      -0.831  10.788  22.109  0.00  0.00    +0.000 NA
ATOM     16  C   UNL     1      -1.322  11.897  22.681  0.00  0.00    +0.000 A 
ATOM     17  C   UNL     1      -0.774  13.166  22.600  0.00  0.00    +0.000 A 
ATOM     18  C   UNL     1      -1.309  14.322  23.212  0.00  0.00    +0.000 A 
ATOM     19  C   UNL     1      -0.673  15.551  23.064  0.00  0.00    +0.000 A 
ATOM     20  C   UNL     1       0.495  15.622  22.312  0.00  0.00    +0.000 A 
ATOM     21  C   UNL     1       1.015  14.468  21.714  0.00  0.00    +0.000 A 
ATOM     22  C   UNL     1       0.396  13.228  21.840  0.00  0.00    +0.000 A 
ATOM     23  N   UNL     1       0.927  12.149  21.243  0.00  0.00    +0.000 NA
BRANCH  16  24
ATOM     24  O   UNL     1      -2.458  11.668  23.399  0.00  0.00    +0.000 OA
ATOM     25  H   UNL     1      -3.078  12.268  22.952  0.00  0.00    +0.000 HD
ENDBRANCH  16  24
ENDBRANCH  13  14
ENDBRANCH   4  13
BRANCH   4  26
ATOM     26  C   UNL     1       0.411  10.997  18.645  0.00  0.00    +0.000 C 
BRANCH  26  27
ATOM     27  C   UNL     1      -1.016  10.727  18.248  0.00  0.00    +0.000 A 
ATOM     28  C   UNL     1      -1.508   9.766  17.382  0.00  0.00    +0.000 A 
ATOM     29  C   UNL     1      -2.913   9.884  17.173  0.00  0.00    +0.000 A 
ATOM     30  C   UNL     1      -3.454  10.923  17.894  0.00  0.00    +0.000 A 
ATOM     31  S   UNL     1      -2.277  11.735  18.832  0.00  0.00    +0.000 S 
ENDBRANCH  26  27
ENDBRANCH   4  26
TORSDOF 6
ENDMDL
MODEL 7
REMARK VINA RESULT:      -6.8      2.124      5.216
REMARK  Name = 
REMARK  6 active torsions:
REMARK  status: ('A' for Active; 'I' for Inactive)
REMARK    1  A    between atoms: N_3  and  C_4
REMARK    2  A    between atoms: N_11  and  C_12
REMARK    3  A    between atoms: N_11  and  C_24
REMARK    4  A    between atoms: C_12  and  C_13
REMARK    5  A    between atoms: C_15  and  O_16
REMARK    6  A    between atoms: C_24  and  C_25
REMARK                            x       y       z     vdW  Elec       q    Type
REMARK                         _______ _______ _______ _____ _____    ______ ____
ROOT
ATOM      1  O   UNL     1       5.858   4.319  17.802  0.00  0.00    +0.000 OA
ATOM      2  C   UNL     1       4.855   4.922  17.426  0.00  0.00    +0.000 C 
ATOM      3  N   UNL     1       4.658   5.300  16.116  0.00  0.00    +0.000 N 
ATOM      4  N   UNL     1       3.869   5.326  18.314  0.00  0.00    +0.000 N 
ATOM      5  H   UNL     1       4.244   6.215  16.002  0.00  0.00    +0.000 HD
ENDROOT
BRANCH   3   6
ATOM      6  C   UNL     1       5.554   4.952  15.072  0.00  0.00    +0.000 A 
ATOM      7  C   UNL     1       5.190   4.053  14.063  0.00  0.00    +0.000 A 
ATOM      8  C   UNL     1       6.091   3.749  13.036  0.00  0.00    +0.000 A 
ATOM      9  C   UNL     1       7.359   4.326  13.018  0.00  0.00    +0.000 A 
ATOM     10  C   UNL     1       7.733   5.219  14.020  0.00  0.00    +0.000 A 
ATOM     11  C   UNL     1       6.827   5.542  15.033  0.00  0.00    +0.000 A 
ATOM     12 CL   UNL     1       7.340   6.629  16.280  0.00  0.00    +0.000 Cl
ENDBRANCH   3   6
BRANCH   4  13
ATOM     13  C   UNL     1       2.527   5.794  17.929  0.00  0.00    +0.000 C 
BRANCH  13  14
ATOM     14  C   UNL     1       2.171   7.169  18.475  0.00  0.00    +0.000 A 
ATOM     15  N   UNL     1       2.268   8.226  17.646  0.00  0.00    +0.000 NA
ATOM     16  C   UNL     1       1.911   9.403  18.178  0.00  0.00    +0.000 A 
ATOM     17  C   UNL     1       1.455   9.609  19.469  0.00  0.00    +0.000 A 
ATOM     18  C   UNL     1       1.083  10.861  20.010  0.00  0.00    +0.000 A 
ATOM     19  C   UNL     1       0.637  10.952  21.324  0.00  0.00    +0.000 A 
ATOM     20  C   UNL     1       0.557   9.795  22.093  0.00  0.00    +0.000 A 
ATOM     21  C   UNL     1       0.926   8.561  21.543  0.00  0.00    +0.000 A 
ATOM     22  C   UNL     1       1.382   8.443  20.234  0.00  0.00    +0.000 A 
ATOM     23  N   UNL     1       1.732   7.240  19.751  0.00  0.00    +0.000 NA
BRANCH  16  24
ATOM     24  O   UNL     1       2.024  10.441  17.301  0.00  0.00    +0.000 OA
ATOM     25  H   UNL     1       2.202   9.961  16.475  0.00  0.00    +0.000 HD
ENDBRANCH  16  24
ENDBRANCH  13  14
ENDBRANCH   4  13
BRANCH   4  26
ATOM     26  C   UNL     1       4.084   5.056  19.733  0.00  0.00    +0.000 C 
BRANCH  26  27
ATOM     27  C   UNL     1       3.076   4.055  20.231  0.00  0.00    +0.000 A 
ATOM     28  C   UNL     1       2.184   4.172  21.282  0.00  0.00    +0.000 A 
ATOM     29  C   UNL     1       1.457   2.969  21.521  0.00  0.00    +0.000 A 
ATOM     30  C   UNL     1       1.807   1.973  20.638  0.00  0.00    +0.000 A 
ATOM     31  S   UNL     1       2.987   2.495  19.517  0.00  0.00    +0.000 S 
ENDBRANCH  26  27
ENDBRANCH   4  26
TORSDOF 6
ENDMDL
MODEL 8
REMARK VINA RESULT:      -6.8      2.116      4.883
REMARK  Name = 
REMARK  6 active torsions:
REMARK  status: ('A' for Active; 'I' for Inactive)
REMARK    1  A    between atoms: N_3  and  C_4
REMARK    2  A    between atoms: N_11  and  C_12
REMARK    3  A    between atoms: N_11  and  C_24
REMARK    4  A    between atoms: C_12  and  C_13
REMARK    5  A    between atoms: C_15  and  O_16
REMARK    6  A    between atoms: C_24  and  C_25
REMARK                            x       y       z     vdW  Elec       q    Type
REMARK                         _______ _______ _______ _____ _____    ______ ____
ROOT
ATOM      1  O   UNL     1       4.461   5.065  18.733  0.00  0.00    +0.000 OA
ATOM      2  C   UNL     1       3.838   5.916  18.103  0.00  0.00    +0.000 C 
ATOM      3  N   UNL     1       4.170   6.285  16.817  0.00  0.00    +0.000 N 
ATOM      4  N   UNL     1       2.785   6.620  18.667  0.00  0.00    +0.000 N 
ATOM      5  H   UNL     1       4.091   7.276  16.632  0.00  0.00    +0.000 HD
ENDROOT
BRANCH   3   6
ATOM      6  C   UNL     1       5.205   5.655  16.079  0.00  0.00    +0.000 A 
ATOM      7  C   UNL     1       4.932   4.654  15.141  0.00  0.00    +0.000 A 
ATOM      8  C   UNL     1       5.975   4.068  14.415  0.00  0.00    +0.000 A 
ATOM      9  C   UNL     1       7.293   4.467  14.630  0.00  0.00    +0.000 A 
ATOM     10  C   UNL     1       7.577   5.460  15.565  0.00  0.00    +0.000 A 
ATOM     11  C   UNL     1       6.535   6.062  16.275  0.00  0.00    +0.000 A 
ATOM     12 CL   UNL     1       6.930   7.268  17.452  0.00  0.00    +0.000 Cl
ENDBRANCH   3   6
BRANCH   4  13
ATOM     13  C   UNL     1       1.819   7.440  17.917  0.00  0.00    +0.000 C 
BRANCH  13  14
ATOM     14  C   UNL     1       1.685   8.866  18.433  0.00  0.00    +0.000 A 
ATOM     15  N   UNL     1       2.235   9.858  17.708  0.00  0.00    +0.000 NA
ATOM     16  C   UNL     1       2.055  11.091  18.199  0.00  0.00    +0.000 A 
ATOM     17  C   UNL     1       1.362  11.416  19.353  0.00  0.00    +0.000 A 
ATOM     18  C   UNL     1       1.184  12.726  19.854  0.00  0.00    +0.000 A 
ATOM     19  C   UNL     1       0.466  12.936  21.027  0.00  0.00    +0.000 A 
ATOM     20  C   UNL     1      -0.077  11.842  21.693  0.00  0.00    +0.000 A 
ATOM     21  C   UNL     1       0.105  10.551  21.184  0.00  0.00    +0.000 A 
ATOM     22  C   UNL     1       0.824  10.312  20.017  0.00  0.00    +0.000 A 
ATOM     23  N   UNL     1       0.978   9.054  19.570  0.00  0.00    +0.000 NA
BRANCH  16  24
ATOM     24  O   UNL     1       2.627  12.061  17.430  0.00  0.00    +0.000 OA
ATOM     25  H   UNL     1       2.768  11.573  16.601  0.00  0.00    +0.000 HD
ENDBRANCH  16  24
ENDBRANCH  13  14
ENDBRANCH   4  13
BRANCH   4  26
ATOM     26  C   UNL     1       2.467   6.353  20.067  0.00  0.00    +0.000 C 
BRANCH  26  27
ATOM     27  C   UNL     1       1.963   4.943  20.227  0.00  0.00    +0.000 A 
ATOM     28  C   UNL     1       1.089   4.238  19.419  0.00  0.00    +0.000 A 
ATOM     29  C   UNL     1       0.763   2.956  19.951  0.00  0.00    +0.000 A 
ATOM     30  C   UNL     1       1.405   2.717  21.144  0.00  0.00    +0.000 A 
ATOM     31  S   UNL     1       2.412   4.020  21.604  0.00  0.00    +0.000 S 
ENDBRANCH  26  27
ENDBRANCH   4  26
TORSDOF 6
ENDMDL
MODEL 9
REMARK VINA RESULT:      -6.8      4.870      8.178
REMARK  Name = 
REMARK  6 active torsions:
REMARK  status: ('A' for Active; 'I' for Inactive)
REMARK    1  A    between atoms: N_3  and  C_4
REMARK    2  A    between atoms: N_11  and  C_12
REMARK    3  A    between atoms: N_11  and  C_24
REMARK    4  A    between atoms: C_12  and  C_13
REMARK    5  A    between atoms: C_15  and  O_16
REMARK    6  A    between atoms: C_24  and  C_25
REMARK                            x       y       z     vdW  Elec       q    Type
REMARK                         _______ _______ _______ _____ _____    ______ ____
ROOT
ATOM      1  O   UNL     1      -0.306   8.856  22.392  0.00  0.00    +0.000 OA
ATOM      2  C   UNL     1      -0.159   9.817  21.640  0.00  0.00    +0.000 C 
ATOM      3  N   UNL     1       0.647   9.774  20.523  0.00  0.00    +0.000 N 
ATOM      4  N   UNL     1      -0.749  11.045  21.898  0.00  0.00    +0.000 N 
ATOM      5  H   UNL     1       1.182  10.616  20.360  0.00  0.00    +0.000 HD
ENDROOT
BRANCH   3   6
ATOM      6  C   UNL     1       1.309   8.595  20.096  0.00  0.00    +0.000 A 
ATOM      7  C   UNL     1       1.396   7.465  20.917  0.00  0.00    +0.000 A 
ATOM      8  C   UNL     1       2.039   6.310  20.457  0.00  0.00    +0.000 A 
ATOM      9  C   UNL     1       2.608   6.281  19.185  0.00  0.00    +0.000 A 
ATOM     10  C   UNL     1       2.531   7.402  18.361  0.00  0.00    +0.000 A 
ATOM     11  C   UNL     1       1.871   8.548  18.810  0.00  0.00    +0.000 A 
ATOM     12 CL   UNL     1       1.826   9.932  17.771  0.00  0.00    +0.000 Cl
ENDBRANCH   3   6
BRANCH   4  13
ATOM     13  C   UNL     1      -0.859  12.149  20.930  0.00  0.00    +0.000 C 
BRANCH  13  14
ATOM     14  C   UNL     1      -1.845  11.888  19.801  0.00  0.00    +0.000 A 
ATOM     15  N   UNL     1      -3.048  12.490  19.857  0.00  0.00    +0.000 NA
ATOM     16  C   UNL     1      -3.858  12.244  18.819  0.00  0.00    +0.000 A 
ATOM     17  C   UNL     1      -3.561  11.452  17.723  0.00  0.00    +0.000 A 
ATOM     18  C   UNL     1      -4.432  11.206  16.637  0.00  0.00    +0.000 A 
ATOM     19  C   UNL     1      -4.027  10.390  15.585  0.00  0.00    +0.000 A 
ATOM     20  C   UNL     1      -2.754   9.828  15.615  0.00  0.00    +0.000 A 
ATOM     21  C   UNL     1      -1.901  10.083  16.696  0.00  0.00    +0.000 A 
ATOM     22  C   UNL     1      -2.283  10.889  17.764  0.00  0.00    +0.000 A 
ATOM     23  N   UNL     1      -1.434  11.100  18.783  0.00  0.00    +0.000 NA
BRANCH  16  24
ATOM     24  O   UNL     1      -5.062  12.877  18.919  0.00  0.00    +0.000 OA
ATOM     25  H   UNL     1      -5.232  12.790  19.872  0.00  0.00    +0.000 HD
ENDBRANCH  16  24
ENDBRANCH  13  14
ENDBRANCH   4  13
BRANCH   4  26
ATOM     26  C   UNL     1      -1.517  11.180  23.133  0.00  0.00    +0.000 C 
BRANCH  26  27
ATOM     27  C   UNL     1      -1.973  12.603  23.309  0.00  0.00    +0.000 A 
ATOM     28  C   UNL     1      -1.210  13.743  23.493  0.00  0.00    +0.000 A 
ATOM     29  C   UNL     1      -2.004  14.903  23.729  0.00  0.00    +0.000 A 
ATOM     30  C   UNL     1      -3.350  14.617  23.707  0.00  0.00    +0.000 A 
ATOM     31  S   UNL     1      -3.651  12.966  23.382  0.00  0.00    +0.000 S 
ENDBRANCH  26  27
ENDBRANCH   4  26
TORSDOF 6
ENDMDL
