MODEL 1
REMARK VINA RESULT:      -6.8      0.000      0.000
REMARK  Name = 
REMARK  4 active torsions:
REMARK  status: ('A' for Active; 'I' for Inactive)
REMARK    1  A    between atoms: C_2  and  C_3
REMARK    2  A    between atoms: C_8  and  C_10
REMARK    3  A    between atoms: C_10  and  N_11
REMARK    4  A    between atoms: N_11  and  C_12
REMARK                            x       y       z     vdW  Elec       q    Type
REMARK                         _______ _______ _______ _____ _____    ______ ____
ROOT
ATOM      1  C   UNL     1       1.548   4.028  19.991  0.00  0.00    +0.000 C 
ATOM      2  C   UNL     1       1.361   5.470  20.446  0.00  0.00    +0.000 C 
ATOM      3  C   UNL     1       2.620   6.073  19.912  0.00  0.00    +0.000 C 
ATOM      4  N   UNL     1       3.251   5.369  19.028  0.00  0.00    +0.000 NA
ATOM      5  N   UNL     1       2.572   4.179  18.940  0.00  0.00    +0.000 N 
ATOM      6  C   UNL     1       2.839   3.256  17.941  0.00  0.00    +0.000 C 
ATOM      7  O   UNL     1       2.231   2.184  17.872  0.00  0.00    +0.000 OA
ENDROOT
BRANCH   1   9
ATOM      8  N   UNL     1       2.506   2.528  22.128  0.00  0.00    +0.000 NA
ATOM      9  C   UNL     1       2.072   3.208  21.159  0.00  0.00    +0.000 C 
ENDBRANCH   1   9
BRANCH   6  10
ATOM     10  C   UNL     1       3.933   3.666  16.926  0.00  0.00    +0.000 C 
BRANCH  10  11
ATOM     11  N   UNL     1       5.283   3.796  17.525  0.00  0.00    +0.000 NA
ATOM     12  H   UNL     1       5.571   2.870  17.844  0.00  0.00    +0.000 HD
BRANCH  11  13
ATOM     13  C   UNL     1       6.304   4.319  16.598  0.00  0.00    +0.000 C 
ATOM     14  C   UNL     1       5.901   5.634  15.902  0.00  0.00    +0.000 C 
ATOM     15  C   UNL     1       5.824   6.819  16.865  0.00  0.00    +0.000 C 
ATOM     16  C   UNL     1       7.137   7.009  17.619  0.00  0.00    +0.000 C 
ATOM     17  C   UNL     1       7.578   5.728  18.323  0.00  0.00    +0.000 C 
ATOM     18  C   UNL     1       7.630   4.546  17.353  0.00  0.00    +0.000 C 
ENDBRANCH  11  13
ENDBRANCH  10  11
ENDBRANCH   6  10
TORSDOF 4
ENDMDL
MODEL 2
REMARK VINA RESULT:      -6.8      1.766      2.278
REMARK  Name = 
REMARK  4 active torsions:
REMARK  status: ('A' for Active; 'I' for Inactive)
REMARK    1  A    between atoms: C_2  and  C_3
REMARK    2  A    between atoms: C_8  and  C_10
REMARK    3  A    between atoms: C_10  and  N_11
REMARK    4  A    between atoms: N_11  and  C_12
REMARK                            x       y       z     vdW  Elec       q    Type
REMARK                         _______ _______ _______ _____ _____    ______ ____
ROOT
ATOM      1  C   UNL     1       2.106   2.235  19.675  0.00  0.00    +0.000 C 
ATOM      2  C   UNL     1       1.016   2.631  18.687  0.00  0.00    +0.000 C 
ATOM      3  C   UNL     1       1.511   3.984  18.286  0.00  0.00    +0.000 C 
ATOM      4  N   UNL     1       2.744   4.242  18.585  0.00  0.00    +0.000 NA
ATOM      5  N   UNL     1       3.190   3.165  19.309  0.00  0.00    +0.000 N 
ATOM      6  C   UNL     1       4.530   2.999  19.622  0.00  0.00    +0.000 C 
ATOM      7  O   UNL     1       4.925   2.032  20.281  0.00  0.00    +0.000 OA
ENDROOT
BRANCH   1   9
ATOM      8  N   UNL     1       1.193   2.713  22.258  0.00  0.00    +0.000 NA
ATOM      9  C   UNL     1       1.607   2.497  21.087  0.00  0.00    +0.000 C 
ENDBRANCH   1   9
BRANCH   6  10
ATOM     10  C   UNL     1       5.485   4.092  19.084  0.00  0.00    +0.000 C 
BRANCH  10  11
ATOM     11  N   UNL     1       5.938   3.854  17.692  0.00  0.00    +0.000 NA
ATOM     12  H   UNL     1       5.108   3.791  17.102  0.00  0.00    +0.000 HD
BRANCH  11  13
ATOM     13  C   UNL     1       6.822   4.907  17.160  0.00  0.00    +0.000 C 
ATOM     14  C   UNL     1       6.968   4.882  15.626  0.00  0.00    +0.000 C 
ATOM     15  C   UNL     1       5.679   5.262  14.896  0.00  0.00    +0.000 C 
ATOM     16  C   UNL     1       5.165   6.626  15.350  0.00  0.00    +0.000 C 
ATOM     17  C   UNL     1       5.008   6.698  16.866  0.00  0.00    +0.000 C 
ATOM     18  C   UNL     1       6.298   6.295  17.583  0.00  0.00    +0.000 C 
ENDBRANCH  11  13
ENDBRANCH  10  11
ENDBRANCH   6  10
TORSDOF 4
ENDMDL
MODEL 3
REMARK VINA RESULT:      -6.4      2.070      5.498
REMARK  Name = 
REMARK  4 active torsions:
REMARK  status: ('A' for Active; 'I' for Inactive)
REMARK    1  A    between atoms: C_2  and  C_3
REMARK    2  A    between atoms: C_8  and  C_10
REMARK    3  A    between atoms: C_10  and  N_11
REMARK    4  A    between atoms: N_11  and  C_12
REMARK                            x       y       z     vdW  Elec       q    Type
REMARK                         _______ _______ _______ _____ _____    ______ ____
ROOT
ATOM      1  C   UNL     1       6.304   6.067  17.650  0.00  0.00    +0.000 C 
ATOM      2  C   UNL     1       7.339   5.966  16.536  0.00  0.00    +0.000 C 
ATOM      3  C   UNL     1       6.986   4.625  15.978  0.00  0.00    +0.000 C 
ATOM      4  N   UNL     1       5.831   4.157  16.326  0.00  0.00    +0.000 NA
ATOM      5  N   UNL     1       5.319   5.051  17.233  0.00  0.00    +0.000 N 
ATOM      6  C   UNL     1       4.004   4.983  17.666  0.00  0.00    +0.000 C 
ATOM      7  O   UNL     1       3.552   5.786  18.487  0.00  0.00    +0.000 OA
ENDROOT
BRANCH   1   9
ATOM      8  N   UNL     1       7.508   5.373  20.060  0.00  0.00    +0.000 NA
ATOM      9  C   UNL     1       6.963   5.688  18.967  0.00  0.00    +0.000 C 
ENDBRANCH   1   9
BRANCH   6  10
ATOM     10  C   UNL     1       3.153   3.850  17.044  0.00  0.00    +0.000 C 
BRANCH  10  11
ATOM     11  N   UNL     1       1.824   3.685  17.682  0.00  0.00    +0.000 NA
ATOM     12  H   UNL     1       1.116   3.779  16.953  0.00  0.00    +0.000 HD
BRANCH  11  13
ATOM     13  C   UNL     1       1.640   2.389  18.361  0.00  0.00    +0.000 C 
ATOM     14  C   UNL     1       2.926   1.832  19.002  0.00  0.00    +0.000 C 
ATOM     15  C   UNL     1       3.406   2.660  20.195  0.00  0.00    +0.000 C 
ATOM     16  C   UNL     1       2.313   2.798  21.252  0.00  0.00    +0.000 C 
ATOM     17  C   UNL     1       1.017   3.344  20.660  0.00  0.00    +0.000 C 
ATOM     18  C   UNL     1       0.560   2.520  19.456  0.00  0.00    +0.000 C 
ENDBRANCH  11  13
ENDBRANCH  10  11
ENDBRANCH   6  10
TORSDOF 4
ENDMDL
MODEL 4
REMARK VINA RESULT:      -6.3      1.681      1.838
REMARK  Name = 
REMARK  4 active torsions:
REMARK  status: ('A' for Active; 'I' for Inactive)
REMARK    1  A    between atoms: C_2  and  C_3
REMARK    2  A    between atoms: C_8  and  C_10
REMARK    3  A    between atoms: C_10  and  N_11
REMARK    4  A    between atoms: N_11  and  C_12
REMARK                            x       y       z     vdW  Elec       q    Type
REMARK                         _______ _______ _______ _____ _____    ______ ____
ROOT
ATOM      1  C   UNL     1       2.104   2.207  19.689  0.00  0.00    +0.000 C 
ATOM      2  C   UNL     1       0.975   2.557  18.727  0.00  0.00    +0.000 C 
ATOM      3  C   UNL     1       1.427   3.911  18.282  0.00  0.00    +0.000 C 
ATOM      4  N   UNL     1       2.661   4.203  18.537  0.00  0.00    +0.000 NA
ATOM      5  N   UNL     1       3.155   3.153  19.270  0.00  0.00    +0.000 N 
ATOM      6  C   UNL     1       4.507   3.024  19.544  0.00  0.00    +0.000 C 
ATOM      7  O   UNL     1       4.944   2.081  20.210  0.00  0.00    +0.000 OA
ENDROOT
BRANCH   1   9
ATOM      8  N   UNL     1       1.261   2.723  22.289  0.00  0.00    +0.000 NA
ATOM      9  C   UNL     1       1.643   2.489  21.110  0.00  0.00    +0.000 C 
ENDBRANCH   1   9
BRANCH   6  10
ATOM     10  C   UNL     1       5.419   4.125  18.953  0.00  0.00    +0.000 C 
BRANCH  10  11
ATOM     11  N   UNL     1       5.422   4.164  17.470  0.00  0.00    +0.000 NA
ATOM     12  H   UNL     1       4.753   4.877  17.177  0.00  0.00    +0.000 HD
BRANCH  11  13
ATOM     13  C   UNL     1       6.737   4.472  16.879  0.00  0.00    +0.000 C 
ATOM     14  C   UNL     1       6.751   5.752  16.021  0.00  0.00    +0.000 C 
ATOM     15  C   UNL     1       6.556   7.026  16.846  0.00  0.00    +0.000 C 
ATOM     16  C   UNL     1       7.595   7.131  17.959  0.00  0.00    +0.000 C 
ATOM     17  C   UNL     1       7.619   5.881  18.834  0.00  0.00    +0.000 C 
ATOM     18  C   UNL     1       7.793   4.614  17.995  0.00  0.00    +0.000 C 
ENDBRANCH  11  13
ENDBRANCH  10  11
ENDBRANCH   6  10
TORSDOF 4
ENDMDL
MODEL 5
REMARK VINA RESULT:      -6.2      1.800      2.589
REMARK  Name = 
REMARK  4 active torsions:
REMARK  status: ('A' for Active; 'I' for Inactive)
REMARK    1  A    between atoms: C_2  and  C_3
REMARK    2  A    between atoms: C_8  and  C_10
REMARK    3  A    between atoms: C_10  and  N_11
REMARK    4  A    between atoms: N_11  and  C_12
REMARK                            x       y       z     vdW  Elec       q    Type
REMARK                         _______ _______ _______ _____ _____    ______ ____
ROOT
ATOM      1  C   UNL     1       2.172   2.302  19.712  0.00  0.00    +0.000 C 
ATOM      2  C   UNL     1       0.970   2.534  18.804  0.00  0.00    +0.000 C 
ATOM      3  C   UNL     1       1.186   3.971  18.454  0.00  0.00    +0.000 C 
ATOM      4  N   UNL     1       2.367   4.439  18.703  0.00  0.00    +0.000 NA
ATOM      5  N   UNL     1       3.045   3.432  19.343  0.00  0.00    +0.000 N 
ATOM      6  C   UNL     1       4.409   3.502  19.578  0.00  0.00    +0.000 C 
ATOM      7  O   UNL     1       5.012   2.597  20.161  0.00  0.00    +0.000 OA
ENDROOT
BRANCH   1   9
ATOM      8  N   UNL     1       1.344   2.489  22.361  0.00  0.00    +0.000 NA
ATOM      9  C   UNL     1       1.720   2.404  21.160  0.00  0.00    +0.000 C 
ENDBRANCH   1   9
BRANCH   6  10
ATOM     10  C   UNL     1       5.114   4.775  19.052  0.00  0.00    +0.000 C 
BRANCH  10  11
ATOM     11  N   UNL     1       4.720   5.147  17.671  0.00  0.00    +0.000 NA
ATOM     12  H   UNL     1       3.778   5.536  17.712  0.00  0.00    +0.000 HD
BRANCH  11  13
ATOM     13  C   UNL     1       5.615   6.132  17.036  0.00  0.00    +0.000 C 
ATOM     14  C   UNL     1       7.109   5.766  17.123  0.00  0.00    +0.000 C 
ATOM     15  C   UNL     1       7.473   4.539  16.285  0.00  0.00    +0.000 C 
ATOM     16  C   UNL     1       7.063   4.721  14.826  0.00  0.00    +0.000 C 
ATOM     17  C   UNL     1       5.588   5.089  14.691  0.00  0.00    +0.000 C 
ATOM     18  C   UNL     1       5.234   6.304  15.550  0.00  0.00    +0.000 C 
ENDBRANCH  11  13
ENDBRANCH  10  11
ENDBRANCH   6  10
TORSDOF 4
ENDMDL
MODEL 6
REMARK VINA RESULT:      -6.2      1.792      5.863
REMARK  Name = 
REMARK  4 active torsions:
REMARK  status: ('A' for Active; 'I' for Inactive)
REMARK    1  A    between atoms: C_2  and  C_3
REMARK    2  A    between atoms: C_8  and  C_10
REMARK    3  A    between atoms: C_10  and  N_11
REMARK    4  A    between atoms: N_11  and  C_12
REMARK                            x       y       z     vdW  Elec       q    Type
REMARK                         _______ _______ _______ _____ _____    ______ ____
ROOT
ATOM      1  C   UNL     1       6.833   4.338  16.782  0.00  0.00    +0.000 C 
ATOM      2  C   UNL     1       7.940   4.606  17.793  0.00  0.00    +0.000 C 
ATOM      3  C   UNL     1       7.395   5.833  18.451  0.00  0.00    +0.000 C 
ATOM      4  N   UNL     1       6.140   6.073  18.242  0.00  0.00    +0.000 NA
ATOM      5  N   UNL     1       5.719   5.124  17.345  0.00  0.00    +0.000 N 
ATOM      6  C   UNL     1       4.378   4.943  17.046  0.00  0.00    +0.000 C 
ATOM      7  O   UNL     1       4.006   4.093  16.232  0.00  0.00    +0.000 OA
ENDROOT
BRANCH   1   9
ATOM      8  N   UNL     1       7.619   5.331  14.305  0.00  0.00    +0.000 NA
ATOM      9  C   UNL     1       7.263   4.881  15.428  0.00  0.00    +0.000 C 
ENDBRANCH   1   9
BRANCH   6  10
ATOM     10  C   UNL     1       3.393   5.865  17.805  0.00  0.00    +0.000 C 
BRANCH  10  11
ATOM     11  N   UNL     1       3.080   5.400  19.178  0.00  0.00    +0.000 NA
ATOM     12  H   UNL     1       3.262   6.175  19.816  0.00  0.00    +0.000 HD
BRANCH  11  13
ATOM     13  C   UNL     1       1.687   4.950  19.358  0.00  0.00    +0.000 C 
ATOM     14  C   UNL     1       1.368   3.613  18.661  0.00  0.00    +0.000 C 
ATOM     15  C   UNL     1       2.087   2.422  19.296  0.00  0.00    +0.000 C 
ATOM     16  C   UNL     1       1.780   2.320  20.788  0.00  0.00    +0.000 C 
ATOM     17  C   UNL     1       2.079   3.625  21.520  0.00  0.00    +0.000 C 
ATOM     18  C   UNL     1       1.372   4.811  20.862  0.00  0.00    +0.000 C 
ENDBRANCH  11  13
ENDBRANCH  10  11
ENDBRANCH   6  10
TORSDOF 4
ENDMDL
MODEL 7
REMARK VINA RESULT:      -6.2      2.362      5.917
REMARK  Name = 
REMARK  4 active torsions:
REMARK  status: ('A' for Active; 'I' for Inactive)
REMARK    1  A    between atoms: C_2  and  C_3
REMARK    2  A    between atoms: C_8  and  C_10
REMARK    3  A    between atoms: C_10  and  N_11
REMARK    4  A    between atoms: N_11  and  C_12
REMARK                            x       y       z     vdW  Elec       q    Type
REMARK                         _______ _______ _______ _____ _____    ______ ____
ROOT
ATOM      1  C   UNL     1       7.048   6.169  17.419  0.00  0.00    +0.000 C 
ATOM      2  C   UNL     1       7.794   5.228  18.356  0.00  0.00    +0.000 C 
ATOM      3  C   UNL     1       6.812   5.155  19.481  0.00  0.00    +0.000 C 
ATOM      4  N   UNL     1       5.617   5.572  19.213  0.00  0.00    +0.000 NA
ATOM      5  N   UNL     1       5.670   6.073  17.936  0.00  0.00    +0.000 N 
ATOM      6  C   UNL     1       4.524   6.419  17.238  0.00  0.00    +0.000 C 
ATOM      7  O   UNL     1       4.578   6.877  16.093  0.00  0.00    +0.000 OA
ENDROOT
BRANCH   1   9
ATOM      8  N   UNL     1       8.065   8.739  17.728  0.00  0.00    +0.000 NA
ATOM      9  C   UNL     1       7.604   7.574  17.588  0.00  0.00    +0.000 C 
ENDBRANCH   1   9
BRANCH   6  10
ATOM     10  C   UNL     1       3.188   6.182  17.983  0.00  0.00    +0.000 C 
BRANCH  10  11
ATOM     11  N   UNL     1       2.959   4.765  18.357  0.00  0.00    +0.000 NA
ATOM     12  H   UNL     1       3.593   4.541  19.124  0.00  0.00    +0.000 HD
BRANCH  11  13
ATOM     13  C   UNL     1       1.577   4.472  18.780  0.00  0.00    +0.000 C 
ATOM     14  C   UNL     1       1.181   2.989  18.635  0.00  0.00    +0.000 C 
ATOM     15  C   UNL     1       1.928   2.074  19.607  0.00  0.00    +0.000 C 
ATOM     16  C   UNL     1       1.739   2.526  21.052  0.00  0.00    +0.000 C 
ATOM     17  C   UNL     1       2.116   3.992  21.243  0.00  0.00    +0.000 C 
ATOM     18  C   UNL     1       1.379   4.894  20.252  0.00  0.00    +0.000 C 
ENDBRANCH  11  13
ENDBRANCH  10  11
ENDBRANCH   6  10
TORSDOF 4
ENDMDL
MODEL 8
REMARK VINA RESULT:      -6.2      1.784      2.305
REMARK  Name = 
REMARK  4 active torsions:
REMARK  status: ('A' for Active; 'I' for Inactive)
REMARK    1  A    between atoms: C_2  and  C_3
REMARK    2  A    between atoms: C_8  and  C_10
REMARK    3  A    between atoms: C_10  and  N_11
REMARK    4  A    between atoms: N_11  and  C_12
REMARK                            x       y       z     vdW  Elec       q    Type
REMARK                         _______ _______ _______ _____ _____    ______ ____
ROOT
ATOM      1  C   UNL     1       1.666   2.713  19.550  0.00  0.00    +0.000 C 
ATOM      2  C   UNL     1       1.546   2.636  21.067  0.00  0.00    +0.000 C 
ATOM      3  C   UNL     1       2.313   3.861  21.448  0.00  0.00    +0.000 C 
ATOM      4  N   UNL     1       2.525   4.711  20.496  0.00  0.00    +0.000 NA
ATOM      5  N   UNL     1       2.037   4.127  19.353  0.00  0.00    +0.000 N 
ATOM      6  C   UNL     1       1.904   4.835  18.169  0.00  0.00    +0.000 C 
ATOM      7  O   UNL     1       1.472   4.302  17.142  0.00  0.00    +0.000 OA
ENDROOT
BRANCH   1   9
ATOM      8  N   UNL     1       3.703   1.010  18.721  0.00  0.00    +0.000 NA
ATOM      9  C   UNL     1       2.779   1.783  19.097  0.00  0.00    +0.000 C 
ENDBRANCH   1   9
BRANCH   6  10
ATOM     10  C   UNL     1       2.321   6.324  18.228  0.00  0.00    +0.000 C 
BRANCH  10  11
ATOM     11  N   UNL     1       3.781   6.528  18.386  0.00  0.00    +0.000 NA
ATOM     12  H   UNL     1       4.020   6.326  19.357  0.00  0.00    +0.000 HD
BRANCH  11  13
ATOM     13  C   UNL     1       4.605   5.679  17.507  0.00  0.00    +0.000 C 
ATOM     14  C   UNL     1       5.523   6.471  16.555  0.00  0.00    +0.000 C 
ATOM     15  C   UNL     1       6.642   7.214  17.285  0.00  0.00    +0.000 C 
ATOM     16  C   UNL     1       7.474   6.262  18.141  0.00  0.00    +0.000 C 
ATOM     17  C   UNL     1       6.605   5.453  19.099  0.00  0.00    +0.000 C 
ATOM     18  C   UNL     1       5.477   4.732  18.359  0.00  0.00    +0.000 C 
ENDBRANCH  11  13
ENDBRANCH  10  11
ENDBRANCH   6  10
TORSDOF 4
ENDMDL
MODEL 9
REMARK VINA RESULT:      -6.1      2.027      5.792
REMARK  Name = 
REMARK  4 active torsions:
REMARK  status: ('A' for Active; 'I' for Inactive)
REMARK    1  A    between atoms: C_2  and  C_3
REMARK    2  A    between atoms: C_8  and  C_10
REMARK    3  A    between atoms: C_10  and  N_11
REMARK    4  A    between atoms: N_11  and  C_12
REMARK                            x       y       z     vdW  Elec       q    Type
REMARK                         _______ _______ _______ _____ _____    ______ ____
ROOT
ATOM      1  C   UNL     1       6.360   5.402  16.376  0.00  0.00    +0.000 C 
ATOM      2  C   UNL     1       6.946   5.189  14.986  0.00  0.00    +0.000 C 
ATOM      3  C   UNL     1       6.267   3.909  14.614  0.00  0.00    +0.000 C 
ATOM      4  N   UNL     1       5.244   3.585  15.338  0.00  0.00    +0.000 NA
ATOM      5  N   UNL     1       5.175   4.524  16.337  0.00  0.00    +0.000 N 
ATOM      6  C   UNL     1       4.080   4.615  17.181  0.00  0.00    +0.000 C 
ATOM      7  O   UNL     1       4.027   5.457  18.083  0.00  0.00    +0.000 OA
ENDROOT
BRANCH   1   9
ATOM      8  N   UNL     1       8.200   4.531  18.270  0.00  0.00    +0.000 NA
ATOM      9  C   UNL     1       7.365   4.926  17.411  0.00  0.00    +0.000 C 
ENDBRANCH   1   9
BRANCH   6  10
ATOM     10  C   UNL     1       2.939   3.606  16.909  0.00  0.00    +0.000 C 
BRANCH  10  11
ATOM     11  N   UNL     1       1.740   3.820  17.756  0.00  0.00    +0.000 NA
ATOM     12  H   UNL     1       0.965   4.065  17.139  0.00  0.00    +0.000 HD
BRANCH  11  13
ATOM     13  C   UNL     1       1.356   2.646  18.561  0.00  0.00    +0.000 C 
ATOM     14  C   UNL     1       2.554   1.856  19.124  0.00  0.00    +0.000 C 
ATOM     15  C   UNL     1       3.332   2.631  20.189  0.00  0.00    +0.000 C 
ATOM     16  C   UNL     1       2.419   3.079  21.328  0.00  0.00    +0.000 C 
ATOM     17  C   UNL     1       1.215   3.864  20.815  0.00  0.00    +0.000 C 
ATOM     18  C   UNL     1       0.458   3.087  19.736  0.00  0.00    +0.000 C 
ENDBRANCH  11  13
ENDBRANCH  10  11
ENDBRANCH   6  10
TORSDOF 4
ENDMDL
