MODEL 1
REMARK VINA RESULT:      -7.3      0.000      0.000
REMARK  Name = 
REMARK  7 active torsions:
REMARK  status: ('A' for Active; 'I' for Inactive)
REMARK    1  A    between atoms: C_2  and  C_20
REMARK    2  A    between atoms: N_3  and  C_4
REMARK    3  A    between atoms: C_4  and  C_5
REMARK    4  A    between atoms: C_5  and  C_6
REMARK    5  A    between atoms: C_5  and  C_10
REMARK    6  A    between atoms: C_6  and  C_7
REMARK    7  A    between atoms: C_13  and  C_14
REMARK                            x       y       z     vdW  Elec       q    Type
REMARK                         _______ _______ _______ _____ _____    ______ ____
ROOT
ATOM      1  C   UNL     1       6.336   4.527  17.342  0.00  0.00    +0.000 C 
ENDROOT
BRANCH   1   2
ATOM      2  C   UNL     1       6.930   5.902  17.565  0.00  0.00    +0.000 A 
ATOM      3  C   UNL     1       7.862   6.134  18.553  0.00  0.00    +0.000 A 
ATOM      4  N   UNL     1       8.416   7.339  18.800  0.00  0.00    +0.000 NA
ATOM      5  C   UNL     1       8.019   8.374  18.023  0.00  0.00    +0.000 A 
ATOM      6  N   UNL     1       7.111   8.245  17.023  0.00  0.00    +0.000 NA
ATOM      7  C   UNL     1       6.599   7.017  16.820  0.00  0.00    +0.000 A 
BRANCH   5   8
ATOM      8  C   UNL     1       8.607   9.767  18.276  0.00  0.00    +0.000 C 
ATOM      9  F   UNL     1       7.791  10.798  17.907  0.00  0.00    +0.000 F 
ATOM     10  F   UNL     1       8.895   9.992  19.597  0.00  0.00    +0.000 F 
ATOM     11  F   UNL     1       9.783   9.979  17.607  0.00  0.00    +0.000 F 
ENDBRANCH   5   8
ENDBRANCH   1   2
BRANCH   1  12
ATOM     12  C   UNL     1       5.480   4.008  18.517  0.00  0.00    +0.000 C 
BRANCH  12  15
ATOM     13  O   UNL     1       2.826   4.542  17.758  0.00  0.00    +0.000 OA
ATOM     14  C   UNL     1       3.311   5.214  18.661  0.00  0.00    +0.000 C 
ATOM     15  N   UNL     1       4.615   5.038  19.077  0.00  0.00    +0.000 N 
ATOM     16  H   UNL     1       5.010   5.688  19.746  0.00  0.00    +0.000 HD
BRANCH  14  17
ATOM     17  C   UNL     1       2.503   6.250  19.369  0.00  0.00    +0.000 A 
ATOM     18  C   UNL     1       2.435   7.560  18.851  0.00  0.00    +0.000 A 
ATOM     19 CL   UNL     1       3.119   8.030  17.329  0.00  0.00    +0.000 Cl
ATOM     20  C   UNL     1       1.736   8.567  19.536  0.00  0.00    +0.000 A 
ATOM     21  C   UNL     1       1.079   8.286  20.728  0.00  0.00    +0.000 A 
ATOM     22  C   UNL     1       1.115   6.993  21.239  0.00  0.00    +0.000 A 
ATOM     23  C   UNL     1       1.826   5.982  20.574  0.00  0.00    +0.000 A 
ATOM     24 CL   UNL     1       1.821   4.435  21.354  0.00  0.00    +0.000 Cl
ENDBRANCH  14  17
ENDBRANCH  12  15
ENDBRANCH   1  12
BRANCH   1  25
ATOM     25  C   UNL     1       5.589   4.436  15.990  0.00  0.00    +0.000 C 
BRANCH  25  26
ATOM     26  C   UNL     1       6.398   3.853  14.861  0.00  0.00    +0.000 C 
ATOM     27  C   UNL     1       5.864   3.925  13.453  0.00  0.00    +0.000 C 
ATOM     28  C   UNL     1       7.057   4.749  13.846  0.00  0.00    +0.000 C 
ENDBRANCH  25  26
ENDBRANCH   1  25
TORSDOF 7
ENDMDL
MODEL 2
REMARK VINA RESULT:      -7.2      3.769      5.891
REMARK  Name = 
REMARK  7 active torsions:
REMARK  status: ('A' for Active; 'I' for Inactive)
REMARK    1  A    between atoms: C_2  and  C_20
REMARK    2  A    between atoms: N_3  and  C_4
REMARK    3  A    between atoms: C_4  and  C_5
REMARK    4  A    between atoms: C_5  and  C_6
REMARK    5  A    between atoms: C_5  and  C_10
REMARK    6  A    between atoms: C_6  and  C_7
REMARK    7  A    between atoms: C_13  and  C_14
REMARK                            x       y       z     vdW  Elec       q    Type
REMARK                         _______ _______ _______ _____ _____    ______ ____
ROOT
ATOM      1  C   UNL     1       2.794   6.977  18.523  0.00  0.00    +0.000 C 
ENDROOT
BRANCH   1   2
ATOM      2  C   UNL     1       3.795   6.335  17.586  0.00  0.00    +0.000 A 
ATOM      3  C   UNL     1       4.741   7.083  16.920  0.00  0.00    +0.000 A 
ATOM      4  N   UNL     1       5.650   6.565  16.069  0.00  0.00    +0.000 NA
ATOM      5  C   UNL     1       5.614   5.226  15.863  0.00  0.00    +0.000 A 
ATOM      6  N   UNL     1       4.723   4.407  16.475  0.00  0.00    +0.000 NA
ATOM      7  C   UNL     1       3.846   4.981  17.319  0.00  0.00    +0.000 A 
BRANCH   5   8
ATOM      8  C   UNL     1       6.615   4.593  14.891  0.00  0.00    +0.000 C 
ATOM      9  F   UNL     1       6.213   3.396  14.370  0.00  0.00    +0.000 F 
ATOM     10  F   UNL     1       6.879   5.387  13.805  0.00  0.00    +0.000 F 
ATOM     11  F   UNL     1       7.833   4.347  15.466  0.00  0.00    +0.000 F 
ENDBRANCH   5   8
ENDBRANCH   1   2
BRANCH   1  12
ATOM     12  C   UNL     1       2.206   8.309  18.009  0.00  0.00    +0.000 C 
BRANCH  12  15
ATOM     13  O   UNL     1      -0.172   9.810  18.035  0.00  0.00    +0.000 OA
ATOM     14  C   UNL     1       0.545   9.852  19.028  0.00  0.00    +0.000 C 
ATOM     15  N   UNL     1       1.742   9.169  19.089  0.00  0.00    +0.000 N 
ATOM     16  H   UNL     1       2.355   9.321  19.881  0.00  0.00    +0.000 HD
BRANCH  14  17
ATOM     17  C   UNL     1       0.144  10.636  20.233  0.00  0.00    +0.000 A 
ATOM     18  C   UNL     1      -0.336   9.966  21.378  0.00  0.00    +0.000 A 
ATOM     19 CL   UNL     1      -0.357   8.240  21.544  0.00  0.00    +0.000 Cl
ATOM     20  C   UNL     1      -0.781  10.686  22.497  0.00  0.00    +0.000 A 
ATOM     21  C   UNL     1      -0.735  12.075  22.508  0.00  0.00    +0.000 A 
ATOM     22  C   UNL     1      -0.239  12.751  21.398  0.00  0.00    +0.000 A 
ATOM     23  C   UNL     1       0.190  12.043  20.265  0.00  0.00    +0.000 A 
ATOM     24 CL   UNL     1       0.736  13.020  18.942  0.00  0.00    +0.000 Cl
ENDBRANCH  14  17
ENDBRANCH  12  15
ENDBRANCH   1  12
BRANCH   1  25
ATOM     25  C   UNL     1       1.691   5.981  18.956  0.00  0.00    +0.000 C 
BRANCH  25  26
ATOM     26  C   UNL     1       1.808   5.488  20.375  0.00  0.00    +0.000 C 
ATOM     27  C   UNL     1       1.182   4.170  20.756  0.00  0.00    +0.000 C 
ATOM     28  C   UNL     1       2.678   4.304  20.707  0.00  0.00    +0.000 C 
ENDBRANCH  25  26
ENDBRANCH   1  25
TORSDOF 7
ENDMDL
MODEL 3
REMARK VINA RESULT:      -7.2      3.774      5.601
REMARK  Name = 
REMARK  7 active torsions:
REMARK  status: ('A' for Active; 'I' for Inactive)
REMARK    1  A    between atoms: C_2  and  C_20
REMARK    2  A    between atoms: N_3  and  C_4
REMARK    3  A    between atoms: C_4  and  C_5
REMARK    4  A    between atoms: C_5  and  C_6
REMARK    5  A    between atoms: C_5  and  C_10
REMARK    6  A    between atoms: C_6  and  C_7
REMARK    7  A    between atoms: C_13  and  C_14
REMARK                            x       y       z     vdW  Elec       q    Type
REMARK                         _______ _______ _______ _____ _____    ______ ____
ROOT
ATOM      1  C   UNL     1       2.769   6.978  18.515  0.00  0.00    +0.000 C 
ENDROOT
BRANCH   1   2
ATOM      2  C   UNL     1       3.785   6.363  17.576  0.00  0.00    +0.000 A 
ATOM      3  C   UNL     1       3.851   5.001  17.377  0.00  0.00    +0.000 A 
ATOM      4  N   UNL     1       4.740   4.401  16.560  0.00  0.00    +0.000 NA
ATOM      5  C   UNL     1       5.617   5.199  15.904  0.00  0.00    +0.000 A 
ATOM      6  N   UNL     1       5.626   6.549  16.031  0.00  0.00    +0.000 NA
ATOM      7  C   UNL     1       4.711   7.091  16.855  0.00  0.00    +0.000 A 
BRANCH   5   8
ATOM      8  C   UNL     1       6.658   4.562  14.977  0.00  0.00    +0.000 C 
ATOM      9  F   UNL     1       7.062   5.365  13.949  0.00  0.00    +0.000 F 
ATOM     10  F   UNL     1       7.809   4.209  15.631  0.00  0.00    +0.000 F 
ATOM     11  F   UNL     1       6.210   3.412  14.384  0.00  0.00    +0.000 F 
ENDBRANCH   5   8
ENDBRANCH   1   2
BRANCH   1  12
ATOM     12  C   UNL     1       2.148   8.295  18.003  0.00  0.00    +0.000 C 
BRANCH  12  15
ATOM     13  O   UNL     1      -0.197   9.848  17.953  0.00  0.00    +0.000 OA
ATOM     14  C   UNL     1       0.468   9.845  18.982  0.00  0.00    +0.000 C 
ATOM     15  N   UNL     1       1.647   9.135  19.084  0.00  0.00    +0.000 N 
ATOM     16  H   UNL     1       2.221   9.250  19.910  0.00  0.00    +0.000 HD
BRANCH  14  17
ATOM     17  C   UNL     1       0.023  10.603  20.189  0.00  0.00    +0.000 A 
ATOM     18  C   UNL     1       0.016  12.013  20.167  0.00  0.00    +0.000 A 
ATOM     19 CL   UNL     1       0.355  12.956  18.752  0.00  0.00    +0.000 Cl
ATOM     20  C   UNL     1      -0.335  12.747  21.311  0.00  0.00    +0.000 A 
ATOM     21  C   UNL     1      -0.705  12.096  22.482  0.00  0.00    +0.000 A 
ATOM     22  C   UNL     1      -0.728  10.706  22.512  0.00  0.00    +0.000 A 
ATOM     23  C   UNL     1      -0.360   9.961  21.381  0.00  0.00    +0.000 A 
ATOM     24 CL   UNL     1      -0.391   8.241  21.583  0.00  0.00    +0.000 Cl
ENDBRANCH  14  17
ENDBRANCH  12  15
ENDBRANCH   1  12
BRANCH   1  25
ATOM     25  C   UNL     1       1.692   5.955  18.947  0.00  0.00    +0.000 C 
BRANCH  25  26
ATOM     26  C   UNL     1       1.798   5.493  20.377  0.00  0.00    +0.000 C 
ATOM     27  C   UNL     1       1.239   4.148  20.766  0.00  0.00    +0.000 C 
ATOM     28  C   UNL     1       2.726   4.367  20.754  0.00  0.00    +0.000 C 
ENDBRANCH  25  26
ENDBRANCH   1  25
TORSDOF 7
ENDMDL
MODEL 4
REMARK VINA RESULT:      -7.1      3.822      5.533
REMARK  Name = 
REMARK  7 active torsions:
REMARK  status: ('A' for Active; 'I' for Inactive)
REMARK    1  A    between atoms: C_2  and  C_20
REMARK    2  A    between atoms: N_3  and  C_4
REMARK    3  A    between atoms: C_4  and  C_5
REMARK    4  A    between atoms: C_5  and  C_6
REMARK    5  A    between atoms: C_5  and  C_10
REMARK    6  A    between atoms: C_6  and  C_7
REMARK    7  A    between atoms: C_13  and  C_14
REMARK                            x       y       z     vdW  Elec       q    Type
REMARK                         _______ _______ _______ _____ _____    ______ ____
ROOT
ATOM      1  C   UNL     1       6.713   6.522  17.872  0.00  0.00    +0.000 C 
ENDROOT
BRANCH   1   2
ATOM      2  C   UNL     1       6.515   5.783  16.565  0.00  0.00    +0.000 A 
ATOM      3  C   UNL     1       5.476   6.089  15.714  0.00  0.00    +0.000 A 
ATOM      4  N   UNL     1       5.250   5.458  14.543  0.00  0.00    +0.000 NA
ATOM      5  C   UNL     1       6.103   4.463  14.200  0.00  0.00    +0.000 A 
ATOM      6  N   UNL     1       7.157   4.093  14.970  0.00  0.00    +0.000 NA
ATOM      7  C   UNL     1       7.336   4.764  16.122  0.00  0.00    +0.000 A 
BRANCH   5   8
ATOM      8  C   UNL     1       5.876   3.705  12.888  0.00  0.00    +0.000 C 
ATOM      9  F   UNL     1       6.631   4.154  11.841  0.00  0.00    +0.000 F 
ATOM     10  F   UNL     1       6.160   2.368  12.988  0.00  0.00    +0.000 F 
ATOM     11  F   UNL     1       4.580   3.770  12.452  0.00  0.00    +0.000 F 
ENDBRANCH   5   8
ENDBRANCH   1   2
BRANCH   1  12
ATOM     12  C   UNL     1       6.600   5.631  19.128  0.00  0.00    +0.000 C 
BRANCH  12  15
ATOM     13  O   UNL     1       3.929   6.509  19.069  0.00  0.00    +0.000 OA
ATOM     14  C   UNL     1       4.137   5.301  19.053  0.00  0.00    +0.000 C 
ATOM     15  N   UNL     1       5.415   4.784  19.108  0.00  0.00    +0.000 N 
ATOM     16  H   UNL     1       5.537   3.783  19.206  0.00  0.00    +0.000 HD
BRANCH  14  17
ATOM     17  C   UNL     1       3.010   4.327  18.955  0.00  0.00    +0.000 A 
ATOM     18  C   UNL     1       1.898   4.454  19.813  0.00  0.00    +0.000 A 
ATOM     19 CL   UNL     1       1.669   5.784  20.901  0.00  0.00    +0.000 Cl
ATOM     20  C   UNL     1       0.858   3.511  19.785  0.00  0.00    +0.000 A 
ATOM     21  C   UNL     1       0.896   2.445  18.894  0.00  0.00    +0.000 A 
ATOM     22  C   UNL     1       1.973   2.320  18.023  0.00  0.00    +0.000 A 
ATOM     23  C   UNL     1       3.027   3.244  18.055  0.00  0.00    +0.000 A 
ATOM     24 CL   UNL     1       4.322   2.932  16.947  0.00  0.00    +0.000 Cl
ENDBRANCH  14  17
ENDBRANCH  12  15
ENDBRANCH   1  12
BRANCH   1  25
ATOM     25  C   UNL     1       8.012   7.362  17.867  0.00  0.00    +0.000 C 
BRANCH  25  26
ATOM     26  C   UNL     1       7.822   8.819  18.202  0.00  0.00    +0.000 C 
ATOM     27  C   UNL     1       8.883   9.543  18.992  0.00  0.00    +0.000 C 
ATOM     28  C   UNL     1       8.669   9.876  17.542  0.00  0.00    +0.000 C 
ENDBRANCH  25  26
ENDBRANCH   1  25
TORSDOF 7
ENDMDL
MODEL 5
REMARK VINA RESULT:      -7.1      4.089      5.800
REMARK  Name = 
REMARK  7 active torsions:
REMARK  status: ('A' for Active; 'I' for Inactive)
REMARK    1  A    between atoms: C_2  and  C_20
REMARK    2  A    between atoms: N_3  and  C_4
REMARK    3  A    between atoms: C_4  and  C_5
REMARK    4  A    between atoms: C_5  and  C_6
REMARK    5  A    between atoms: C_5  and  C_10
REMARK    6  A    between atoms: C_6  and  C_7
REMARK    7  A    between atoms: C_13  and  C_14
REMARK                            x       y       z     vdW  Elec       q    Type
REMARK                         _______ _______ _______ _____ _____    ______ ____
ROOT
ATOM      1  C   UNL     1       6.526   5.990  17.079  0.00  0.00    +0.000 C 
ENDROOT
BRANCH   1   2
ATOM      2  C   UNL     1       6.314   5.251  15.774  0.00  0.00    +0.000 A 
ATOM      3  C   UNL     1       7.352   5.024  14.897  0.00  0.00    +0.000 A 
ATOM      4  N   UNL     1       7.218   4.380  13.719  0.00  0.00    +0.000 NA
ATOM      5  C   UNL     1       5.980   3.938  13.393  0.00  0.00    +0.000 A 
ATOM      6  N   UNL     1       4.898   4.108  14.192  0.00  0.00    +0.000 NA
ATOM      7  C   UNL     1       5.095   4.752  15.357  0.00  0.00    +0.000 A 
BRANCH   5   8
ATOM      8  C   UNL     1       5.774   3.215  12.057  0.00  0.00    +0.000 C 
ATOM      9  F   UNL     1       5.493   1.883  12.175  0.00  0.00    +0.000 F 
ATOM     10  F   UNL     1       4.741   3.736  11.322  0.00  0.00    +0.000 F 
ATOM     11  F   UNL     1       6.871   3.282  11.240  0.00  0.00    +0.000 F 
ENDBRANCH   5   8
ENDBRANCH   1   2
BRANCH   1  12
ATOM     12  C   UNL     1       6.718   5.071  18.304  0.00  0.00    +0.000 C 
BRANCH  12  15
ATOM     13  O   UNL     1       4.961   2.900  17.970  0.00  0.00    +0.000 OA
ATOM     14  C   UNL     1       4.687   3.735  18.824  0.00  0.00    +0.000 C 
ATOM     15  N   UNL     1       5.477   4.846  19.034  0.00  0.00    +0.000 N 
ATOM     16  H   UNL     1       5.155   5.567  19.669  0.00  0.00    +0.000 HD
BRANCH  14  17
ATOM     17  C   UNL     1       3.483   3.580  19.693  0.00  0.00    +0.000 A 
ATOM     18  C   UNL     1       3.477   2.607  20.714  0.00  0.00    +0.000 A 
ATOM     19 CL   UNL     1       4.859   1.651  21.141  0.00  0.00    +0.000 Cl
ATOM     20  C   UNL     1       2.332   2.398  21.500  0.00  0.00    +0.000 A 
ATOM     21  C   UNL     1       1.190   3.164  21.301  0.00  0.00    +0.000 A 
ATOM     22  C   UNL     1       1.188   4.146  20.316  0.00  0.00    +0.000 A 
ATOM     23  C   UNL     1       2.319   4.351  19.511  0.00  0.00    +0.000 A 
ATOM     24 CL   UNL     1       2.153   5.574  18.295  0.00  0.00    +0.000 Cl
ENDBRANCH  14  17
ENDBRANCH  12  15
ENDBRANCH   1  12
BRANCH   1  25
ATOM     25  C   UNL     1       7.647   7.050  16.963  0.00  0.00    +0.000 C 
BRANCH  25  26
ATOM     26  C   UNL     1       7.483   8.242  17.869  0.00  0.00    +0.000 C 
ATOM     27  C   UNL     1       8.673   8.761  18.636  0.00  0.00    +0.000 C 
ATOM     28  C   UNL     1       8.095   9.571  17.510  0.00  0.00    +0.000 C 
ENDBRANCH  25  26
ENDBRANCH   1  25
TORSDOF 7
ENDMDL
MODEL 6
REMARK VINA RESULT:      -7.0      3.879      5.910
REMARK  Name = 
REMARK  7 active torsions:
REMARK  status: ('A' for Active; 'I' for Inactive)
REMARK    1  A    between atoms: C_2  and  C_20
REMARK    2  A    between atoms: N_3  and  C_4
REMARK    3  A    between atoms: C_4  and  C_5
REMARK    4  A    between atoms: C_5  and  C_6
REMARK    5  A    between atoms: C_5  and  C_10
REMARK    6  A    between atoms: C_6  and  C_7
REMARK    7  A    between atoms: C_13  and  C_14
REMARK                            x       y       z     vdW  Elec       q    Type
REMARK                         _______ _______ _______ _____ _____    ______ ____
ROOT
ATOM      1  C   UNL     1       3.392   6.600  18.710  0.00  0.00    +0.000 C 
ENDROOT
BRANCH   1   2
ATOM      2  C   UNL     1       4.108   5.997  17.520  0.00  0.00    +0.000 A 
ATOM      3  C   UNL     1       4.764   6.783  16.598  0.00  0.00    +0.000 A 
ATOM      4  N   UNL     1       5.410   6.300  15.517  0.00  0.00    +0.000 NA
ATOM      5  C   UNL     1       5.401   4.956  15.340  0.00  0.00    +0.000 A 
ATOM      6  N   UNL     1       4.787   4.101  16.195  0.00  0.00    +0.000 NA
ATOM      7  C   UNL     1       4.165   4.642  17.258  0.00  0.00    +0.000 A 
BRANCH   5   8
ATOM      8  C   UNL     1       6.106   4.360  14.117  0.00  0.00    +0.000 C 
ATOM      9  F   UNL     1       6.693   3.148  14.341  0.00  0.00    +0.000 F 
ATOM     10  F   UNL     1       5.260   4.160  13.058  0.00  0.00    +0.000 F 
ATOM     11  F   UNL     1       7.106   5.162  13.636  0.00  0.00    +0.000 F 
ENDBRANCH   5   8
ENDBRANCH   1   2
BRANCH   1  12
ATOM     12  C   UNL     1       2.086   7.342  18.355  0.00  0.00    +0.000 C 
BRANCH  12  15
ATOM     13  O   UNL     1       0.424   9.527  17.741  0.00  0.00    +0.000 OA
ATOM     14  C   UNL     1       1.010   9.535  18.817  0.00  0.00    +0.000 C 
ATOM     15  N   UNL     1       1.866   8.519  19.186  0.00  0.00    +0.000 N 
ATOM     16  H   UNL     1       2.416   8.620  20.031  0.00  0.00    +0.000 HD
BRANCH  14  17
ATOM     17  C   UNL     1       0.810  10.647  19.793  0.00  0.00    +0.000 A 
ATOM     18  C   UNL     1       0.055  10.424  20.964  0.00  0.00    +0.000 A 
ATOM     19 CL   UNL     1      -0.550   8.870  21.437  0.00  0.00    +0.000 Cl
ATOM     20  C   UNL     1      -0.201  11.472  21.862  0.00  0.00    +0.000 A 
ATOM     21  C   UNL     1       0.304  12.745  21.626  0.00  0.00    +0.000 A 
ATOM     22  C   UNL     1       1.072  12.975  20.490  0.00  0.00    +0.000 A 
ATOM     23  C   UNL     1       1.319  11.941  19.574  0.00  0.00    +0.000 A 
ATOM     24 CL   UNL     1       2.251  12.388  18.183  0.00  0.00    +0.000 Cl
ENDBRANCH  14  17
ENDBRANCH  12  15
ENDBRANCH   1  12
BRANCH   1  25
ATOM     25  C   UNL     1       3.186   5.566  19.843  0.00  0.00    +0.000 C 
BRANCH  25  26
ATOM     26  C   UNL     1       1.766   5.091  20.011  0.00  0.00    +0.000 C 
ATOM     27  C   UNL     1       1.350   3.771  19.412  0.00  0.00    +0.000 C 
ATOM     28  C   UNL     1       1.449   3.919  20.904  0.00  0.00    +0.000 C 
ENDBRANCH  25  26
ENDBRANCH   1  25
TORSDOF 7
ENDMDL
MODEL 7
REMARK VINA RESULT:      -6.9      3.836      5.664
REMARK  Name = 
REMARK  7 active torsions:
REMARK  status: ('A' for Active; 'I' for Inactive)
REMARK    1  A    between atoms: C_2  and  C_20
REMARK    2  A    between atoms: N_3  and  C_4
REMARK    3  A    between atoms: C_4  and  C_5
REMARK    4  A    between atoms: C_5  and  C_6
REMARK    5  A    between atoms: C_5  and  C_10
REMARK    6  A    between atoms: C_6  and  C_7
REMARK    7  A    between atoms: C_13  and  C_14
REMARK                            x       y       z     vdW  Elec       q    Type
REMARK                         _______ _______ _______ _____ _____    ______ ____
ROOT
ATOM      1  C   UNL     1       2.815   6.868  18.582  0.00  0.00    +0.000 C 
ENDROOT
BRANCH   1   2
ATOM      2  C   UNL     1       3.804   6.281  17.597  0.00  0.00    +0.000 A 
ATOM      3  C   UNL     1       3.819   4.934  17.305  0.00  0.00    +0.000 A 
ATOM      4  N   UNL     1       4.682   4.359  16.443  0.00  0.00    +0.000 NA
ATOM      5  C   UNL     1       5.586   5.167  15.839  0.00  0.00    +0.000 A 
ATOM      6  N   UNL     1       5.647   6.504  16.057  0.00  0.00    +0.000 NA
ATOM      7  C   UNL     1       4.755   7.022  16.922  0.00  0.00    +0.000 A 
BRANCH   5   8
ATOM      8  C   UNL     1       6.599   4.556  14.864  0.00  0.00    +0.000 C 
ATOM      9  F   UNL     1       6.192   3.386  14.289  0.00  0.00    +0.000 F 
ATOM     10  F   UNL     1       6.899   5.386  13.816  0.00  0.00    +0.000 F 
ATOM     11  F   UNL     1       7.801   4.270  15.455  0.00  0.00    +0.000 F 
ENDBRANCH   5   8
ENDBRANCH   1   2
BRANCH   1  12
ATOM     12  C   UNL     1       2.221   8.226  18.151  0.00  0.00    +0.000 C 
BRANCH  12  15
ATOM     13  O   UNL     1       1.756  10.971  18.545  0.00  0.00    +0.000 OA
ATOM     14  C   UNL     1       1.182  10.180  19.284  0.00  0.00    +0.000 C 
ATOM     15  N   UNL     1       1.375   8.818  19.179  0.00  0.00    +0.000 N 
ATOM     16  H   UNL     1       0.970   8.208  19.879  0.00  0.00    +0.000 HD
BRANCH  14  17
ATOM     17  C   UNL     1       0.228  10.655  20.329  0.00  0.00    +0.000 A 
ATOM     18  C   UNL     1      -0.755  11.611  19.998  0.00  0.00    +0.000 A 
ATOM     19 CL   UNL     1      -1.038  12.180  18.385  0.00  0.00    +0.000 Cl
ATOM     20  C   UNL     1      -1.619  12.121  20.979  0.00  0.00    +0.000 A 
ATOM     21  C   UNL     1      -1.537  11.677  22.294  0.00  0.00    +0.000 A 
ATOM     22  C   UNL     1      -0.591  10.715  22.631  0.00  0.00    +0.000 A 
ATOM     23  C   UNL     1       0.292  10.212  21.664  0.00  0.00    +0.000 A 
ATOM     24 CL   UNL     1       1.447   9.056  22.242  0.00  0.00    +0.000 Cl
ENDBRANCH  14  17
ENDBRANCH  12  15
ENDBRANCH   1  12
BRANCH   1  25
ATOM     25  C   UNL     1       1.718   5.848  18.971  0.00  0.00    +0.000 C 
BRANCH  25  26
ATOM     26  C   UNL     1       1.820   5.320  20.378  0.00  0.00    +0.000 C 
ATOM     27  C   UNL     1       1.143   4.020  20.733  0.00  0.00    +0.000 C 
ATOM     28  C   UNL     1       2.643   4.094  20.681  0.00  0.00    +0.000 C 
ENDBRANCH  25  26
ENDBRANCH   1  25
TORSDOF 7
ENDMDL
MODEL 8
REMARK VINA RESULT:      -6.9      5.355      8.087
REMARK  Name = 
REMARK  7 active torsions:
REMARK  status: ('A' for Active; 'I' for Inactive)
REMARK    1  A    between atoms: C_2  and  C_20
REMARK    2  A    between atoms: N_3  and  C_4
REMARK    3  A    between atoms: C_4  and  C_5
REMARK    4  A    between atoms: C_5  and  C_6
REMARK    5  A    between atoms: C_5  and  C_10
REMARK    6  A    between atoms: C_6  and  C_7
REMARK    7  A    between atoms: C_13  and  C_14
REMARK                            x       y       z     vdW  Elec       q    Type
REMARK                         _______ _______ _______ _____ _____    ______ ____
ROOT
ATOM      1  C   UNL     1       1.359   9.263  19.733  0.00  0.00    +0.000 C 
ENDROOT
BRANCH   1   2
ATOM      2  C   UNL     1       1.972   7.925  19.377  0.00  0.00    +0.000 A 
ATOM      3  C   UNL     1       1.939   6.861  20.253  0.00  0.00    +0.000 A 
ATOM      4  N   UNL     1       2.476   5.652  19.992  0.00  0.00    +0.000 NA
ATOM      5  C   UNL     1       3.085   5.491  18.792  0.00  0.00    +0.000 A 
ATOM      6  N   UNL     1       3.164   6.476  17.864  0.00  0.00    +0.000 NA
ATOM      7  C   UNL     1       2.604   7.658  18.179  0.00  0.00    +0.000 A 
BRANCH   5   8
ATOM      8  C   UNL     1       3.725   4.139  18.456  0.00  0.00    +0.000 C 
ATOM      9  F   UNL     1       3.254   3.093  19.198  0.00  0.00    +0.000 F 
ATOM     10  F   UNL     1       3.535   3.768  17.150  0.00  0.00    +0.000 F 
ATOM     11  F   UNL     1       5.082   4.132  18.642  0.00  0.00    +0.000 F 
ENDBRANCH   5   8
ENDBRANCH   1   2
BRANCH   1  12
ATOM     12  C   UNL     1       0.889  10.088  18.515  0.00  0.00    +0.000 C 
BRANCH  12  15
ATOM     13  O   UNL     1      -0.465  12.539  18.254  0.00  0.00    +0.000 OA
ATOM     14  C   UNL     1      -1.137  11.518  18.333  0.00  0.00    +0.000 C 
ATOM     15  N   UNL     1      -0.556  10.277  18.492  0.00  0.00    +0.000 N 
ATOM     16  H   UNL     1      -1.149   9.474  18.667  0.00  0.00    +0.000 HD
BRANCH  14  17
ATOM     17  C   UNL     1      -2.626  11.568  18.245  0.00  0.00    +0.000 A 
ATOM     18  C   UNL     1      -3.274  11.120  17.074  0.00  0.00    +0.000 A 
ATOM     19 CL   UNL     1      -2.452  10.357  15.752  0.00  0.00    +0.000 Cl
ATOM     20  C   UNL     1      -4.668  11.219  16.943  0.00  0.00    +0.000 A 
ATOM     21  C   UNL     1      -5.439  11.741  17.975  0.00  0.00    +0.000 A 
ATOM     22  C   UNL     1      -4.819  12.162  19.146  0.00  0.00    +0.000 A 
ATOM     23  C   UNL     1      -3.425  12.087  19.281  0.00  0.00    +0.000 A 
ATOM     24 CL   UNL     1      -2.790  12.693  20.775  0.00  0.00    +0.000 Cl
ENDBRANCH  14  17
ENDBRANCH  12  15
ENDBRANCH   1  12
BRANCH   1  25
ATOM     25  C   UNL     1       0.252   9.122  20.805  0.00  0.00    +0.000 C 
BRANCH  25  26
ATOM     26  C   UNL     1       0.469   9.946  22.047  0.00  0.00    +0.000 C 
ATOM     27  C   UNL     1      -0.712  10.603  22.716  0.00  0.00    +0.000 C 
ATOM     28  C   UNL     1      -0.010   9.456  23.388  0.00  0.00    +0.000 C 
ENDBRANCH  25  26
ENDBRANCH   1  25
TORSDOF 7
ENDMDL
MODEL 9
REMARK VINA RESULT:      -6.8      3.829      5.863
REMARK  Name = 
REMARK  7 active torsions:
REMARK  status: ('A' for Active; 'I' for Inactive)
REMARK    1  A    between atoms: C_2  and  C_20
REMARK    2  A    between atoms: N_3  and  C_4
REMARK    3  A    between atoms: C_4  and  C_5
REMARK    4  A    between atoms: C_5  and  C_6
REMARK    5  A    between atoms: C_5  and  C_10
REMARK    6  A    between atoms: C_6  and  C_7
REMARK    7  A    between atoms: C_13  and  C_14
REMARK                            x       y       z     vdW  Elec       q    Type
REMARK                         _______ _______ _______ _____ _____    ______ ____
ROOT
ATOM      1  C   UNL     1       2.780   6.897  18.652  0.00  0.00    +0.000 C 
ENDROOT
BRANCH   1   2
ATOM      2  C   UNL     1       3.776   6.311  17.673  0.00  0.00    +0.000 A 
ATOM      3  C   UNL     1       3.924   4.949  17.524  0.00  0.00    +0.000 A 
ATOM      4  N   UNL     1       4.800   4.374  16.675  0.00  0.00    +0.000 NA
ATOM      5  C   UNL     1       5.577   5.200  15.934  0.00  0.00    +0.000 A 
ATOM      6  N   UNL     1       5.501   6.551  16.007  0.00  0.00    +0.000 NA
ATOM      7  C   UNL     1       4.603   7.067  16.866  0.00  0.00    +0.000 A 
BRANCH   5   8
ATOM      8  C   UNL     1       6.600   4.593  14.967  0.00  0.00    +0.000 C 
ATOM      9  F   UNL     1       6.947   5.411  13.929  0.00  0.00    +0.000 F 
ATOM     10  F   UNL     1       7.783   4.266  15.578  0.00  0.00    +0.000 F 
ATOM     11  F   UNL     1       6.160   3.435  14.383  0.00  0.00    +0.000 F 
ENDBRANCH   5   8
ENDBRANCH   1   2
BRANCH   1  12
ATOM     12  C   UNL     1       2.183   8.251  18.214  0.00  0.00    +0.000 C 
BRANCH  12  15
ATOM     13  O   UNL     1       1.752  11.006  18.587  0.00  0.00    +0.000 OA
ATOM     14  C   UNL     1       1.184  10.227  19.344  0.00  0.00    +0.000 C 
ATOM     15  N   UNL     1       1.361   8.862  19.250  0.00  0.00    +0.000 N 
ATOM     16  H   UNL     1       0.964   8.264  19.964  0.00  0.00    +0.000 HD
BRANCH  14  17
ATOM     17  C   UNL     1       0.253  10.723  20.401  0.00  0.00    +0.000 A 
ATOM     18  C   UNL     1       0.333  10.197  21.707  0.00  0.00    +0.000 A 
ATOM     19 CL   UNL     1       1.564   9.093  22.227  0.00  0.00    +0.000 Cl
ATOM     20  C   UNL     1      -0.575  10.599  22.699  0.00  0.00    +0.000 A 
ATOM     21  C   UNL     1      -1.557  11.542  22.418  0.00  0.00    +0.000 A 
ATOM     22  C   UNL     1      -1.632  12.090  21.143  0.00  0.00    +0.000 A 
ATOM     23  C   UNL     1      -0.743  11.682  20.137  0.00  0.00    +0.000 A 
ATOM     24 CL   UNL     1      -0.989  12.415  18.586  0.00  0.00    +0.000 Cl
ENDBRANCH  14  17
ENDBRANCH  12  15
ENDBRANCH   1  12
BRANCH   1  25
ATOM     25  C   UNL     1       1.685   5.875  19.039  0.00  0.00    +0.000 C 
BRANCH  25  26
ATOM     26  C   UNL     1       1.746   5.396  20.466  0.00  0.00    +0.000 C 
ATOM     27  C   UNL     1       1.244   4.015  20.808  0.00  0.00    +0.000 C 
ATOM     28  C   UNL     1       2.715   4.316  20.873  0.00  0.00    +0.000 C 
ENDBRANCH  25  26
ENDBRANCH   1  25
TORSDOF 7
ENDMDL
