MODEL 1
REMARK VINA RESULT:      -7.4      0.000      0.000
REMARK  Name = 
REMARK  3 active torsions:
REMARK  status: ('A' for Active; 'I' for Inactive)
REMARK    1  A    between atoms: C_5  and  C_6
REMARK    2  A    between atoms: C_6  and  C_7
REMARK    3  A    between atoms: C_14  and  N_15
REMARK                            x       y       z     vdW  Elec       q    Type
REMARK                         _______ _______ _______ _____ _____    ______ ____
ROOT
ATOM      1  N   UNL     1       7.732   5.165  14.590  0.00  0.00    +0.000 N 
ATOM      2  C   UNL     1       6.756   5.293  15.558  0.00  0.00    +0.000 A 
ATOM      3  N   UNL     1       5.754   6.140  15.321  0.00  0.00    +0.000 NA
ATOM      4  C   UNL     1       4.848   6.278  16.308  0.00  0.00    +0.000 A 
ATOM      5  C   UNL     1       4.916   5.626  17.522  0.00  0.00    +0.000 A 
ATOM      6  C   UNL     1       6.002   4.779  17.651  0.00  0.00    +0.000 A 
ATOM      7  N   UNL     1       6.927   4.618  16.694  0.00  0.00    +0.000 NA
ATOM      8  H   UNL     1       7.760   6.005  14.031  0.00  0.00    +0.000 HD
ATOM      9  H   UNL     1       8.594   4.877  15.031  0.00  0.00    +0.000 HD
ENDROOT
BRANCH   6  10
ATOM     10  N   UNL     1       6.263   4.075  18.824  0.00  0.00    +0.000 N 
ATOM     11  H   UNL     1       6.938   3.330  18.678  0.00  0.00    +0.000 HD
ATOM     12  H   UNL     1       6.604   4.748  19.506  0.00  0.00    +0.000 HD
ENDBRANCH   6  10
BRANCH   5  13
ATOM     13  C   UNL     1       3.875   5.855  18.586  0.00  0.00    +0.000 C 
BRANCH  13  14
ATOM     14  C   UNL     1       2.834   4.754  18.677  0.00  0.00    +0.000 A 
ATOM     15  C   UNL     1       2.867   3.712  17.730  0.00  0.00    +0.000 A 
ATOM     16  C   UNL     1       1.987   2.630  17.814  0.00  0.00    +0.000 A 
ATOM     17  C   UNL     1       1.063   2.564  18.850  0.00  0.00    +0.000 A 
ATOM     18  C   UNL     1       0.992   3.600  19.778  0.00  0.00    +0.000 A 
ATOM     19  C   UNL     1       1.855   4.696  19.683  0.00  0.00    +0.000 A 
ATOM     20 CL   UNL     1       1.617   5.964  20.830  0.00  0.00    +0.000 Cl
ENDBRANCH  13  14
ENDBRANCH   5  13
TORSDOF 3
ENDMDL
MODEL 2
REMARK VINA RESULT:      -7.3      1.176      1.221
REMARK  Name = 
REMARK  3 active torsions:
REMARK  status: ('A' for Active; 'I' for Inactive)
REMARK    1  A    between atoms: C_5  and  C_6
REMARK    2  A    between atoms: C_6  and  C_7
REMARK    3  A    between atoms: C_14  and  N_15
REMARK                            x       y       z     vdW  Elec       q    Type
REMARK                         _______ _______ _______ _____ _____    ______ ____
ROOT
ATOM      1  N   UNL     1       7.171   5.123  13.872  0.00  0.00    +0.000 N 
ATOM      2  C   UNL     1       6.662   5.119  15.155  0.00  0.00    +0.000 A 
ATOM      3  N   UNL     1       5.433   5.601  15.337  0.00  0.00    +0.000 NA
ATOM      4  C   UNL     1       4.989   5.628  16.608  0.00  0.00    +0.000 A 
ATOM      5  C   UNL     1       5.728   5.217  17.698  0.00  0.00    +0.000 A 
ATOM      6  C   UNL     1       6.988   4.743  17.383  0.00  0.00    +0.000 A 
ATOM      7  N   UNL     1       7.468   4.703  16.132  0.00  0.00    +0.000 NA
ATOM      8  H   UNL     1       6.709   5.841  13.331  0.00  0.00    +0.000 HD
ATOM      9  H   UNL     1       8.180   5.163  13.920  0.00  0.00    +0.000 HD
ENDROOT
BRANCH   6  10
ATOM     10  N   UNL     1       7.895   4.331  18.357  0.00  0.00    +0.000 N 
ATOM     11  H   UNL     1       8.167   5.093  18.970  0.00  0.00    +0.000 HD
ATOM     12  H   UNL     1       7.450   3.581  18.881  0.00  0.00    +0.000 HD
ENDBRANCH   6  10
BRANCH   5  13
ATOM     13  C   UNL     1       5.167   5.304  19.094  0.00  0.00    +0.000 C 
BRANCH  13  14
ATOM     14  C   UNL     1       3.880   4.526  19.291  0.00  0.00    +0.000 A 
ATOM     15  C   UNL     1       3.914   3.122  19.178  0.00  0.00    +0.000 A 
ATOM     16  C   UNL     1       2.778   2.348  19.431  0.00  0.00    +0.000 A 
ATOM     17  C   UNL     1       1.589   2.961  19.808  0.00  0.00    +0.000 A 
ATOM     18  C   UNL     1       1.525   4.349  19.894  0.00  0.00    +0.000 A 
ATOM     19  C   UNL     1       2.654   5.128  19.618  0.00  0.00    +0.000 A 
ATOM     20 CL   UNL     1       2.436   6.839  19.665  0.00  0.00    +0.000 Cl
ENDBRANCH  13  14
ENDBRANCH   5  13
TORSDOF 3
ENDMDL
MODEL 3
REMARK VINA RESULT:      -7.3      1.586      2.585
REMARK  Name = 
REMARK  3 active torsions:
REMARK  status: ('A' for Active; 'I' for Inactive)
REMARK    1  A    between atoms: C_5  and  C_6
REMARK    2  A    between atoms: C_6  and  C_7
REMARK    3  A    between atoms: C_14  and  N_15
REMARK                            x       y       z     vdW  Elec       q    Type
REMARK                         _______ _______ _______ _____ _____    ______ ____
ROOT
ATOM      1  N   UNL     1       8.363   6.904  18.979  0.00  0.00    +0.000 N 
ATOM      2  C   UNL     1       7.279   6.235  18.447  0.00  0.00    +0.000 A 
ATOM      3  N   UNL     1       6.880   5.118  19.055  0.00  0.00    +0.000 NA
ATOM      4  C   UNL     1       5.852   4.465  18.480  0.00  0.00    +0.000 A 
ATOM      5  C   UNL     1       5.228   4.868  17.317  0.00  0.00    +0.000 A 
ATOM      6  C   UNL     1       5.734   6.037  16.777  0.00  0.00    +0.000 A 
ATOM      7  N   UNL     1       6.758   6.714  17.318  0.00  0.00    +0.000 NA
ATOM      8  H   UNL     1       8.934   6.254  19.501  0.00  0.00    +0.000 HD
ATOM      9  H   UNL     1       8.819   7.426  18.243  0.00  0.00    +0.000 HD
ENDROOT
BRANCH   6  10
ATOM     10  N   UNL     1       5.264   6.570  15.580  0.00  0.00    +0.000 N 
ATOM     11  H   UNL     1       5.036   7.557  15.666  0.00  0.00    +0.000 HD
ATOM     12  H   UNL     1       5.988   6.421  14.882  0.00  0.00    +0.000 HD
ENDBRANCH   6  10
BRANCH   5  13
ATOM     13  C   UNL     1       4.099   4.066  16.722  0.00  0.00    +0.000 C 
BRANCH  13  14
ATOM     14  C   UNL     1       3.017   3.693  17.717  0.00  0.00    +0.000 A 
ATOM     15  C   UNL     1       2.778   2.329  17.977  0.00  0.00    +0.000 A 
ATOM     16  C   UNL     1       1.852   1.928  18.944  0.00  0.00    +0.000 A 
ATOM     17  C   UNL     1       1.152   2.882  19.674  0.00  0.00    +0.000 A 
ATOM     18  C   UNL     1       1.349   4.234  19.409  0.00  0.00    +0.000 A 
ATOM     19  C   UNL     1       2.258   4.639  18.426  0.00  0.00    +0.000 A 
ATOM     20 CL   UNL     1       2.353   6.334  18.118  0.00  0.00    +0.000 Cl
ENDBRANCH  13  14
ENDBRANCH   5  13
TORSDOF 3
ENDMDL
MODEL 4
REMARK VINA RESULT:      -7.3      1.431      2.513
REMARK  Name = 
REMARK  3 active torsions:
REMARK  status: ('A' for Active; 'I' for Inactive)
REMARK    1  A    between atoms: C_5  and  C_6
REMARK    2  A    between atoms: C_6  and  C_7
REMARK    3  A    between atoms: C_14  and  N_15
REMARK                            x       y       z     vdW  Elec       q    Type
REMARK                         _______ _______ _______ _____ _____    ______ ____
ROOT
ATOM      1  N   UNL     1       8.540   5.545  19.692  0.00  0.00    +0.000 N 
ATOM      2  C   UNL     1       7.254   5.606  19.194  0.00  0.00    +0.000 A 
ATOM      3  N   UNL     1       6.295   4.974  19.869  0.00  0.00    +0.000 NA
ATOM      4  C   UNL     1       5.063   5.013  19.327  0.00  0.00    +0.000 A 
ATOM      5  C   UNL     1       4.758   5.634  18.134  0.00  0.00    +0.000 A 
ATOM      6  C   UNL     1       5.835   6.251  17.524  0.00  0.00    +0.000 A 
ATOM      7  N   UNL     1       7.077   6.231  18.030  0.00  0.00    +0.000 NA
ATOM      8  H   UNL     1       8.637   4.717  20.262  0.00  0.00    +0.000 HD
ATOM      9  H   UNL     1       9.192   5.656  18.928  0.00  0.00    +0.000 HD
ENDROOT
BRANCH   6  10
ATOM     10  N   UNL     1       5.730   6.886  16.289  0.00  0.00    +0.000 N 
ATOM     11  H   UNL     1       6.483   6.622  15.660  0.00  0.00    +0.000 HD
ATOM     12  H   UNL     1       4.824   6.635  15.901  0.00  0.00    +0.000 HD
ENDBRANCH   6  10
BRANCH   5  13
ATOM     13  C   UNL     1       3.357   5.611  17.581  0.00  0.00    +0.000 C 
BRANCH  13  14
ATOM     14  C   UNL     1       2.405   4.712  18.349  0.00  0.00    +0.000 A 
ATOM     15  C   UNL     1       2.117   3.434  17.832  0.00  0.00    +0.000 A 
ATOM     16  C   UNL     1       1.314   2.533  18.537  0.00  0.00    +0.000 A 
ATOM     17  C   UNL     1       0.791   2.889  19.775  0.00  0.00    +0.000 A 
ATOM     18  C   UNL     1       1.037   4.160  20.288  0.00  0.00    +0.000 A 
ATOM     19  C   UNL     1       1.820   5.073  19.573  0.00  0.00    +0.000 A 
ATOM     20 CL   UNL     1       1.982   6.648  20.259  0.00  0.00    +0.000 Cl
ENDBRANCH  13  14
ENDBRANCH   5  13
TORSDOF 3
ENDMDL
MODEL 5
REMARK VINA RESULT:      -7.2      3.181      5.601
REMARK  Name = 
REMARK  3 active torsions:
REMARK  status: ('A' for Active; 'I' for Inactive)
REMARK    1  A    between atoms: C_5  and  C_6
REMARK    2  A    between atoms: C_6  and  C_7
REMARK    3  A    between atoms: C_14  and  N_15
REMARK                            x       y       z     vdW  Elec       q    Type
REMARK                         _______ _______ _______ _____ _____    ______ ____
ROOT
ATOM      1  N   UNL     1       0.423   3.023  20.242  0.00  0.00    +0.000 N 
ATOM      2  C   UNL     1       1.514   3.269  19.434  0.00  0.00    +0.000 A 
ATOM      3  N   UNL     1       1.634   4.487  18.906  0.00  0.00    +0.000 NA
ATOM      4  C   UNL     1       2.682   4.676  18.082  0.00  0.00    +0.000 A 
ATOM      5  C   UNL     1       3.595   3.697  17.749  0.00  0.00    +0.000 A 
ATOM      6  C   UNL     1       3.364   2.475  18.354  0.00  0.00    +0.000 A 
ATOM      7  N   UNL     1       2.329   2.247  19.177  0.00  0.00    +0.000 NA
ATOM      8  H   UNL     1      -0.322   3.661  20.002  0.00  0.00    +0.000 HD
ATOM      9  H   UNL     1       0.209   2.035  20.212  0.00  0.00    +0.000 HD
ENDROOT
BRANCH   6  10
ATOM     10  N   UNL     1       4.151   1.355  18.100  0.00  0.00    +0.000 N 
ATOM     11  H   UNL     1       3.988   0.614  18.774  0.00  0.00    +0.000 HD
ATOM     12  H   UNL     1       3.933   1.046  17.156  0.00  0.00    +0.000 HD
ENDBRANCH   6  10
BRANCH   5  13
ATOM     13  C   UNL     1       4.729   3.983  16.798  0.00  0.00    +0.000 C 
BRANCH  13  14
ATOM     14  C   UNL     1       5.733   4.992  17.320  0.00  0.00    +0.000 A 
ATOM     15  C   UNL     1       6.512   4.652  18.444  0.00  0.00    +0.000 A 
ATOM     16  C   UNL     1       7.510   5.509  18.918  0.00  0.00    +0.000 A 
ATOM     17  C   UNL     1       7.753   6.716  18.274  0.00  0.00    +0.000 A 
ATOM     18  C   UNL     1       6.972   7.086  17.183  0.00  0.00    +0.000 A 
ATOM     19  C   UNL     1       5.957   6.242  16.720  0.00  0.00    +0.000 A 
ATOM     20 CL   UNL     1       4.992   6.842  15.421  0.00  0.00    +0.000 Cl
ENDBRANCH  13  14
ENDBRANCH   5  13
TORSDOF 3
ENDMDL
MODEL 6
REMARK VINA RESULT:      -7.2      2.026      3.040
REMARK  Name = 
REMARK  3 active torsions:
REMARK  status: ('A' for Active; 'I' for Inactive)
REMARK    1  A    between atoms: C_5  and  C_6
REMARK    2  A    between atoms: C_6  and  C_7
REMARK    3  A    between atoms: C_14  and  N_15
REMARK                            x       y       z     vdW  Elec       q    Type
REMARK                         _______ _______ _______ _____ _____    ______ ____
ROOT
ATOM      1  N   UNL     1       8.497   6.627  19.105  0.00  0.00    +0.000 N 
ATOM      2  C   UNL     1       7.241   6.203  18.721  0.00  0.00    +0.000 A 
ATOM      3  N   UNL     1       6.594   5.366  19.531  0.00  0.00    +0.000 NA
ATOM      4  C   UNL     1       5.393   4.933  19.100  0.00  0.00    +0.000 A 
ATOM      5  C   UNL     1       4.829   5.282  17.890  0.00  0.00    +0.000 A 
ATOM      6  C   UNL     1       5.597   6.151  17.136  0.00  0.00    +0.000 A 
ATOM      7  N   UNL     1       6.798   6.601  17.528  0.00  0.00    +0.000 NA
ATOM      8  H   UNL     1       8.902   5.947  19.732  0.00  0.00    +0.000 HD
ATOM      9  H   UNL     1       9.029   6.864  18.279  0.00  0.00    +0.000 HD
ENDROOT
BRANCH   6  10
ATOM     10  N   UNL     1       5.214   6.574  15.866  0.00  0.00    +0.000 N 
ATOM     11  H   UNL     1       4.338   6.152  15.572  0.00  0.00    +0.000 HD
ATOM     12  H   UNL     1       5.139   7.588  15.900  0.00  0.00    +0.000 HD
ENDBRANCH   6  10
BRANCH   5  13
ATOM     13  C   UNL     1       3.491   4.733  17.469  0.00  0.00    +0.000 C 
BRANCH  13  14
ATOM     14  C   UNL     1       2.683   4.136  18.607  0.00  0.00    +0.000 A 
ATOM     15  C   UNL     1       1.950   5.001  19.443  0.00  0.00    +0.000 A 
ATOM     16  C   UNL     1       1.124   4.502  20.453  0.00  0.00    +0.000 A 
ATOM     17  C   UNL     1       1.009   3.130  20.643  0.00  0.00    +0.000 A 
ATOM     18  C   UNL     1       1.750   2.259  19.849  0.00  0.00    +0.000 A 
ATOM     19  C   UNL     1       2.596   2.756  18.852  0.00  0.00    +0.000 A 
ATOM     20 CL   UNL     1       3.537   1.592  17.992  0.00  0.00    +0.000 Cl
ENDBRANCH  13  14
ENDBRANCH   5  13
TORSDOF 3
ENDMDL
MODEL 7
REMARK VINA RESULT:      -7.2      2.011      2.383
REMARK  Name = 
REMARK  3 active torsions:
REMARK  status: ('A' for Active; 'I' for Inactive)
REMARK    1  A    between atoms: C_5  and  C_6
REMARK    2  A    between atoms: C_6  and  C_7
REMARK    3  A    between atoms: C_14  and  N_15
REMARK                            x       y       z     vdW  Elec       q    Type
REMARK                         _______ _______ _______ _____ _____    ______ ____
ROOT
ATOM      1  N   UNL     1       7.775   7.853  17.342  0.00  0.00    +0.000 N 
ATOM      2  C   UNL     1       6.781   6.899  17.249  0.00  0.00    +0.000 A 
ATOM      3  N   UNL     1       5.752   7.152  16.441  0.00  0.00    +0.000 NA
ATOM      4  C   UNL     1       4.777   6.224  16.414  0.00  0.00    +0.000 A 
ATOM      5  C   UNL     1       4.779   5.073  17.174  0.00  0.00    +0.000 A 
ATOM      6  C   UNL     1       5.896   4.924  17.976  0.00  0.00    +0.000 A 
ATOM      7  N   UNL     1       6.885   5.827  18.033  0.00  0.00    +0.000 NA
ATOM      8  H   UNL     1       7.395   8.757  17.101  0.00  0.00    +0.000 HD
ATOM      9  H   UNL     1       8.225   7.769  18.244  0.00  0.00    +0.000 HD
ENDROOT
BRANCH   6  10
ATOM     10  N   UNL     1       6.050   3.849  18.848  0.00  0.00    +0.000 N 
ATOM     11  H   UNL     1       5.278   3.779  19.505  0.00  0.00    +0.000 HD
ATOM     12  H   UNL     1       6.124   3.010  18.278  0.00  0.00    +0.000 HD
ENDBRANCH   6  10
BRANCH   5  13
ATOM     13  C   UNL     1       3.635   4.094  17.105  0.00  0.00    +0.000 C 
BRANCH  13  14
ATOM     14  C   UNL     1       2.888   3.926  18.414  0.00  0.00    +0.000 A 
ATOM     15  C   UNL     1       2.276   5.055  18.994  0.00  0.00    +0.000 A 
ATOM     16  C   UNL     1       1.505   4.944  20.154  0.00  0.00    +0.000 A 
ATOM     17  C   UNL     1       1.325   3.703  20.753  0.00  0.00    +0.000 A 
ATOM     18  C   UNL     1       1.948   2.580  20.216  0.00  0.00    +0.000 A 
ATOM     19  C   UNL     1       2.740   2.691  19.067  0.00  0.00    +0.000 A 
ATOM     20 CL   UNL     1       3.538   1.254  18.542  0.00  0.00    +0.000 Cl
ENDBRANCH  13  14
ENDBRANCH   5  13
TORSDOF 3
ENDMDL
MODEL 8
REMARK VINA RESULT:      -7.2      1.506      2.641
REMARK  Name = 
REMARK  3 active torsions:
REMARK  status: ('A' for Active; 'I' for Inactive)
REMARK    1  A    between atoms: C_5  and  C_6
REMARK    2  A    between atoms: C_6  and  C_7
REMARK    3  A    between atoms: C_14  and  N_15
REMARK                            x       y       z     vdW  Elec       q    Type
REMARK                         _______ _______ _______ _____ _____    ______ ____
ROOT
ATOM      1  N   UNL     1       8.595   5.584  19.849  0.00  0.00    +0.000 N 
ATOM      2  C   UNL     1       7.503   5.240  19.079  0.00  0.00    +0.000 A 
ATOM      3  N   UNL     1       6.340   5.050  19.700  0.00  0.00    +0.000 NA
ATOM      4  C   UNL     1       5.308   4.666  18.924  0.00  0.00    +0.000 A 
ATOM      5  C   UNL     1       5.399   4.443  17.565  0.00  0.00    +0.000 A 
ATOM      6  C   UNL     1       6.657   4.668  17.036  0.00  0.00    +0.000 A 
ATOM      7  N   UNL     1       7.709   5.047  17.776  0.00  0.00    +0.000 NA
ATOM      8  H   UNL     1       8.452   5.259  20.795  0.00  0.00    +0.000 HD
ATOM      9  H   UNL     1       9.436   5.278  19.380  0.00  0.00    +0.000 HD
ENDROOT
BRANCH   6  10
ATOM     10  N   UNL     1       6.952   4.447  15.693  0.00  0.00    +0.000 N 
ATOM     11  H   UNL     1       7.053   5.317  15.178  0.00  0.00    +0.000 HD
ATOM     12  H   UNL     1       7.809   3.901  15.662  0.00  0.00    +0.000 HD
ENDBRANCH   6  10
BRANCH   5  13
ATOM     13  C   UNL     1       4.202   3.989  16.770  0.00  0.00    +0.000 C 
BRANCH  13  14
ATOM     14  C   UNL     1       3.011   3.590  17.621  0.00  0.00    +0.000 A 
ATOM     15  C   UNL     1       2.754   2.220  17.825  0.00  0.00    +0.000 A 
ATOM     16  C   UNL     1       1.722   1.795  18.667  0.00  0.00    +0.000 A 
ATOM     17  C   UNL     1       0.933   2.731  19.325  0.00  0.00    +0.000 A 
ATOM     18  C   UNL     1       1.149   4.089  19.112  0.00  0.00    +0.000 A 
ATOM     19  C   UNL     1       2.166   4.518  18.252  0.00  0.00    +0.000 A 
ATOM     20 CL   UNL     1       2.285   6.219  17.990  0.00  0.00    +0.000 Cl
ENDBRANCH  13  14
ENDBRANCH   5  13
TORSDOF 3
ENDMDL
MODEL 9
REMARK VINA RESULT:      -7.2      1.636      1.764
REMARK  Name = 
REMARK  3 active torsions:
REMARK  status: ('A' for Active; 'I' for Inactive)
REMARK    1  A    between atoms: C_5  and  C_6
REMARK    2  A    between atoms: C_6  and  C_7
REMARK    3  A    between atoms: C_14  and  N_15
REMARK                            x       y       z     vdW  Elec       q    Type
REMARK                         _______ _______ _______ _____ _____    ______ ____
ROOT
ATOM      1  N   UNL     1       7.637   5.217  14.333  0.00  0.00    +0.000 N 
ATOM      2  C   UNL     1       6.921   5.103  15.507  0.00  0.00    +0.000 A 
ATOM      3  N   UNL     1       5.594   5.205  15.438  0.00  0.00    +0.000 NA
ATOM      4  C   UNL     1       4.932   5.140  16.609  0.00  0.00    +0.000 A 
ATOM      5  C   UNL     1       5.540   5.001  17.839  0.00  0.00    +0.000 A 
ATOM      6  C   UNL     1       6.919   4.911  17.783  0.00  0.00    +0.000 A 
ATOM      7  N   UNL     1       7.614   4.975  16.638  0.00  0.00    +0.000 NA
ATOM      8  H   UNL     1       7.099   5.748  13.664  0.00  0.00    +0.000 HD
ATOM      9  H   UNL     1       8.566   5.554  14.548  0.00  0.00    +0.000 HD
ENDROOT
BRANCH   6  10
ATOM     10  N   UNL     1       7.707   4.817  18.927  0.00  0.00    +0.000 N 
ATOM     11  H   UNL     1       8.114   3.892  19.035  0.00  0.00    +0.000 HD
ATOM     12  H   UNL     1       8.431   5.528  18.850  0.00  0.00    +0.000 HD
ENDBRANCH   6  10
BRANCH   5  13
ATOM     13  C   UNL     1       4.728   4.962  19.108  0.00  0.00    +0.000 C 
BRANCH  13  14
ATOM     14  C   UNL     1       3.463   4.131  19.005  0.00  0.00    +0.000 A 
ATOM     15  C   UNL     1       2.324   4.704  18.407  0.00  0.00    +0.000 A 
ATOM     16  C   UNL     1       1.158   3.959  18.211  0.00  0.00    +0.000 A 
ATOM     17  C   UNL     1       1.110   2.626  18.602  0.00  0.00    +0.000 A 
ATOM     18  C   UNL     1       2.214   2.050  19.225  0.00  0.00    +0.000 A 
ATOM     19  C   UNL     1       3.375   2.800  19.444  0.00  0.00    +0.000 A 
ATOM     20 CL   UNL     1       4.646   2.013  20.306  0.00  0.00    +0.000 Cl
ENDBRANCH  13  14
ENDBRANCH   5  13
TORSDOF 3
ENDMDL
