MODEL 1
REMARK VINA RESULT:      -5.4      0.000      0.000
REMARK  Name = 
REMARK  5 active torsions:
REMARK  status: ('A' for Active; 'I' for Inactive)
REMARK    1  A    between atoms: C_1  and  N_2
REMARK    2  A    between atoms: N_2  and  C_3
REMARK    3  A    between atoms: N_2  and  C_4
REMARK    4  A    between atoms: C_7  and  C_8
REMARK    5  A    between atoms: C_7  and  C_10
REMARK                            x       y       z     vdW  Elec       q    Type
REMARK                         _______ _______ _______ _____ _____    ______ ____
ROOT
ATOM      1  C   UNL     1       2.998   2.320  19.406  0.00  0.00    +0.000 C 
ATOM      2  C   UNL     1       3.032   2.452  17.857  0.00  0.00    +0.000 C 
ATOM      3  S   UNL     1       2.777   4.120  17.161  0.00  0.00    +0.000 S 
ATOM      4  C   UNL     1       4.081   5.117  18.025  0.00  0.00    +0.000 C 
ATOM      5  S   UNL     1       3.933   4.896  19.868  0.00  0.00    +0.000 S 
ATOM      6  C   UNL     1       4.208   3.100  19.962  0.00  0.00    +0.000 C 
ENDROOT
BRANCH   4   7
ATOM      7  C   UNL     1       5.544   4.751  17.617  0.00  0.00    +0.000 C 
ATOM      8  O   UNL     1       6.425   4.572  18.463  0.00  0.00    +0.000 OA
ATOM      9  N   UNL     1       5.891   4.709  16.262  0.00  0.00    +0.000 N 
ATOM     10  C   UNL     1       5.064   4.920  15.072  0.00  0.00    +0.000 C 
ATOM     11  C   UNL     1       5.847   4.241  13.961  0.00  0.00    +0.000 C 
ATOM     12  C   UNL     1       7.288   4.542  14.343  0.00  0.00    +0.000 C 
ATOM     13  C   UNL     1       7.284   4.532  15.869  0.00  0.00    +0.000 C 
ENDBRANCH   4   7
BRANCH   1  15
ATOM     14  C   UNL     1       0.542   2.117  19.386  0.00  0.00    +0.000 C 
ATOM     15  N   UNL     1       1.706   2.707  20.046  0.00  0.00    +0.000 NA
ATOM     16  C   UNL     1       1.659   2.381  21.477  0.00  0.00    +0.000 C 
ENDBRANCH   1  15
BRANCH   4  17
ATOM     17  C   UNL     1       3.832   6.581  17.698  0.00  0.00    +0.000 C 
ATOM     18  N   UNL     1       3.625   7.795  17.428  0.00  0.00    +0.000 NA
ENDBRANCH   4  17
TORSDOF 3
ENDMDL
MODEL 2
REMARK VINA RESULT:      -5.3      1.627      5.555
REMARK  Name = 
REMARK  5 active torsions:
REMARK  status: ('A' for Active; 'I' for Inactive)
REMARK    1  A    between atoms: C_1  and  N_2
REMARK    2  A    between atoms: N_2  and  C_3
REMARK    3  A    between atoms: N_2  and  C_4
REMARK    4  A    between atoms: C_7  and  C_8
REMARK    5  A    between atoms: C_7  and  C_10
REMARK                            x       y       z     vdW  Elec       q    Type
REMARK                         _______ _______ _______ _____ _____    ______ ____
ROOT
ATOM      1  C   UNL     1       6.510   3.883  15.793  0.00  0.00    +0.000 C 
ATOM      2  C   UNL     1       7.109   4.734  16.947  0.00  0.00    +0.000 C 
ATOM      3  S   UNL     1       6.147   6.187  17.492  0.00  0.00    +0.000 S 
ATOM      4  C   UNL     1       4.494   5.444  17.891  0.00  0.00    +0.000 C 
ATOM      5  S   UNL     1       3.869   4.466  16.435  0.00  0.00    +0.000 S 
ATOM      6  C   UNL     1       5.209   3.240  16.320  0.00  0.00    +0.000 C 
ENDROOT
BRANCH   4   7
ATOM      7  C   UNL     1       4.499   4.499  19.135  0.00  0.00    +0.000 C 
ATOM      8  O   UNL     1       5.554   4.138  19.667  0.00  0.00    +0.000 OA
ATOM      9  N   UNL     1       3.292   3.974  19.607  0.00  0.00    +0.000 N 
ATOM     10  C   UNL     1       1.922   4.200  19.141  0.00  0.00    +0.000 C 
ATOM     11  C   UNL     1       1.064   3.805  20.331  0.00  0.00    +0.000 C 
ATOM     12  C   UNL     1       1.828   2.625  20.911  0.00  0.00    +0.000 C 
ATOM     13  C   UNL     1       3.294   2.965  20.659  0.00  0.00    +0.000 C 
ENDBRANCH   4   7
BRANCH   1  15
ATOM     14  C   UNL     1       7.518   5.340  14.080  0.00  0.00    +0.000 C 
ATOM     15  N   UNL     1       6.324   4.609  14.502  0.00  0.00    +0.000 NA
ATOM     16  C   UNL     1       5.893   3.727  13.408  0.00  0.00    +0.000 C 
ENDBRANCH   1  15
BRANCH   4  17
ATOM     17  C   UNL     1       3.527   6.588  18.148  0.00  0.00    +0.000 C 
ATOM     18  N   UNL     1       2.725   7.537  18.361  0.00  0.00    +0.000 NA
ENDBRANCH   4  17
TORSDOF 3
ENDMDL
MODEL 3
REMARK VINA RESULT:      -5.2      2.353      2.936
REMARK  Name = 
REMARK  5 active torsions:
REMARK  status: ('A' for Active; 'I' for Inactive)
REMARK    1  A    between atoms: C_1  and  N_2
REMARK    2  A    between atoms: N_2  and  C_3
REMARK    3  A    between atoms: N_2  and  C_4
REMARK    4  A    between atoms: C_7  and  C_8
REMARK    5  A    between atoms: C_7  and  C_10
REMARK                            x       y       z     vdW  Elec       q    Type
REMARK                         _______ _______ _______ _____ _____    ______ ____
ROOT
ATOM      1  C   UNL     1       3.120   3.725  19.680  0.00  0.00    +0.000 C 
ATOM      2  C   UNL     1       4.107   2.809  18.905  0.00  0.00    +0.000 C 
ATOM      3  S   UNL     1       4.464   3.254  17.170  0.00  0.00    +0.000 S 
ATOM      4  C   UNL     1       5.036   5.013  17.319  0.00  0.00    +0.000 C 
ATOM      5  S   UNL     1       3.771   6.016  18.247  0.00  0.00    +0.000 S 
ATOM      6  C   UNL     1       3.790   5.108  19.824  0.00  0.00    +0.000 C 
ENDROOT
BRANCH   4   7
ATOM      7  C   UNL     1       6.408   5.181  18.048  0.00  0.00    +0.000 C 
ATOM      8  O   UNL     1       6.940   4.241  18.646  0.00  0.00    +0.000 OA
ATOM      9  N   UNL     1       7.008   6.443  18.104  0.00  0.00    +0.000 N 
ATOM     10  C   UNL     1       6.575   7.717  17.527  0.00  0.00    +0.000 C 
ATOM     11  C   UNL     1       7.848   8.544  17.476  0.00  0.00    +0.000 C 
ATOM     12  C   UNL     1       8.566   8.122  18.749  0.00  0.00    +0.000 C 
ATOM     13  C   UNL     1       8.200   6.650  18.918  0.00  0.00    +0.000 C 
ENDBRANCH   4   7
BRANCH   1  15
ATOM     14  C   UNL     1       1.256   2.506  18.625  0.00  0.00    +0.000 C 
ATOM     15  N   UNL     1       1.742   3.797  19.110  0.00  0.00    +0.000 NA
ATOM     16  C   UNL     1       0.763   4.353  20.053  0.00  0.00    +0.000 C 
ENDBRANCH   1  15
BRANCH   4  17
ATOM     17  C   UNL     1       5.155   5.577  15.912  0.00  0.00    +0.000 C 
ATOM     18  N   UNL     1       5.253   6.045  14.746  0.00  0.00    +0.000 NA
ENDBRANCH   4  17
TORSDOF 3
ENDMDL
MODEL 4
REMARK VINA RESULT:      -5.0      1.794      2.520
REMARK  Name = 
REMARK  5 active torsions:
REMARK  status: ('A' for Active; 'I' for Inactive)
REMARK    1  A    between atoms: C_1  and  N_2
REMARK    2  A    between atoms: N_2  and  C_3
REMARK    3  A    between atoms: N_2  and  C_4
REMARK    4  A    between atoms: C_7  and  C_8
REMARK    5  A    between atoms: C_7  and  C_10
REMARK                            x       y       z     vdW  Elec       q    Type
REMARK                         _______ _______ _______ _____ _____    ______ ____
ROOT
ATOM      1  C   UNL     1       1.670   3.939  18.459  0.00  0.00    +0.000 C 
ATOM      2  C   UNL     1       1.884   5.430  18.844  0.00  0.00    +0.000 C 
ATOM      3  S   UNL     1       3.436   5.847  19.710  0.00  0.00    +0.000 S 
ATOM      4  C   UNL     1       4.728   5.181  18.556  0.00  0.00    +0.000 C 
ATOM      5  S   UNL     1       4.380   3.391  18.180  0.00  0.00    +0.000 S 
ATOM      6  C   UNL     1       2.742   3.575  17.410  0.00  0.00    +0.000 C 
ENDROOT
BRANCH   4   7
ATOM      7  C   UNL     1       4.829   5.944  17.197  0.00  0.00    +0.000 C 
ATOM      8  O   UNL     1       4.250   7.020  17.016  0.00  0.00    +0.000 OA
ATOM      9  N   UNL     1       5.515   5.359  16.127  0.00  0.00    +0.000 N 
ATOM     10  C   UNL     1       6.243   4.091  16.058  0.00  0.00    +0.000 C 
ATOM     11  C   UNL     1       7.169   4.269  14.867  0.00  0.00    +0.000 C 
ATOM     12  C   UNL     1       6.315   5.078  13.904  0.00  0.00    +0.000 C 
ATOM     13  C   UNL     1       5.478   5.979  14.808  0.00  0.00    +0.000 C 
ENDBRANCH   4   7
BRANCH   1  15
ATOM     14  C   UNL     1       0.943   3.535  20.779  0.00  0.00    +0.000 C 
ATOM     15  N   UNL     1       1.627   2.987  19.608  0.00  0.00    +0.000 NA
ATOM     16  C   UNL     1       1.016   1.698  19.259  0.00  0.00    +0.000 C 
ENDBRANCH   1  15
BRANCH   4  17
ATOM     17  C   UNL     1       6.068   5.268  19.269  0.00  0.00    +0.000 C 
ATOM     18  N   UNL     1       7.180   5.339  19.860  0.00  0.00    +0.000 NA
ENDBRANCH   4  17
TORSDOF 3
ENDMDL
MODEL 5
REMARK VINA RESULT:      -4.7      2.131      2.524
REMARK  Name = 
REMARK  5 active torsions:
REMARK  status: ('A' for Active; 'I' for Inactive)
REMARK    1  A    between atoms: C_1  and  N_2
REMARK    2  A    between atoms: N_2  and  C_3
REMARK    3  A    between atoms: N_2  and  C_4
REMARK    4  A    between atoms: C_7  and  C_8
REMARK    5  A    between atoms: C_7  and  C_10
REMARK                            x       y       z     vdW  Elec       q    Type
REMARK                         _______ _______ _______ _____ _____    ______ ____
ROOT
ATOM      1  C   UNL     1       3.774   4.364  18.899  0.00  0.00    +0.000 C 
ATOM      2  C   UNL     1       3.643   4.921  17.453  0.00  0.00    +0.000 C 
ATOM      3  S   UNL     1       4.532   6.471  17.078  0.00  0.00    +0.000 S 
ATOM      4  C   UNL     1       6.274   6.059  17.564  0.00  0.00    +0.000 C 
ATOM      5  S   UNL     1       6.312   5.420  19.313  0.00  0.00    +0.000 S 
ATOM      6  C   UNL     1       5.249   3.958  19.104  0.00  0.00    +0.000 C 
ENDROOT
BRANCH   4   7
ATOM      7  C   UNL     1       6.959   4.992  16.651  0.00  0.00    +0.000 C 
ATOM      8  O   UNL     1       7.966   4.377  17.020  0.00  0.00    +0.000 OA
ATOM      9  N   UNL     1       6.482   4.787  15.353  0.00  0.00    +0.000 N 
ATOM     10  C   UNL     1       5.349   5.404  14.659  0.00  0.00    +0.000 C 
ATOM     11  C   UNL     1       5.034   4.426  13.540  0.00  0.00    +0.000 C 
ATOM     12  C   UNL     1       6.414   3.936  13.132  0.00  0.00    +0.000 C 
ATOM     13  C   UNL     1       7.208   3.918  14.435  0.00  0.00    +0.000 C 
ENDBRANCH   4   7
BRANCH   1  15
ATOM     14  C   UNL     1       2.425   6.349  19.459  0.00  0.00    +0.000 C 
ATOM     15  N   UNL     1       3.258   5.263  19.973  0.00  0.00    +0.000 NA
ATOM     16  C   UNL     1       2.512   4.540  21.012  0.00  0.00    +0.000 C 
ENDBRANCH   1  15
BRANCH   4  17
ATOM     17  C   UNL     1       7.082   7.345  17.508  0.00  0.00    +0.000 C 
ATOM     18  N   UNL     1       7.753   8.412  17.463  0.00  0.00    +0.000 NA
ENDBRANCH   4  17
TORSDOF 3
ENDMDL
MODEL 6
REMARK VINA RESULT:      -4.6      2.210      3.434
REMARK  Name = 
REMARK  5 active torsions:
REMARK  status: ('A' for Active; 'I' for Inactive)
REMARK    1  A    between atoms: C_1  and  N_2
REMARK    2  A    between atoms: N_2  and  C_3
REMARK    3  A    between atoms: N_2  and  C_4
REMARK    4  A    between atoms: C_7  and  C_8
REMARK    5  A    between atoms: C_7  and  C_10
REMARK                            x       y       z     vdW  Elec       q    Type
REMARK                         _______ _______ _______ _____ _____    ______ ____
ROOT
ATOM      1  C   UNL     1       2.405   4.454  19.841  0.00  0.00    +0.000 C 
ATOM      2  C   UNL     1       3.914   4.622  20.172  0.00  0.00    +0.000 C 
ATOM      3  S   UNL     1       5.106   3.864  19.015  0.00  0.00    +0.000 S 
ATOM      4  C   UNL     1       4.611   4.608  17.388  0.00  0.00    +0.000 C 
ATOM      5  S   UNL     1       2.793   4.332  17.091  0.00  0.00    +0.000 S 
ATOM      6  C   UNL     1       2.131   5.225  18.532  0.00  0.00    +0.000 C 
ENDROOT
BRANCH   4   7
ATOM      7  C   UNL     1       4.887   6.141  17.274  0.00  0.00    +0.000 C 
ATOM      8  O   UNL     1       4.026   6.922  16.856  0.00  0.00    +0.000 OA
ATOM      9  N   UNL     1       6.162   6.636  17.565  0.00  0.00    +0.000 N 
ATOM     10  C   UNL     1       7.359   5.933  18.032  0.00  0.00    +0.000 C 
ATOM     11  C   UNL     1       8.207   7.031  18.649  0.00  0.00    +0.000 C 
ATOM     12  C   UNL     1       7.936   8.212  17.730  0.00  0.00    +0.000 C 
ATOM     13  C   UNL     1       6.481   8.034  17.306  0.00  0.00    +0.000 C 
ENDBRANCH   4   7
BRANCH   1  15
ATOM     14  C   UNL     1       1.929   2.400  21.117  0.00  0.00    +0.000 C 
ATOM     15  N   UNL     1       1.917   3.044  19.804  0.00  0.00    +0.000 NA
ATOM     16  C   UNL     1       0.573   2.920  19.224  0.00  0.00    +0.000 C 
ENDBRANCH   1  15
BRANCH   4  17
ATOM     17  C   UNL     1       5.387   3.886  16.299  0.00  0.00    +0.000 C 
ATOM     18  N   UNL     1       6.032   3.287  15.395  0.00  0.00    +0.000 NA
ENDBRANCH   4  17
TORSDOF 3
ENDMDL
MODEL 7
REMARK VINA RESULT:      -4.4      1.659      2.313
REMARK  Name = 
REMARK  5 active torsions:
REMARK  status: ('A' for Active; 'I' for Inactive)
REMARK    1  A    between atoms: C_1  and  N_2
REMARK    2  A    between atoms: N_2  and  C_3
REMARK    3  A    between atoms: N_2  and  C_4
REMARK    4  A    between atoms: C_7  and  C_8
REMARK    5  A    between atoms: C_7  and  C_10
REMARK                            x       y       z     vdW  Elec       q    Type
REMARK                         _______ _______ _______ _____ _____    ______ ____
ROOT
ATOM      1  C   UNL     1       2.333   2.196  19.497  0.00  0.00    +0.000 C 
ATOM      2  C   UNL     1       1.937   2.527  18.031  0.00  0.00    +0.000 C 
ATOM      3  S   UNL     1       1.650   4.284  17.626  0.00  0.00    +0.000 S 
ATOM      4  C   UNL     1       3.233   5.083  18.171  0.00  0.00    +0.000 C 
ATOM      5  S   UNL     1       3.596   4.631  19.941  0.00  0.00    +0.000 S 
ATOM      6  C   UNL     1       3.719   2.826  19.754  0.00  0.00    +0.000 C 
ENDROOT
BRANCH   4   7
ATOM      7  C   UNL     1       4.478   4.690  17.313  0.00  0.00    +0.000 C 
ATOM      8  O   UNL     1       4.357   4.145  16.211  0.00  0.00    +0.000 OA
ATOM      9  N   UNL     1       5.762   4.875  17.836  0.00  0.00    +0.000 N 
ATOM     10  C   UNL     1       6.182   5.450  19.115  0.00  0.00    +0.000 C 
ATOM     11  C   UNL     1       7.628   5.851  18.875  0.00  0.00    +0.000 C 
ATOM     12  C   UNL     1       8.133   4.735  17.974  0.00  0.00    +0.000 C 
ATOM     13  C   UNL     1       6.924   4.364  17.120  0.00  0.00    +0.000 C 
ENDBRANCH   4   7
BRANCH   1  15
ATOM     14  C   UNL     1       1.875   2.639  21.878  0.00  0.00    +0.000 C 
ATOM     15  N   UNL     1       1.319   2.568  20.527  0.00  0.00    +0.000 NA
ATOM     16  C   UNL     1       0.638   3.834  20.225  0.00  0.00    +0.000 C 
ENDBRANCH   1  15
BRANCH   4  17
ATOM     17  C   UNL     1       3.038   6.588  18.093  0.00  0.00    +0.000 C 
ATOM     18  N   UNL     1       2.875   7.837  18.027  0.00  0.00    +0.000 NA
ENDBRANCH   4  17
TORSDOF 3
ENDMDL
MODEL 8
REMARK VINA RESULT:      -4.3      2.631      5.684
REMARK  Name = 
REMARK  5 active torsions:
REMARK  status: ('A' for Active; 'I' for Inactive)
REMARK    1  A    between atoms: C_1  and  N_2
REMARK    2  A    between atoms: N_2  and  C_3
REMARK    3  A    between atoms: N_2  and  C_4
REMARK    4  A    between atoms: C_7  and  C_8
REMARK    5  A    between atoms: C_7  and  C_10
REMARK                            x       y       z     vdW  Elec       q    Type
REMARK                         _______ _______ _______ _____ _____    ______ ____
ROOT
ATOM      1  C   UNL     1       6.383   6.009  18.142  0.00  0.00    +0.000 C 
ATOM      2  C   UNL     1       5.390   6.997  17.469  0.00  0.00    +0.000 C 
ATOM      3  S   UNL     1       3.840   6.293  16.808  0.00  0.00    +0.000 S 
ATOM      4  C   UNL     1       3.138   5.418  18.285  0.00  0.00    +0.000 C 
ATOM      5  S   UNL     1       4.406   4.253  18.995  0.00  0.00    +0.000 S 
ATOM      6  C   UNL     1       5.700   5.461  19.412  0.00  0.00    +0.000 C 
ENDROOT
BRANCH   4   7
ATOM      7  C   UNL     1       2.669   6.369  19.432  0.00  0.00    +0.000 C 
ATOM      8  O   UNL     1       2.692   6.015  20.615  0.00  0.00    +0.000 OA
ATOM      9  N   UNL     1       2.128   7.619  19.112  0.00  0.00    +0.000 N 
ATOM     10  C   UNL     1       1.946   8.259  17.808  0.00  0.00    +0.000 C 
ATOM     11  C   UNL     1       1.822   9.736  18.143  0.00  0.00    +0.000 C 
ATOM     12  C   UNL     1       1.048   9.712  19.452  0.00  0.00    +0.000 C 
ATOM     13  C   UNL     1       1.535   8.448  20.155  0.00  0.00    +0.000 C 
ENDBRANCH   4   7
BRANCH   1  15
ATOM     14  C   UNL     1       7.149   5.393  15.881  0.00  0.00    +0.000 C 
ATOM     15  N   UNL     1       6.910   4.935  17.249  0.00  0.00    +0.000 NA
ATOM     16  C   UNL     1       8.138   4.315  17.765  0.00  0.00    +0.000 C 
ENDBRANCH   1  15
BRANCH   4  17
ATOM     17  C   UNL     1       1.949   4.598  17.810  0.00  0.00    +0.000 C 
ATOM     18  N   UNL     1       0.963   3.918  17.416  0.00  0.00    +0.000 NA
ENDBRANCH   4  17
TORSDOF 3
ENDMDL
MODEL 9
REMARK VINA RESULT:      -4.3      9.176     11.204
REMARK  Name = 
REMARK  5 active torsions:
REMARK  status: ('A' for Active; 'I' for Inactive)
REMARK    1  A    between atoms: C_1  and  N_2
REMARK    2  A    between atoms: N_2  and  C_3
REMARK    3  A    between atoms: N_2  and  C_4
REMARK    4  A    between atoms: C_7  and  C_8
REMARK    5  A    between atoms: C_7  and  C_10
REMARK                            x       y       z     vdW  Elec       q    Type
REMARK                         _______ _______ _______ _____ _____    ______ ____
ROOT
ATOM      1  C   UNL     1       1.355  14.902  19.111  0.00  0.00    +0.000 C 
ATOM      2  C   UNL     1       1.257  13.453  18.557  0.00  0.00    +0.000 C 
ATOM      3  S   UNL     1       1.129  12.105  19.781  0.00  0.00    +0.000 S 
ATOM      4  C   UNL     1      -0.341  12.620  20.790  0.00  0.00    +0.000 C 
ATOM      5  S   UNL     1      -0.107  14.359  21.413  0.00  0.00    +0.000 S 
ATOM      6  C   UNL     1       0.017  15.219  19.814  0.00  0.00    +0.000 C 
ENDROOT
BRANCH   4   7
ATOM      7  C   UNL     1      -1.698  12.568  20.018  0.00  0.00    +0.000 C 
ATOM      8  O   UNL     1      -2.603  13.376  20.248  0.00  0.00    +0.000 OA
ATOM      9  N   UNL     1      -1.934  11.533  19.106  0.00  0.00    +0.000 N 
ATOM     10  C   UNL     1      -1.061  10.435  18.684  0.00  0.00    +0.000 C 
ATOM     11  C   UNL     1      -1.650   9.995  17.354  0.00  0.00    +0.000 C 
ATOM     12  C   UNL     1      -3.144  10.161  17.585  0.00  0.00    +0.000 C 
ATOM     13  C   UNL     1      -3.252  11.376  18.503  0.00  0.00    +0.000 C 
ENDBRANCH   4   7
BRANCH   1  15
ATOM     14  C   UNL     1       3.795  14.691  19.382  0.00  0.00    +0.000 C 
ATOM     15  N   UNL     1       2.546  15.174  19.969  0.00  0.00    +0.000 NA
ATOM     16  C   UNL     1       2.696  16.596  20.304  0.00  0.00    +0.000 C 
ENDBRANCH   1  15
BRANCH   4  17
ATOM     17  C   UNL     1      -0.423  11.690  21.990  0.00  0.00    +0.000 C 
ATOM     18  N   UNL     1      -0.489  10.919  22.985  0.00  0.00    +0.000 NA
ENDBRANCH   4  17
TORSDOF 3
ENDMDL
