MODEL 1
REMARK VINA RESULT:      -8.1      0.000      0.000
REMARK  Name = 
REMARK  5 active torsions:
REMARK  status: ('A' for Active; 'I' for Inactive)
REMARK    1  A    between atoms: C_2  and  N_3
REMARK    2  A    between atoms: C_2  and  C_15
REMARK    3  A    between atoms: C_15  and  O_16
REMARK    4  A    between atoms: C_17  and  C_18
REMARK    5  A    between atoms: C_18  and  C_20
REMARK                            x       y       z     vdW  Elec       q    Type
REMARK                         _______ _______ _______ _____ _____    ______ ____
ROOT
ATOM      1  O   UNL     1       2.481   8.272  17.646  0.00  0.00    +0.000 OA
ATOM      2  C   UNL     1       2.231   7.430  18.496  0.00  0.00    +0.000 C 
ENDROOT
BRANCH   2   3
ATOM      3  N   UNL     1       2.113   6.080  18.278  0.00  0.00    +0.000 NA
ATOM      4  C   UNL     1       3.106   5.392  17.804  0.00  0.00    +0.000 C 
ATOM      5  C   UNL     1       2.898   3.924  17.369  0.00  0.00    +0.000 C 
ATOM      6  O   UNL     1       1.858   3.308  17.431  0.00  0.00    +0.000 OA
ATOM      7  N   UNL     1       4.116   3.494  16.904  0.00  0.00    +0.000 N 
ATOM      8  C   UNL     1       5.071   4.498  17.006  0.00  0.00    +0.000 A 
ATOM      9  C   UNL     1       6.405   4.389  16.658  0.00  0.00    +0.000 A 
ATOM     10  C   UNL     1       7.219   5.508  16.859  0.00  0.00    +0.000 A 
ATOM     11  C   UNL     1       6.683   6.685  17.407  0.00  0.00    +0.000 A 
ATOM     12 BR   UNL     1       7.805   8.187  17.666  0.00  0.00    +0.000 Br
ATOM     13  C   UNL     1       5.338   6.773  17.771  0.00  0.00    +0.000 A 
ATOM     14  C   UNL     1       4.531   5.673  17.541  0.00  0.00    +0.000 A 
ATOM     15  H   UNL     1       4.269   2.562  16.547  0.00  0.00    +0.000 HD
ENDBRANCH   2   3
BRANCH   2  16
ATOM     16  C   UNL     1       1.899   7.787  19.916  0.00  0.00    +0.000 C 
ATOM     17  C   UNL     1       1.363   8.997  20.145  0.00  0.00    +0.000 C 
BRANCH  16  18
ATOM     18  O   UNL     1       2.149   6.859  20.910  0.00  0.00    +0.000 OA
ATOM     19  H   UNL     1       2.492   7.365  21.673  0.00  0.00    +0.000 HD
ENDBRANCH  16  18
BRANCH  17  20
ATOM     20  C   UNL     1       1.027   9.507  21.496  0.00  0.00    +0.000 C 
ATOM     21  O   UNL     1       1.684   9.229  22.494  0.00  0.00    +0.000 OA
BRANCH  20  22
ATOM     22  C   UNL     1      -0.097  10.480  21.625  0.00  0.00    +0.000 A 
ATOM     23  C   UNL     1      -0.581  11.231  20.546  0.00  0.00    +0.000 A 
ATOM     24  C   UNL     1      -1.649  12.117  20.734  0.00  0.00    +0.000 A 
ATOM     25  C   UNL     1      -2.237  12.248  21.992  0.00  0.00    +0.000 A 
ATOM     26 CL   UNL     1      -3.550  13.337  22.215  0.00  0.00    +0.000 Cl
ATOM     27  C   UNL     1      -1.772  11.496  23.067  0.00  0.00    +0.000 A 
ATOM     28  C   UNL     1      -0.708  10.609  22.882  0.00  0.00    +0.000 A 
ENDBRANCH  20  22
ENDBRANCH  17  20
ENDBRANCH   2  16
TORSDOF 5
ENDMDL
MODEL 2
REMARK VINA RESULT:      -8.0      4.588      9.054
REMARK  Name = 
REMARK  5 active torsions:
REMARK  status: ('A' for Active; 'I' for Inactive)
REMARK    1  A    between atoms: C_2  and  N_3
REMARK    2  A    between atoms: C_2  and  C_15
REMARK    3  A    between atoms: C_15  and  O_16
REMARK    4  A    between atoms: C_17  and  C_18
REMARK    5  A    between atoms: C_18  and  C_20
REMARK                            x       y       z     vdW  Elec       q    Type
REMARK                         _______ _______ _______ _____ _____    ______ ____
ROOT
ATOM      1  O   UNL     1       1.611  10.354  18.070  0.00  0.00    +0.000 OA
ATOM      2  C   UNL     1       1.409   9.813  19.146  0.00  0.00    +0.000 C 
ENDROOT
BRANCH   2   3
ATOM      3  N   UNL     1       0.838  10.402  20.248  0.00  0.00    +0.000 NA
ATOM      4  C   UNL     1      -0.330  10.961  20.174  0.00  0.00    +0.000 C 
ATOM      5  C   UNL     1      -0.867  11.798  21.357  0.00  0.00    +0.000 C 
ATOM      6  O   UNL     1      -0.292  11.996  22.404  0.00  0.00    +0.000 OA
ATOM      7  N   UNL     1      -2.098  12.260  20.961  0.00  0.00    +0.000 N 
ATOM      8  C   UNL     1      -2.414  11.807  19.686  0.00  0.00    +0.000 A 
ATOM      9  C   UNL     1      -3.590  12.059  19.003  0.00  0.00    +0.000 A 
ATOM     10  C   UNL     1      -3.733  11.491  17.733  0.00  0.00    +0.000 A 
ATOM     11  C   UNL     1      -2.713  10.688  17.197  0.00  0.00    +0.000 A 
ATOM     12 BR   UNL     1      -2.931   9.933  15.475  0.00  0.00    +0.000 Br
ATOM     13  C   UNL     1      -1.540  10.427  17.908  0.00  0.00    +0.000 A 
ATOM     14  C   UNL     1      -1.391  11.017  19.149  0.00  0.00    +0.000 A 
ATOM     15  H   UNL     1      -2.678  12.845  21.545  0.00  0.00    +0.000 HD
ENDBRANCH   2   3
BRANCH   2  16
ATOM     16  C   UNL     1       1.875   8.417  19.451  0.00  0.00    +0.000 C 
ATOM     17  C   UNL     1       2.379   7.695  18.438  0.00  0.00    +0.000 C 
BRANCH  16  18
ATOM     18  O   UNL     1       1.774   7.952  20.749  0.00  0.00    +0.000 OA
ATOM     19  H   UNL     1       2.146   7.047  20.741  0.00  0.00    +0.000 HD
ENDBRANCH  16  18
BRANCH  17  20
ATOM     20  C   UNL     1       2.835   6.291  18.574  0.00  0.00    +0.000 C 
ATOM     21  O   UNL     1       2.432   5.544  19.460  0.00  0.00    +0.000 OA
BRANCH  20  22
ATOM     22  C   UNL     1       3.744   5.738  17.528  0.00  0.00    +0.000 A 
ATOM     23  C   UNL     1       4.578   6.544  16.741  0.00  0.00    +0.000 A 
ATOM     24  C   UNL     1       5.417   5.958  15.786  0.00  0.00    +0.000 A 
ATOM     25  C   UNL     1       5.432   4.573  15.622  0.00  0.00    +0.000 A 
ATOM     26 CL   UNL     1       6.468   3.861  14.448  0.00  0.00    +0.000 Cl
ATOM     27  C   UNL     1       4.617   3.763  16.409  0.00  0.00    +0.000 A 
ATOM     28  C   UNL     1       3.780   4.344  17.364  0.00  0.00    +0.000 A 
ENDBRANCH  20  22
ENDBRANCH  17  20
ENDBRANCH   2  16
TORSDOF 5
ENDMDL
MODEL 3
REMARK VINA RESULT:      -8.0      5.666      8.991
REMARK  Name = 
REMARK  5 active torsions:
REMARK  status: ('A' for Active; 'I' for Inactive)
REMARK    1  A    between atoms: C_2  and  N_3
REMARK    2  A    between atoms: C_2  and  C_15
REMARK    3  A    between atoms: C_15  and  O_16
REMARK    4  A    between atoms: C_17  and  C_18
REMARK    5  A    between atoms: C_18  and  C_20
REMARK                            x       y       z     vdW  Elec       q    Type
REMARK                         _______ _______ _______ _____ _____    ______ ____
ROOT
ATOM      1  O   UNL     1       6.677   5.333  19.983  0.00  0.00    +0.000 OA
ATOM      2  C   UNL     1       6.203   4.868  18.958  0.00  0.00    +0.000 C 
ENDROOT
BRANCH   2   3
ATOM      3  N   UNL     1       5.615   3.633  18.833  0.00  0.00    +0.000 NA
ATOM      4  C   UNL     1       4.389   3.438  19.211  0.00  0.00    +0.000 C 
ATOM      5  C   UNL     1       3.809   2.007  19.260  0.00  0.00    +0.000 C 
ATOM      6  O   UNL     1       4.399   0.993  18.963  0.00  0.00    +0.000 OA
ATOM      7  N   UNL     1       2.519   2.140  19.712  0.00  0.00    +0.000 N 
ATOM      8  C   UNL     1       2.205   3.475  19.937  0.00  0.00    +0.000 A 
ATOM      9  C   UNL     1       0.982   3.961  20.362  0.00  0.00    +0.000 A 
ATOM     10  C   UNL     1       0.853   5.346  20.507  0.00  0.00    +0.000 A 
ATOM     11  C   UNL     1       1.934   6.193  20.215  0.00  0.00    +0.000 A 
ATOM     12 BR   UNL     1       1.734   8.064  20.422  0.00  0.00    +0.000 Br
ATOM     13  C   UNL     1       3.157   5.687  19.768  0.00  0.00    +0.000 A 
ATOM     14  C   UNL     1       3.288   4.316  19.656  0.00  0.00    +0.000 A 
ATOM     15  H   UNL     1       1.901   1.353  19.845  0.00  0.00    +0.000 HD
ENDBRANCH   2   3
BRANCH   2  16
ATOM     16  C   UNL     1       6.305   5.563  17.630  0.00  0.00    +0.000 C 
ATOM     17  C   UNL     1       5.460   5.180  16.660  0.00  0.00    +0.000 C 
BRANCH  16  18
ATOM     18  O   UNL     1       7.246   6.564  17.475  0.00  0.00    +0.000 OA
ATOM     19  H   UNL     1       7.257   6.780  16.521  0.00  0.00    +0.000 HD
ENDBRANCH  16  18
BRANCH  17  20
ATOM     20  C   UNL     1       5.471   5.740  15.288  0.00  0.00    +0.000 C 
ATOM     21  O   UNL     1       5.214   6.916  15.048  0.00  0.00    +0.000 OA
BRANCH  20  22
ATOM     22  C   UNL     1       5.911   4.859  14.167  0.00  0.00    +0.000 A 
ATOM     23  C   UNL     1       5.075   3.901  13.580  0.00  0.00    +0.000 A 
ATOM     24  C   UNL     1       5.547   3.115  12.522  0.00  0.00    +0.000 A 
ATOM     25  C   UNL     1       6.846   3.290  12.046  0.00  0.00    +0.000 A 
ATOM     26 CL   UNL     1       7.419   2.322  10.744  0.00  0.00    +0.000 Cl
ATOM     27  C   UNL     1       7.681   4.249  12.614  0.00  0.00    +0.000 A 
ATOM     28  C   UNL     1       7.211   5.036  13.668  0.00  0.00    +0.000 A 
ENDBRANCH  20  22
ENDBRANCH  17  20
ENDBRANCH   2  16
TORSDOF 5
ENDMDL
MODEL 4
REMARK VINA RESULT:      -7.7      4.497      8.871
REMARK  Name = 
REMARK  5 active torsions:
REMARK  status: ('A' for Active; 'I' for Inactive)
REMARK    1  A    between atoms: C_2  and  N_3
REMARK    2  A    between atoms: C_2  and  C_15
REMARK    3  A    between atoms: C_15  and  O_16
REMARK    4  A    between atoms: C_17  and  C_18
REMARK    5  A    between atoms: C_18  and  C_20
REMARK                            x       y       z     vdW  Elec       q    Type
REMARK                         _______ _______ _______ _____ _____    ______ ____
ROOT
ATOM      1  O   UNL     1       1.669   9.854  17.621  0.00  0.00    +0.000 OA
ATOM      2  C   UNL     1       1.517   9.333  18.715  0.00  0.00    +0.000 C 
ENDROOT
BRANCH   2   3
ATOM      3  N   UNL     1       1.045   9.958  19.843  0.00  0.00    +0.000 NA
ATOM      4  C   UNL     1      -0.079  10.605  19.825  0.00  0.00    +0.000 C 
ATOM      5  C   UNL     1      -0.497  11.473  21.033  0.00  0.00    +0.000 C 
ATOM      6  O   UNL     1       0.139  11.619  22.054  0.00  0.00    +0.000 OA
ATOM      7  N   UNL     1      -1.705  12.031  20.696  0.00  0.00    +0.000 N 
ATOM      8  C   UNL     1      -2.113  11.611  19.436  0.00  0.00    +0.000 A 
ATOM      9  C   UNL     1      -3.295  11.957  18.808  0.00  0.00    +0.000 A 
ATOM     10  C   UNL     1      -3.540  11.409  17.544  0.00  0.00    +0.000 A 
ATOM     11  C   UNL     1      -2.610  10.534  16.959  0.00  0.00    +0.000 A 
ATOM     12 BR   UNL     1      -2.963   9.809  15.247  0.00  0.00    +0.000 Br
ATOM     13  C   UNL     1      -1.429  10.180  17.615  0.00  0.00    +0.000 A 
ATOM     14  C   UNL     1      -1.179  10.748  18.850  0.00  0.00    +0.000 A 
ATOM     15  H   UNL     1      -2.211  12.654  21.308  0.00  0.00    +0.000 HD
ENDBRANCH   2   3
BRANCH   2  16
ATOM     16  C   UNL     1       1.947   7.924  19.008  0.00  0.00    +0.000 C 
ATOM     17  C   UNL     1       2.093   7.089  17.966  0.00  0.00    +0.000 C 
BRANCH  16  18
ATOM     18  O   UNL     1       2.181   7.560  20.321  0.00  0.00    +0.000 OA
ATOM     19  H   UNL     1       1.835   8.292  20.870  0.00  0.00    +0.000 HD
ENDBRANCH  16  18
BRANCH  17  20
ATOM     20  C   UNL     1       2.465   5.660  18.101  0.00  0.00    +0.000 C 
ATOM     21  O   UNL     1       1.633   4.764  18.201  0.00  0.00    +0.000 OA
BRANCH  20  22
ATOM     22  C   UNL     1       3.908   5.293  18.009  0.00  0.00    +0.000 A 
ATOM     23  C   UNL     1       4.511   4.871  16.817  0.00  0.00    +0.000 A 
ATOM     24  C   UNL     1       5.874   4.554  16.797  0.00  0.00    +0.000 A 
ATOM     25  C   UNL     1       6.636   4.666  17.960  0.00  0.00    +0.000 A 
ATOM     26 CL   UNL     1       8.311   4.276  17.928  0.00  0.00    +0.000 Cl
ATOM     27  C   UNL     1       6.049   5.097  19.147  0.00  0.00    +0.000 A 
ATOM     28  C   UNL     1       4.689   5.417  19.169  0.00  0.00    +0.000 A 
ENDBRANCH  20  22
ENDBRANCH  17  20
ENDBRANCH   2  16
TORSDOF 5
ENDMDL
MODEL 5
REMARK VINA RESULT:      -7.6      3.058      3.980
REMARK  Name = 
REMARK  5 active torsions:
REMARK  status: ('A' for Active; 'I' for Inactive)
REMARK    1  A    between atoms: C_2  and  N_3
REMARK    2  A    between atoms: C_2  and  C_15
REMARK    3  A    between atoms: C_15  and  O_16
REMARK    4  A    between atoms: C_17  and  C_18
REMARK    5  A    between atoms: C_18  and  C_20
REMARK                            x       y       z     vdW  Elec       q    Type
REMARK                         _______ _______ _______ _____ _____    ______ ____
ROOT
ATOM      1  O   UNL     1       2.253   7.420  19.621  0.00  0.00    +0.000 OA
ATOM      2  C   UNL     1       2.432   8.055  18.593  0.00  0.00    +0.000 C 
ENDROOT
BRANCH   2   3
ATOM      3  N   UNL     1       3.294   7.714  17.580  0.00  0.00    +0.000 NA
ATOM      4  C   UNL     1       3.684   6.488  17.420  0.00  0.00    +0.000 C 
ATOM      5  C   UNL     1       4.809   6.154  16.414  0.00  0.00    +0.000 C 
ATOM      6  O   UNL     1       5.393   6.951  15.714  0.00  0.00    +0.000 OA
ATOM      7  N   UNL     1       4.997   4.796  16.498  0.00  0.00    +0.000 N 
ATOM      8  C   UNL     1       4.122   4.228  17.416  0.00  0.00    +0.000 A 
ATOM      9  C   UNL     1       4.023   2.882  17.718  0.00  0.00    +0.000 A 
ATOM     10  C   UNL     1       3.059   2.499  18.655  0.00  0.00    +0.000 A 
ATOM     11  C   UNL     1       2.225   3.462  19.247  0.00  0.00    +0.000 A 
ATOM     12 BR   UNL     1       0.929   2.919  20.515  0.00  0.00    +0.000 Br
ATOM     13  C   UNL     1       2.324   4.815  18.917  0.00  0.00    +0.000 A 
ATOM     14  C   UNL     1       3.300   5.191  18.012  0.00  0.00    +0.000 A 
ATOM     15  H   UNL     1       5.683   4.303  15.946  0.00  0.00    +0.000 HD
ENDBRANCH   2   3
BRANCH   2  16
ATOM     16  C   UNL     1       1.794   9.392  18.345  0.00  0.00    +0.000 C 
ATOM     17  C   UNL     1       0.881   9.820  19.232  0.00  0.00    +0.000 C 
BRANCH  16  18
ATOM     18  O   UNL     1       2.182  10.116  17.233  0.00  0.00    +0.000 OA
ATOM     19  H   UNL     1       1.470  10.768  17.074  0.00  0.00    +0.000 HD
ENDBRANCH  16  18
BRANCH  17  20
ATOM     20  C   UNL     1       0.135  11.093  19.097  0.00  0.00    +0.000 C 
ATOM     21  O   UNL     1       0.668  12.192  19.221  0.00  0.00    +0.000 OA
BRANCH  20  22
ATOM     22  C   UNL     1      -1.300  11.033  18.693  0.00  0.00    +0.000 A 
ATOM     23  C   UNL     1      -1.796  10.090  17.784  0.00  0.00    +0.000 A 
ATOM     24  C   UNL     1      -3.157  10.081  17.459  0.00  0.00    +0.000 A 
ATOM     25  C   UNL     1      -4.023  11.003  18.045  0.00  0.00    +0.000 A 
ATOM     26 CL   UNL     1      -5.696  10.985  17.642  0.00  0.00    +0.000 Cl
ATOM     27  C   UNL     1      -3.543  11.936  18.960  0.00  0.00    +0.000 A 
ATOM     28  C   UNL     1      -2.185  11.946  19.288  0.00  0.00    +0.000 A 
ENDBRANCH  20  22
ENDBRANCH  17  20
ENDBRANCH   2  16
TORSDOF 5
ENDMDL
MODEL 6
REMARK VINA RESULT:      -7.5      4.805      9.046
REMARK  Name = 
REMARK  5 active torsions:
REMARK  status: ('A' for Active; 'I' for Inactive)
REMARK    1  A    between atoms: C_2  and  N_3
REMARK    2  A    between atoms: C_2  and  C_15
REMARK    3  A    between atoms: C_15  and  O_16
REMARK    4  A    between atoms: C_17  and  C_18
REMARK    5  A    between atoms: C_18  and  C_20
REMARK                            x       y       z     vdW  Elec       q    Type
REMARK                         _______ _______ _______ _____ _____    ______ ____
ROOT
ATOM      1  O   UNL     1      -0.291  10.234  18.093  0.00  0.00    +0.000 OA
ATOM      2  C   UNL     1       0.847  10.200  18.537  0.00  0.00    +0.000 C 
ENDROOT
BRANCH   2   3
ATOM      3  N   UNL     1       1.771  11.212  18.453  0.00  0.00    +0.000 NA
ATOM      4  C   UNL     1       1.677  12.265  19.205  0.00  0.00    +0.000 C 
ATOM      5  C   UNL     1       2.596  13.482  18.959  0.00  0.00    +0.000 C 
ATOM      6  O   UNL     1       3.446  13.565  18.100  0.00  0.00    +0.000 OA
ATOM      7  N   UNL     1       2.237  14.420  19.894  0.00  0.00    +0.000 N 
ATOM      8  C   UNL     1       1.220  13.944  20.713  0.00  0.00    +0.000 A 
ATOM      9  C   UNL     1       0.649  14.619  21.775  0.00  0.00    +0.000 A 
ATOM     10  C   UNL     1      -0.350  13.959  22.499  0.00  0.00    +0.000 A 
ATOM     11  C   UNL     1      -0.734  12.654  22.148  0.00  0.00    +0.000 A 
ATOM     12 BR   UNL     1      -2.090  11.784  23.141  0.00  0.00    +0.000 Br
ATOM     13  C   UNL     1      -0.133  11.979  21.084  0.00  0.00    +0.000 A 
ATOM     14  C   UNL     1       0.831  12.647  20.354  0.00  0.00    +0.000 A 
ATOM     15  H   UNL     1       2.678  15.326  19.960  0.00  0.00    +0.000 HD
ENDBRANCH   2   3
BRANCH   2  16
ATOM     16  C   UNL     1       1.439   8.966  19.155  0.00  0.00    +0.000 C 
ATOM     17  C   UNL     1       2.109   8.126  18.349  0.00  0.00    +0.000 C 
BRANCH  16  18
ATOM     18  O   UNL     1       1.277   8.760  20.512  0.00  0.00    +0.000 OA
ATOM     19  H   UNL     1       0.360   8.440  20.630  0.00  0.00    +0.000 HD
ENDBRANCH  16  18
BRANCH  17  20
ATOM     20  C   UNL     1       2.707   6.849  18.803  0.00  0.00    +0.000 C 
ATOM     21  O   UNL     1       2.463   6.354  19.899  0.00  0.00    +0.000 OA
BRANCH  20  22
ATOM     22  C   UNL     1       3.560   6.087  17.846  0.00  0.00    +0.000 A 
ATOM     23  C   UNL     1       3.484   4.695  17.700  0.00  0.00    +0.000 A 
ATOM     24  C   UNL     1       4.305   4.044  16.772  0.00  0.00    +0.000 A 
ATOM     25  C   UNL     1       5.194   4.777  15.988  0.00  0.00    +0.000 A 
ATOM     26 CL   UNL     1       6.200   3.970  14.849  0.00  0.00    +0.000 Cl
ATOM     27  C   UNL     1       5.269   6.162  16.116  0.00  0.00    +0.000 A 
ATOM     28  C   UNL     1       4.448   6.815  17.039  0.00  0.00    +0.000 A 
ENDBRANCH  20  22
ENDBRANCH  17  20
ENDBRANCH   2  16
TORSDOF 5
ENDMDL
MODEL 7
REMARK VINA RESULT:      -7.3      6.041      8.270
REMARK  Name = 
REMARK  5 active torsions:
REMARK  status: ('A' for Active; 'I' for Inactive)
REMARK    1  A    between atoms: C_2  and  N_3
REMARK    2  A    between atoms: C_2  and  C_15
REMARK    3  A    between atoms: C_15  and  O_16
REMARK    4  A    between atoms: C_17  and  C_18
REMARK    5  A    between atoms: C_18  and  C_20
REMARK                            x       y       z     vdW  Elec       q    Type
REMARK                         _______ _______ _______ _____ _____    ______ ____
ROOT
ATOM      1  O   UNL     1       6.471   8.862  16.828  0.00  0.00    +0.000 OA
ATOM      2  C   UNL     1       7.421   8.269  17.317  0.00  0.00    +0.000 C 
ENDROOT
BRANCH   2   3
ATOM      3  N   UNL     1       7.684   6.928  17.186  0.00  0.00    +0.000 NA
ATOM      4  C   UNL     1       6.764   6.043  17.414  0.00  0.00    +0.000 C 
ATOM      5  C   UNL     1       7.125   4.541  17.467  0.00  0.00    +0.000 C 
ATOM      6  O   UNL     1       8.229   4.072  17.302  0.00  0.00    +0.000 OA
ATOM      7  N   UNL     1       5.953   3.882  17.743  0.00  0.00    +0.000 N 
ATOM      8  C   UNL     1       4.894   4.774  17.854  0.00  0.00    +0.000 A 
ATOM      9  C   UNL     1       3.573   4.442  18.094  0.00  0.00    +0.000 A 
ATOM     10  C   UNL     1       2.643   5.486  18.146  0.00  0.00    +0.000 A 
ATOM     11  C   UNL     1       3.057   6.814  17.948  0.00  0.00    +0.000 A 
ATOM     12 BR   UNL     1       1.780   8.208  18.027  0.00  0.00    +0.000 Br
ATOM     13  C   UNL     1       4.391   7.131  17.688  0.00  0.00    +0.000 A 
ATOM     14  C   UNL     1       5.311   6.098  17.668  0.00  0.00    +0.000 A 
ATOM     15  H   UNL     1       5.897   2.879  17.839  0.00  0.00    +0.000 HD
ENDBRANCH   2   3
BRANCH   2  16
ATOM     16  C   UNL     1       8.397   8.931  18.248  0.00  0.00    +0.000 C 
ATOM     17  C   UNL     1       8.619  10.245  18.086  0.00  0.00    +0.000 C 
BRANCH  16  18
ATOM     18  O   UNL     1       9.005   8.166  19.226  0.00  0.00    +0.000 OA
ATOM     19  H   UNL     1       8.411   7.404  19.381  0.00  0.00    +0.000 HD
ENDBRANCH  16  18
BRANCH  17  20
ATOM     20  C   UNL     1       9.585  11.024  18.896  0.00  0.00    +0.000 C 
ATOM     21  O   UNL     1      10.049  10.612  19.955  0.00  0.00    +0.000 OA
BRANCH  20  22
ATOM     22  C   UNL     1      10.089  12.316  18.347  0.00  0.00    +0.000 A 
ATOM     23  C   UNL     1      11.200  12.400  17.496  0.00  0.00    +0.000 A 
ATOM     24  C   UNL     1      11.612  13.644  17.005  0.00  0.00    +0.000 A 
ATOM     25  C   UNL     1      10.915  14.800  17.355  0.00  0.00    +0.000 A 
ATOM     26 CL   UNL     1      11.427  16.326  16.746  0.00  0.00    +0.000 Cl
ATOM     27  C   UNL     1       9.802  14.726  18.188  0.00  0.00    +0.000 A 
ATOM     28  C   UNL     1       9.387  13.485  18.678  0.00  0.00    +0.000 A 
ENDBRANCH  20  22
ENDBRANCH  17  20
ENDBRANCH   2  16
TORSDOF 5
ENDMDL
MODEL 8
REMARK VINA RESULT:      -7.3      5.438      8.946
REMARK  Name = 
REMARK  5 active torsions:
REMARK  status: ('A' for Active; 'I' for Inactive)
REMARK    1  A    between atoms: C_2  and  N_3
REMARK    2  A    between atoms: C_2  and  C_15
REMARK    3  A    between atoms: C_15  and  O_16
REMARK    4  A    between atoms: C_17  and  C_18
REMARK    5  A    between atoms: C_18  and  C_20
REMARK                            x       y       z     vdW  Elec       q    Type
REMARK                         _______ _______ _______ _____ _____    ______ ____
ROOT
ATOM      1  O   UNL     1       6.787   5.520  19.800  0.00  0.00    +0.000 OA
ATOM      2  C   UNL     1       6.331   4.916  18.841  0.00  0.00    +0.000 C 
ENDROOT
BRANCH   2   3
ATOM      3  N   UNL     1       5.755   3.670  18.877  0.00  0.00    +0.000 NA
ATOM      4  C   UNL     1       4.542   3.509  19.307  0.00  0.00    +0.000 C 
ATOM      5  C   UNL     1       3.981   2.087  19.538  0.00  0.00    +0.000 C 
ATOM      6  O   UNL     1       4.577   1.051  19.345  0.00  0.00    +0.000 OA
ATOM      7  N   UNL     1       2.702   2.259  20.006  0.00  0.00    +0.000 N 
ATOM      8  C   UNL     1       2.377   3.608  20.083  0.00  0.00    +0.000 A 
ATOM      9  C   UNL     1       1.160   4.129  20.482  0.00  0.00    +0.000 A 
ATOM     10  C   UNL     1       1.017   5.520  20.468  0.00  0.00    +0.000 A 
ATOM     11  C   UNL     1       2.079   6.338  20.050  0.00  0.00    +0.000 A 
ATOM     12 BR   UNL     1       1.861   8.218  20.044  0.00  0.00    +0.000 Br
ATOM     13  C   UNL     1       3.296   5.795  19.632  0.00  0.00    +0.000 A 
ATOM     14  C   UNL     1       3.442   4.421  19.677  0.00  0.00    +0.000 A 
ATOM     15  H   UNL     1       2.098   1.488  20.247  0.00  0.00    +0.000 HD
ENDBRANCH   2   3
BRANCH   2  16
ATOM     16  C   UNL     1       6.443   5.428  17.433  0.00  0.00    +0.000 C 
ATOM     17  C   UNL     1       7.096   4.664  16.543  0.00  0.00    +0.000 C 
BRANCH  16  18
ATOM     18  O   UNL     1       5.864   6.644  17.121  0.00  0.00    +0.000 OA
ATOM     19  H   UNL     1       5.104   6.745  17.728  0.00  0.00    +0.000 HD
ENDBRANCH  16  18
BRANCH  17  20
ATOM     20  C   UNL     1       7.327   5.056  15.132  0.00  0.00    +0.000 C 
ATOM     21  O   UNL     1       8.232   5.813  14.793  0.00  0.00    +0.000 OA
BRANCH  20  22
ATOM     22  C   UNL     1       6.486   4.424  14.075  0.00  0.00    +0.000 A 
ATOM     23  C   UNL     1       5.105   4.236  14.213  0.00  0.00    +0.000 A 
ATOM     24  C   UNL     1       4.372   3.647  13.176  0.00  0.00    +0.000 A 
ATOM     25  C   UNL     1       5.013   3.255  12.001  0.00  0.00    +0.000 A 
ATOM     26 CL   UNL     1       4.106   2.534  10.729  0.00  0.00    +0.000 Cl
ATOM     27  C   UNL     1       6.384   3.450  11.849  0.00  0.00    +0.000 A 
ATOM     28  C   UNL     1       7.117   4.039  12.881  0.00  0.00    +0.000 A 
ENDBRANCH  20  22
ENDBRANCH  17  20
ENDBRANCH   2  16
TORSDOF 5
ENDMDL
MODEL 9
REMARK VINA RESULT:      -7.3      4.572      8.957
REMARK  Name = 
REMARK  5 active torsions:
REMARK  status: ('A' for Active; 'I' for Inactive)
REMARK    1  A    between atoms: C_2  and  N_3
REMARK    2  A    between atoms: C_2  and  C_15
REMARK    3  A    between atoms: C_15  and  O_16
REMARK    4  A    between atoms: C_17  and  C_18
REMARK    5  A    between atoms: C_18  and  C_20
REMARK                            x       y       z     vdW  Elec       q    Type
REMARK                         _______ _______ _______ _____ _____    ______ ____
ROOT
ATOM      1  O   UNL     1       1.651  11.375  18.889  0.00  0.00    +0.000 OA
ATOM      2  C   UNL     1       1.083  10.336  18.587  0.00  0.00    +0.000 C 
ENDROOT
BRANCH   2   3
ATOM      3  N   UNL     1      -0.021  10.230  17.778  0.00  0.00    +0.000 NA
ATOM      4  C   UNL     1      -1.166  10.717  18.146  0.00  0.00    +0.000 C 
ATOM      5  C   UNL     1      -2.440  10.410  17.328  0.00  0.00    +0.000 C 
ATOM      6  O   UNL     1      -2.492   9.736  16.323  0.00  0.00    +0.000 OA
ATOM      7  N   UNL     1      -3.468  11.045  17.981  0.00  0.00    +0.000 N 
ATOM      8  C   UNL     1      -3.002  11.728  19.098  0.00  0.00    +0.000 A 
ATOM      9  C   UNL     1      -3.765  12.497  19.957  0.00  0.00    +0.000 A 
ATOM     10  C   UNL     1      -3.106  13.130  21.016  0.00  0.00    +0.000 A 
ATOM     11  C   UNL     1      -1.718  12.986  21.174  0.00  0.00    +0.000 A 
ATOM     12 BR   UNL     1      -0.851  13.851  22.616  0.00  0.00    +0.000 Br
ATOM     13  C   UNL     1      -0.958  12.222  20.286  0.00  0.00    +0.000 A 
ATOM     14  C   UNL     1      -1.620  11.573  19.260  0.00  0.00    +0.000 A 
ATOM     15  H   UNL     1      -4.425  11.008  17.663  0.00  0.00    +0.000 HD
ENDBRANCH   2   3
BRANCH   2  16
ATOM     16  C   UNL     1       1.466   9.006  19.170  0.00  0.00    +0.000 C 
ATOM     17  C   UNL     1       2.198   8.179  18.406  0.00  0.00    +0.000 C 
BRANCH  16  18
ATOM     18  O   UNL     1       1.062   8.704  20.457  0.00  0.00    +0.000 OA
ATOM     19  H   UNL     1       0.141   8.383  20.383  0.00  0.00    +0.000 HD
ENDBRANCH  16  18
BRANCH  17  20
ATOM     20  C   UNL     1       2.611   6.818  18.825  0.00  0.00    +0.000 C 
ATOM     21  O   UNL     1       2.211   6.292  19.859  0.00  0.00    +0.000 OA
BRANCH  20  22
ATOM     22  C   UNL     1       3.468   6.022  17.900  0.00  0.00    +0.000 A 
ATOM     23  C   UNL     1       3.347   4.634  17.756  0.00  0.00    +0.000 A 
ATOM     24  C   UNL     1       4.175   3.949  16.859  0.00  0.00    +0.000 A 
ATOM     25  C   UNL     1       5.115   4.647  16.101  0.00  0.00    +0.000 A 
ATOM     26 CL   UNL     1       6.128   3.799  14.999  0.00  0.00    +0.000 Cl
ATOM     27  C   UNL     1       5.233   6.029  16.227  0.00  0.00    +0.000 A 
ATOM     28  C   UNL     1       4.407   6.715  17.119  0.00  0.00    +0.000 A 
ENDBRANCH  20  22
ENDBRANCH  17  20
ENDBRANCH   2  16
TORSDOF 5
ENDMDL
