MODEL 1
REMARK VINA RESULT:      -7.4      0.000      0.000
REMARK  Name = 
REMARK  6 active torsions:
REMARK  status: ('A' for Active; 'I' for Inactive)
REMARK    1  A    between atoms: C_1  and  O_2
REMARK    2  A    between atoms: O_2  and  C_3
REMARK    3  A    between atoms: C_6  and  C_7
REMARK    4  A    between atoms: C_11  and  C_12
REMARK    5  A    between atoms: C_15  and  O_16
REMARK    6  A    between atoms: O_16  and  C_17
REMARK                            x       y       z     vdW  Elec       q    Type
REMARK                         _______ _______ _______ _____ _____    ______ ____
ROOT
ATOM      1  C   UNL     1       3.796   5.262  18.928  0.00  0.00    +0.000 A 
ATOM      2  C   UNL     1       3.405   4.110  19.607  0.00  0.00    +0.000 A 
ATOM      3  C   UNL     1       2.393   4.189  20.554  0.00  0.00    +0.000 A 
ATOM      4  C   UNL     1       1.788   5.415  20.801  0.00  0.00    +0.000 A 
ATOM      5  C   UNL     1       2.204   6.536  20.088  0.00  0.00    +0.000 A 
ATOM      6  N   UNL     1       3.199   6.459  19.165  0.00  0.00    +0.000 NA
ENDROOT
BRANCH   1  10
ATOM      7  C   UNL     1       6.881   5.230  15.907  0.00  0.00    +0.000 A 
ATOM      8  C   UNL     1       5.636   5.796  15.645  0.00  0.00    +0.000 A 
ATOM      9  C   UNL     1       4.645   5.823  16.632  0.00  0.00    +0.000 A 
ATOM     10  C   UNL     1       4.862   5.263  17.904  0.00  0.00    +0.000 A 
ATOM     11  C   UNL     1       6.128   4.699  18.146  0.00  0.00    +0.000 A 
ATOM     12  C   UNL     1       7.124   4.676  17.161  0.00  0.00    +0.000 A 
BRANCH   7  14
ATOM     13  C   UNL     1       7.240   4.806  13.608  0.00  0.00    +0.000 C 
ATOM     14  O   UNL     1       7.763   5.235  14.862  0.00  0.00    +0.000 OA
ENDBRANCH   7  14
ENDBRANCH   1  10
BRANCH   5  15
ATOM     15  C   UNL     1       1.619   7.880  20.293  0.00  0.00    +0.000 A 
ATOM     16  C   UNL     1       1.530   8.794  19.229  0.00  0.00    +0.000 A 
ATOM     17  C   UNL     1       1.005  10.077  19.413  0.00  0.00    +0.000 A 
ATOM     18  C   UNL     1       0.531  10.477  20.659  0.00  0.00    +0.000 A 
ATOM     19  C   UNL     1       0.604   9.589  21.729  0.00  0.00    +0.000 A 
ATOM     20  C   UNL     1       1.136   8.305  21.543  0.00  0.00    +0.000 A 
BRANCH  18  21
ATOM     21  O   UNL     1       0.059  11.758  20.725  0.00  0.00    +0.000 OA
ATOM     22  C   UNL     1      -0.525  12.133  21.969  0.00  0.00    +0.000 C 
ENDBRANCH  18  21
ENDBRANCH   5  15
TORSDOF 4
ENDMDL
MODEL 2
REMARK VINA RESULT:      -7.4      0.288      7.833
REMARK  Name = 
REMARK  6 active torsions:
REMARK  status: ('A' for Active; 'I' for Inactive)
REMARK    1  A    between atoms: C_1  and  O_2
REMARK    2  A    between atoms: O_2  and  C_3
REMARK    3  A    between atoms: C_6  and  C_7
REMARK    4  A    between atoms: C_11  and  C_12
REMARK    5  A    between atoms: C_15  and  O_16
REMARK    6  A    between atoms: O_16  and  C_17
REMARK                            x       y       z     vdW  Elec       q    Type
REMARK                         _______ _______ _______ _____ _____    ______ ____
ROOT
ATOM      1  C   UNL     1       2.089   6.713  20.183  0.00  0.00    +0.000 A 
ATOM      2  C   UNL     1       1.618   5.595  20.869  0.00  0.00    +0.000 A 
ATOM      3  C   UNL     1       2.173   4.350  20.604  0.00  0.00    +0.000 A 
ATOM      4  C   UNL     1       3.191   4.247  19.664  0.00  0.00    +0.000 A 
ATOM      5  C   UNL     1       3.638   5.395  19.014  0.00  0.00    +0.000 A 
ATOM      6  N   UNL     1       3.090   6.612  19.270  0.00  0.00    +0.000 NA
ENDROOT
BRANCH   1  10
ATOM      7  C   UNL     1       0.475  10.662  20.854  0.00  0.00    +0.000 A 
ATOM      8  C   UNL     1       0.630   9.769  21.911  0.00  0.00    +0.000 A 
ATOM      9  C   UNL     1       1.172   8.497  21.694  0.00  0.00    +0.000 A 
ATOM     10  C   UNL     1       1.553   8.072  20.409  0.00  0.00    +0.000 A 
ATOM     11  C   UNL     1       1.390   8.993  19.357  0.00  0.00    +0.000 A 
ATOM     12  C   UNL     1       0.853  10.269  19.573  0.00  0.00    +0.000 A 
BRANCH   7  14
ATOM     13  C   UNL     1      -0.862  11.887  22.371  0.00  0.00    +0.000 C 
ATOM     14  O   UNL     1      -0.089  11.865  21.176  0.00  0.00    +0.000 OA
ENDBRANCH   7  14
ENDBRANCH   1  10
BRANCH   5  15
ATOM     15  C   UNL     1       4.712   5.374  17.996  0.00  0.00    +0.000 A 
ATOM     16  C   UNL     1       4.575   6.089  16.794  0.00  0.00    +0.000 A 
ATOM     17  C   UNL     1       5.569   6.057  15.810  0.00  0.00    +0.000 A 
ATOM     18  C   UNL     1       6.739   5.328  16.009  0.00  0.00    +0.000 A 
ATOM     19  C   UNL     1       6.900   4.614  17.192  0.00  0.00    +0.000 A 
ATOM     20  C   UNL     1       5.900   4.643  18.174  0.00  0.00    +0.000 A 
BRANCH  18  21
ATOM     21  O   UNL     1       7.629   5.353  14.972  0.00  0.00    +0.000 OA
ATOM     22  C   UNL     1       7.173   4.766  13.757  0.00  0.00    +0.000 C 
ENDBRANCH  18  21
ENDBRANCH   5  15
TORSDOF 4
ENDMDL
MODEL 3
REMARK VINA RESULT:      -7.3      0.476      1.128
REMARK  Name = 
REMARK  6 active torsions:
REMARK  status: ('A' for Active; 'I' for Inactive)
REMARK    1  A    between atoms: C_1  and  O_2
REMARK    2  A    between atoms: O_2  and  C_3
REMARK    3  A    between atoms: C_6  and  C_7
REMARK    4  A    between atoms: C_11  and  C_12
REMARK    5  A    between atoms: C_15  and  O_16
REMARK    6  A    between atoms: O_16  and  C_17
REMARK                            x       y       z     vdW  Elec       q    Type
REMARK                         _______ _______ _______ _____ _____    ______ ____
ROOT
ATOM      1  C   UNL     1       3.758   5.361  18.961  0.00  0.00    +0.000 A 
ATOM      2  C   UNL     1       3.366   4.226  19.668  0.00  0.00    +0.000 A 
ATOM      3  C   UNL     1       2.355   4.328  20.614  0.00  0.00    +0.000 A 
ATOM      4  C   UNL     1       1.751   5.560  20.831  0.00  0.00    +0.000 A 
ATOM      5  C   UNL     1       2.167   6.664  20.091  0.00  0.00    +0.000 A 
ATOM      6  N   UNL     1       3.161   6.564  19.169  0.00  0.00    +0.000 NA
ENDROOT
BRANCH   1  10
ATOM      7  C   UNL     1       6.840   5.256  15.939  0.00  0.00    +0.000 A 
ATOM      8  C   UNL     1       5.621   5.881  15.689  0.00  0.00    +0.000 A 
ATOM      9  C   UNL     1       4.631   5.931  16.678  0.00  0.00    +0.000 A 
ATOM     10  C   UNL     1       4.824   5.337  17.937  0.00  0.00    +0.000 A 
ATOM     11  C   UNL     1       6.064   4.713  18.168  0.00  0.00    +0.000 A 
ATOM     12  C   UNL     1       7.058   4.668  17.181  0.00  0.00    +0.000 A 
BRANCH   7  14
ATOM     13  C   UNL     1       7.202   4.783  13.651  0.00  0.00    +0.000 C 
ATOM     14  O   UNL     1       7.722   5.244  14.894  0.00  0.00    +0.000 OA
ENDBRANCH   7  14
ENDBRANCH   1  10
BRANCH   5  15
ATOM     15  C   UNL     1       1.582   8.012  20.263  0.00  0.00    +0.000 A 
ATOM     16  C   UNL     1       1.125   8.440  21.522  0.00  0.00    +0.000 A 
ATOM     17  C   UNL     1       0.544   9.701  21.696  0.00  0.00    +0.000 A 
ATOM     18  C   UNL     1       0.424  10.579  20.623  0.00  0.00    +0.000 A 
ATOM     19  C   UNL     1       0.872  10.181  19.367  0.00  0.00    +0.000 A 
ATOM     20  C   UNL     1       1.448   8.915  19.194  0.00  0.00    +0.000 A 
BRANCH  18  21
ATOM     21  O   UNL     1      -0.178  11.774  20.906  0.00  0.00    +0.000 OA
ATOM     22  C   UNL     1      -1.029  12.288  19.887  0.00  0.00    +0.000 C 
ENDBRANCH  18  21
ENDBRANCH   5  15
TORSDOF 4
ENDMDL
MODEL 4
REMARK VINA RESULT:      -7.3      0.632      1.362
REMARK  Name = 
REMARK  6 active torsions:
REMARK  status: ('A' for Active; 'I' for Inactive)
REMARK    1  A    between atoms: C_1  and  O_2
REMARK    2  A    between atoms: O_2  and  C_3
REMARK    3  A    between atoms: C_6  and  C_7
REMARK    4  A    between atoms: C_11  and  C_12
REMARK    5  A    between atoms: C_15  and  O_16
REMARK    6  A    between atoms: O_16  and  C_17
REMARK                            x       y       z     vdW  Elec       q    Type
REMARK                         _______ _______ _______ _____ _____    ______ ____
ROOT
ATOM      1  C   UNL     1       3.890   5.177  18.697  0.00  0.00    +0.000 A 
ATOM      2  C   UNL     1       3.572   4.052  19.454  0.00  0.00    +0.000 A 
ATOM      3  C   UNL     1       2.608   4.152  20.449  0.00  0.00    +0.000 A 
ATOM      4  C   UNL     1       1.977   5.371  20.664  0.00  0.00    +0.000 A 
ATOM      5  C   UNL     1       2.320   6.464  19.872  0.00  0.00    +0.000 A 
ATOM      6  N   UNL     1       3.268   6.367  18.903  0.00  0.00    +0.000 NA
ENDROOT
BRANCH   1  10
ATOM      7  C   UNL     1       6.833   5.164  15.536  0.00  0.00    +0.000 A 
ATOM      8  C   UNL     1       7.015   5.947  16.674  0.00  0.00    +0.000 A 
ATOM      9  C   UNL     1       6.069   5.934  17.705  0.00  0.00    +0.000 A 
ATOM     10  C   UNL     1       4.902   5.155  17.619  0.00  0.00    +0.000 A 
ATOM     11  C   UNL     1       4.741   4.370  16.462  0.00  0.00    +0.000 A 
ATOM     12  C   UNL     1       5.690   4.377  15.431  0.00  0.00    +0.000 A 
BRANCH   7  14
ATOM     13  C   UNL     1       7.424   4.900  13.263  0.00  0.00    +0.000 C 
ATOM     14  O   UNL     1       7.806   5.275  14.582  0.00  0.00    +0.000 OA
ENDBRANCH   7  14
ENDBRANCH   1  10
BRANCH   5  15
ATOM     15  C   UNL     1       1.703   7.799  20.038  0.00  0.00    +0.000 A 
ATOM     16  C   UNL     1       1.102   8.165  21.256  0.00  0.00    +0.000 A 
ATOM     17  C   UNL     1       0.490   9.412  21.420  0.00  0.00    +0.000 A 
ATOM     18  C   UNL     1       0.481  10.339  20.381  0.00  0.00    +0.000 A 
ATOM     19  C   UNL     1       1.071  10.002  19.166  0.00  0.00    +0.000 A 
ATOM     20  C   UNL     1       1.679   8.749  19.003  0.00  0.00    +0.000 A 
BRANCH  18  21
ATOM     21  O   UNL     1      -0.164  11.514  20.648  0.00  0.00    +0.000 OA
ATOM     22  C   UNL     1      -0.514  11.726  22.012  0.00  0.00    +0.000 C 
ENDBRANCH  18  21
ENDBRANCH   5  15
TORSDOF 4
ENDMDL
MODEL 5
REMARK VINA RESULT:      -7.3      0.438      7.675
REMARK  Name = 
REMARK  6 active torsions:
REMARK  status: ('A' for Active; 'I' for Inactive)
REMARK    1  A    between atoms: C_1  and  O_2
REMARK    2  A    between atoms: O_2  and  C_3
REMARK    3  A    between atoms: C_6  and  C_7
REMARK    4  A    between atoms: C_11  and  C_12
REMARK    5  A    between atoms: C_15  and  O_16
REMARK    6  A    between atoms: O_16  and  C_17
REMARK                            x       y       z     vdW  Elec       q    Type
REMARK                         _______ _______ _______ _____ _____    ______ ____
ROOT
ATOM      1  C   UNL     1       2.213   6.636  20.010  0.00  0.00    +0.000 A 
ATOM      2  C   UNL     1       1.800   5.550  20.781  0.00  0.00    +0.000 A 
ATOM      3  C   UNL     1       2.415   4.318  20.606  0.00  0.00    +0.000 A 
ATOM      4  C   UNL     1       3.435   4.195  19.670  0.00  0.00    +0.000 A 
ATOM      5  C   UNL     1       3.822   5.311  18.932  0.00  0.00    +0.000 A 
ATOM      6  N   UNL     1       3.215   6.515  19.099  0.00  0.00    +0.000 NA
ENDROOT
BRANCH   1  10
ATOM      7  C   UNL     1       0.505  10.585  20.368  0.00  0.00    +0.000 A 
ATOM      8  C   UNL     1       1.000  10.133  19.148  0.00  0.00    +0.000 A 
ATOM      9  C   UNL     1       1.535   8.845  19.030  0.00  0.00    +0.000 A 
ATOM     10  C   UNL     1       1.611   7.980  20.136  0.00  0.00    +0.000 A 
ATOM     11  C   UNL     1       1.103   8.457  21.358  0.00  0.00    +0.000 A 
ATOM     12  C   UNL     1       0.561   9.744  21.476  0.00  0.00    +0.000 A 
BRANCH   7  14
ATOM     13  C   UNL     1       0.889  12.843  20.956  0.00  0.00    +0.000 C 
ATOM     14  O   UNL     1       0.031  11.867  20.374  0.00  0.00    +0.000 OA
ENDBRANCH   7  14
ENDBRANCH   1  10
BRANCH   5  15
ATOM     15  C   UNL     1       4.892   5.266  17.911  0.00  0.00    +0.000 A 
ATOM     16  C   UNL     1       4.653   5.714  16.601  0.00  0.00    +0.000 A 
ATOM     17  C   UNL     1       5.646   5.652  15.617  0.00  0.00    +0.000 A 
ATOM     18  C   UNL     1       6.913   5.163  15.920  0.00  0.00    +0.000 A 
ATOM     19  C   UNL     1       7.177   4.716  17.211  0.00  0.00    +0.000 A 
ATOM     20  C   UNL     1       6.178   4.773  18.194  0.00  0.00    +0.000 A 
BRANCH  18  21
ATOM     21  O   UNL     1       7.796   5.130  14.876  0.00  0.00    +0.000 OA
ATOM     22  C   UNL     1       7.226   4.857  13.600  0.00  0.00    +0.000 C 
ENDBRANCH  18  21
ENDBRANCH   5  15
TORSDOF 4
ENDMDL
MODEL 6
REMARK VINA RESULT:      -7.3      1.047      7.842
REMARK  Name = 
REMARK  6 active torsions:
REMARK  status: ('A' for Active; 'I' for Inactive)
REMARK    1  A    between atoms: C_1  and  O_2
REMARK    2  A    between atoms: O_2  and  C_3
REMARK    3  A    between atoms: C_6  and  C_7
REMARK    4  A    between atoms: C_11  and  C_12
REMARK    5  A    between atoms: C_15  and  O_16
REMARK    6  A    between atoms: O_16  and  C_17
REMARK                            x       y       z     vdW  Elec       q    Type
REMARK                         _______ _______ _______ _____ _____    ______ ____
ROOT
ATOM      1  C   UNL     1       2.299   6.472  19.802  0.00  0.00    +0.000 A 
ATOM      2  C   UNL     1       2.077   5.421  20.690  0.00  0.00    +0.000 A 
ATOM      3  C   UNL     1       2.645   4.181  20.433  0.00  0.00    +0.000 A 
ATOM      4  C   UNL     1       3.430   4.016  19.298  0.00  0.00    +0.000 A 
ATOM      5  C   UNL     1       3.634   5.099  18.447  0.00  0.00    +0.000 A 
ATOM      6  N   UNL     1       3.072   6.311  18.696  0.00  0.00    +0.000 NA
ENDROOT
BRANCH   1  10
ATOM      7  C   UNL     1       0.592  10.393  20.399  0.00  0.00    +0.000 A 
ATOM      8  C   UNL     1       0.621   9.465  21.437  0.00  0.00    +0.000 A 
ATOM      9  C   UNL     1       1.193   8.202  21.246  0.00  0.00    +0.000 A 
ATOM     10  C   UNL     1       1.732   7.822  20.004  0.00  0.00    +0.000 A 
ATOM     11  C   UNL     1       1.693   8.776  18.971  0.00  0.00    +0.000 A 
ATOM     12  C   UNL     1       1.127  10.044  19.162  0.00  0.00    +0.000 A 
BRANCH   7  14
ATOM     13  C   UNL     1      -1.026  12.002  19.779  0.00  0.00    +0.000 C 
ATOM     14  O   UNL     1      -0.014  11.584  20.689  0.00  0.00    +0.000 OA
ENDBRANCH   7  14
ENDBRANCH   1  10
BRANCH   5  15
ATOM     15  C   UNL     1       4.449   5.009  17.215  0.00  0.00    +0.000 A 
ATOM     16  C   UNL     1       4.892   3.763  16.738  0.00  0.00    +0.000 A 
ATOM     17  C   UNL     1       5.687   3.663  15.591  0.00  0.00    +0.000 A 
ATOM     18  C   UNL     1       6.041   4.801  14.873  0.00  0.00    +0.000 A 
ATOM     19  C   UNL     1       5.611   6.047  15.322  0.00  0.00    +0.000 A 
ATOM     20  C   UNL     1       4.820   6.145  16.475  0.00  0.00    +0.000 A 
BRANCH  18  21
ATOM     21  O   UNL     1       6.835   4.585  13.782  0.00  0.00    +0.000 OA
ATOM     22  C   UNL     1       6.332   3.651  12.832  0.00  0.00    +0.000 C 
ENDBRANCH  18  21
ENDBRANCH   5  15
TORSDOF 4
ENDMDL
MODEL 7
REMARK VINA RESULT:      -7.3      1.054      1.307
REMARK  Name = 
REMARK  6 active torsions:
REMARK  status: ('A' for Active; 'I' for Inactive)
REMARK    1  A    between atoms: C_1  and  O_2
REMARK    2  A    between atoms: O_2  and  C_3
REMARK    3  A    between atoms: C_6  and  C_7
REMARK    4  A    between atoms: C_11  and  C_12
REMARK    5  A    between atoms: C_15  and  O_16
REMARK    6  A    between atoms: O_16  and  C_17
REMARK                            x       y       z     vdW  Elec       q    Type
REMARK                         _______ _______ _______ _____ _____    ______ ____
ROOT
ATOM      1  C   UNL     1       3.549   5.175  18.472  0.00  0.00    +0.000 A 
ATOM      2  C   UNL     1       3.320   4.099  19.328  0.00  0.00    +0.000 A 
ATOM      3  C   UNL     1       2.534   4.283  20.457  0.00  0.00    +0.000 A 
ATOM      4  C   UNL     1       1.985   5.536  20.706  0.00  0.00    +0.000 A 
ATOM      5  C   UNL     1       2.232   6.577  19.814  0.00  0.00    +0.000 A 
ATOM      6  N   UNL     1       3.007   6.397  18.713  0.00  0.00    +0.000 NA
ENDROOT
BRANCH   1  10
ATOM      7  C   UNL     1       5.997   4.828  14.931  0.00  0.00    +0.000 A 
ATOM      8  C   UNL     1       5.625   3.696  15.652  0.00  0.00    +0.000 A 
ATOM      9  C   UNL     1       4.816   3.810  16.788  0.00  0.00    +0.000 A 
ATOM     10  C   UNL     1       4.372   5.062  17.249  0.00  0.00    +0.000 A 
ATOM     11  C   UNL     1       4.757   6.191  16.503  0.00  0.00    +0.000 A 
ATOM     12  C   UNL     1       5.563   6.079  15.362  0.00  0.00    +0.000 A 
BRANCH   7  14
ATOM     13  C   UNL     1       6.329   3.661  12.902  0.00  0.00    +0.000 C 
ATOM     14  O   UNL     1       6.810   4.602  13.856  0.00  0.00    +0.000 OA
ENDBRANCH   7  14
ENDBRANCH   1  10
BRANCH   5  15
ATOM     15  C   UNL     1       1.693   7.942  20.007  0.00  0.00    +0.000 A 
ATOM     16  C   UNL     1       1.614   8.841  18.930  0.00  0.00    +0.000 A 
ATOM     17  C   UNL     1       1.133  10.143  19.101  0.00  0.00    +0.000 A 
ATOM     18  C   UNL     1       0.695  10.578  20.349  0.00  0.00    +0.000 A 
ATOM     19  C   UNL     1       0.759   9.706  21.431  0.00  0.00    +0.000 A 
ATOM     20  C   UNL     1       1.247   8.403  21.258  0.00  0.00    +0.000 A 
BRANCH  18  21
ATOM     21  O   UNL     1       0.266  11.875  20.402  0.00  0.00    +0.000 OA
ATOM     22  C   UNL     1       1.275  12.844  20.669  0.00  0.00    +0.000 C 
ENDBRANCH  18  21
ENDBRANCH   5  15
TORSDOF 4
ENDMDL
MODEL 8
REMARK VINA RESULT:      -7.3      1.188      7.678
REMARK  Name = 
REMARK  6 active torsions:
REMARK  status: ('A' for Active; 'I' for Inactive)
REMARK    1  A    between atoms: C_1  and  O_2
REMARK    2  A    between atoms: O_2  and  C_3
REMARK    3  A    between atoms: C_6  and  C_7
REMARK    4  A    between atoms: C_11  and  C_12
REMARK    5  A    between atoms: C_15  and  O_16
REMARK    6  A    between atoms: O_16  and  C_17
REMARK                            x       y       z     vdW  Elec       q    Type
REMARK                         _______ _______ _______ _____ _____    ______ ____
ROOT
ATOM      1  C   UNL     1       2.230   6.797  19.611  0.00  0.00    +0.000 A 
ATOM      2  C   UNL     1       1.960   5.839  20.586  0.00  0.00    +0.000 A 
ATOM      3  C   UNL     1       2.511   4.571  20.464  0.00  0.00    +0.000 A 
ATOM      4  C   UNL     1       3.325   4.285  19.375  0.00  0.00    +0.000 A 
ATOM      5  C   UNL     1       3.576   5.280  18.433  0.00  0.00    +0.000 A 
ATOM      6  N   UNL     1       3.032   6.519  18.550  0.00  0.00    +0.000 NA
ENDROOT
BRANCH   1  10
ATOM      7  C   UNL     1       0.687  10.828  19.768  0.00  0.00    +0.000 A 
ATOM      8  C   UNL     1       1.218  10.315  18.586  0.00  0.00    +0.000 A 
ATOM      9  C   UNL     1       1.699   9.002  18.533  0.00  0.00    +0.000 A 
ATOM     10  C   UNL     1       1.684   8.170  19.667  0.00  0.00    +0.000 A 
ATOM     11  C   UNL     1       1.141   8.708  20.848  0.00  0.00    +0.000 A 
ATOM     12  C   UNL     1       0.653  10.021  20.901  0.00  0.00    +0.000 A 
BRANCH   7  14
ATOM     13  C   UNL     1       0.874  12.928  18.699  0.00  0.00    +0.000 C 
ATOM     14  O   UNL     1       0.272  12.129  19.712  0.00  0.00    +0.000 OA
ENDBRANCH   7  14
ENDBRANCH   1  10
BRANCH   5  15
ATOM     15  C   UNL     1       4.426   5.059  17.241  0.00  0.00    +0.000 A 
ATOM     16  C   UNL     1       4.833   6.140  16.440  0.00  0.00    +0.000 A 
ATOM     17  C   UNL     1       5.612   5.945  15.295  0.00  0.00    +0.000 A 
ATOM     18  C   UNL     1       6.028   4.668  14.930  0.00  0.00    +0.000 A 
ATOM     19  C   UNL     1       5.641   3.581  15.709  0.00  0.00    +0.000 A 
ATOM     20  C   UNL     1       4.855   3.778  16.853  0.00  0.00    +0.000 A 
BRANCH  18  21
ATOM     21  O   UNL     1       6.767   4.596  13.783  0.00  0.00    +0.000 OA
ATOM     22  C   UNL     1       6.305   3.662  12.813  0.00  0.00    +0.000 C 
ENDBRANCH  18  21
ENDBRANCH   5  15
TORSDOF 4
ENDMDL
MODEL 9
REMARK VINA RESULT:      -7.3      1.193      1.319
REMARK  Name = 
REMARK  6 active torsions:
REMARK  status: ('A' for Active; 'I' for Inactive)
REMARK    1  A    between atoms: C_1  and  O_2
REMARK    2  A    between atoms: O_2  and  C_3
REMARK    3  A    between atoms: C_6  and  C_7
REMARK    4  A    between atoms: C_11  and  C_12
REMARK    5  A    between atoms: C_15  and  O_16
REMARK    6  A    between atoms: O_16  and  C_17
REMARK                            x       y       z     vdW  Elec       q    Type
REMARK                         _______ _______ _______ _____ _____    ______ ____
ROOT
ATOM      1  C   UNL     1       3.582   5.273  18.426  0.00  0.00    +0.000 A 
ATOM      2  C   UNL     1       3.332   4.277  19.368  0.00  0.00    +0.000 A 
ATOM      3  C   UNL     1       2.519   4.558  20.458  0.00  0.00    +0.000 A 
ATOM      4  C   UNL     1       1.967   5.827  20.582  0.00  0.00    +0.000 A 
ATOM      5  C   UNL     1       2.235   6.786  19.609  0.00  0.00    +0.000 A 
ATOM      6  N   UNL     1       3.036   6.511  18.546  0.00  0.00    +0.000 NA
ENDROOT
BRANCH   1  10
ATOM      7  C   UNL     1       6.029   4.648  14.924  0.00  0.00    +0.000 A 
ATOM      8  C   UNL     1       5.617   5.929  15.283  0.00  0.00    +0.000 A 
ATOM      9  C   UNL     1       4.841   6.130  16.430  0.00  0.00    +0.000 A 
ATOM     10  C   UNL     1       4.434   5.054  17.238  0.00  0.00    +0.000 A 
ATOM     11  C   UNL     1       4.865   3.769  16.857  0.00  0.00    +0.000 A 
ATOM     12  C   UNL     1       5.647   3.566  15.712  0.00  0.00    +0.000 A 
BRANCH   7  14
ATOM     13  C   UNL     1       6.286   3.637  12.802  0.00  0.00    +0.000 C 
ATOM     14  O   UNL     1       6.760   4.565  13.771  0.00  0.00    +0.000 OA
ENDBRANCH   7  14
ENDBRANCH   1  10
BRANCH   5  15
ATOM     15  C   UNL     1       1.693   8.162  19.668  0.00  0.00    +0.000 A 
ATOM     16  C   UNL     1       1.694   8.983  18.527  0.00  0.00    +0.000 A 
ATOM     17  C   UNL     1       1.212  10.295  18.573  0.00  0.00    +0.000 A 
ATOM     18  C   UNL     1       0.691  10.817  19.754  0.00  0.00    +0.000 A 
ATOM     19  C   UNL     1       0.676  10.023  20.897  0.00  0.00    +0.000 A 
ATOM     20  C   UNL     1       1.166   8.711  20.850  0.00  0.00    +0.000 A 
BRANCH  18  21
ATOM     21  O   UNL     1       0.268  12.115  19.687  0.00  0.00    +0.000 OA
ATOM     22  C   UNL     1       1.026  12.964  18.830  0.00  0.00    +0.000 C 
ENDBRANCH  18  21
ENDBRANCH   5  15
TORSDOF 4
ENDMDL
