MODEL 1
REMARK VINA RESULT:      -8.1      0.000      0.000
REMARK  Name = 
REMARK  5 active torsions:
REMARK  status: ('A' for Active; 'I' for Inactive)
REMARK    1  A    between atoms: C_1  and  O_2
REMARK    2  A    between atoms: O_2  and  C_3
REMARK    3  A    between atoms: C_8  and  C_9
REMARK    4  A    between atoms: N_12  and  C_13
REMARK    5  A    between atoms: C_13  and  C_14
REMARK                            x       y       z     vdW  Elec       q    Type
REMARK                         _______ _______ _______ _____ _____    ______ ____
ROOT
ATOM      1  C   UNL     1       1.798   3.245  19.385  0.00  0.00    +0.000 A 
ATOM      2  C   UNL     1       2.234   2.128  18.659  0.00  0.00    +0.000 A 
ATOM      3  C   UNL     1       3.124   2.279  17.611  0.00  0.00    +0.000 A 
ATOM      4  C   UNL     1       3.600   3.548  17.302  0.00  0.00    +0.000 A 
ATOM      5  C   UNL     1       3.211   4.691  18.042  0.00  0.00    +0.000 A 
ATOM      6  C   UNL     1       3.715   5.989  17.785  0.00  0.00    +0.000 A 
ATOM      7  C   UNL     1       4.637   6.349  16.651  0.00  0.00    +0.000 C 
ATOM      8  C   UNL     1       3.314   7.044  18.612  0.00  0.00    +0.000 A 
ATOM      9  C   UNL     1       2.393   6.826  19.619  0.00  0.00    +0.000 A 
ATOM     10  N   UNL     1       1.994   7.926  20.391  0.00  0.00    +0.000 N 
ATOM     11  N   UNL     1       1.892   5.605  19.849  0.00  0.00    +0.000 NA
ATOM     12  C   UNL     1       2.284   4.540  19.110  0.00  0.00    +0.000 A 
ATOM     13  H   UNL     1       2.779   8.209  20.975  0.00  0.00    +0.000 HD
ENDROOT
BRANCH   1  15
ATOM     14  C   UNL     1       1.508   2.587  21.652  0.00  0.00    +0.000 C 
ATOM     15  O   UNL     1       0.923   2.897  20.394  0.00  0.00    +0.000 OA
ENDBRANCH   1  15
BRANCH  10  16
ATOM     16  C   UNL     1       0.790   7.719  21.183  0.00  0.00    +0.000 C 
BRANCH  16  17
ATOM     17  C   UNL     1       0.166   9.067  21.470  0.00  0.00    +0.000 A 
ATOM     18  C   UNL     1      -0.219   9.358  22.793  0.00  0.00    +0.000 A 
ATOM     19  C   UNL     1      -0.808  10.580  23.124  0.00  0.00    +0.000 A 
ATOM     20  C   UNL     1      -1.035  11.529  22.134  0.00  0.00    +0.000 A 
ATOM     21  C   UNL     1      -0.682  11.252  20.816  0.00  0.00    +0.000 A 
ATOM     22  C   UNL     1      -0.089  10.027  20.479  0.00  0.00    +0.000 A 
ATOM     23 CL   UNL     1       0.296   9.756  18.818  0.00  0.00    +0.000 Cl
ENDBRANCH  16  17
ENDBRANCH  10  16
TORSDOF 3
ENDMDL
MODEL 2
REMARK VINA RESULT:      -8.1      3.036      6.256
REMARK  Name = 
REMARK  5 active torsions:
REMARK  status: ('A' for Active; 'I' for Inactive)
REMARK    1  A    between atoms: C_1  and  O_2
REMARK    2  A    between atoms: O_2  and  C_3
REMARK    3  A    between atoms: C_8  and  C_9
REMARK    4  A    between atoms: N_12  and  C_13
REMARK    5  A    between atoms: C_13  and  C_14
REMARK                            x       y       z     vdW  Elec       q    Type
REMARK                         _______ _______ _______ _____ _____    ______ ____
ROOT
ATOM      1  C   UNL     1       2.484   3.314  18.643  0.00  0.00    +0.000 A 
ATOM      2  C   UNL     1       1.728   2.607  19.587  0.00  0.00    +0.000 A 
ATOM      3  C   UNL     1       1.111   3.275  20.630  0.00  0.00    +0.000 A 
ATOM      4  C   UNL     1       1.230   4.658  20.715  0.00  0.00    +0.000 A 
ATOM      5  C   UNL     1       1.952   5.405  19.753  0.00  0.00    +0.000 A 
ATOM      6  C   UNL     1       2.051   6.817  19.783  0.00  0.00    +0.000 A 
ATOM      7  C   UNL     1       1.499   7.699  20.872  0.00  0.00    +0.000 C 
ATOM      8  C   UNL     1       2.738   7.467  18.752  0.00  0.00    +0.000 A 
ATOM      9  C   UNL     1       3.361   6.732  17.762  0.00  0.00    +0.000 A 
ATOM     10  N   UNL     1       4.071   7.431  16.776  0.00  0.00    +0.000 N 
ATOM     11  N   UNL     1       3.294   5.394  17.743  0.00  0.00    +0.000 NA
ATOM     12  C   UNL     1       2.600   4.718  18.690  0.00  0.00    +0.000 A 
ATOM     13  H   UNL     1       3.402   7.924  16.188  0.00  0.00    +0.000 HD
ENDROOT
BRANCH   1  15
ATOM     14  C   UNL     1       3.728   1.347  18.148  0.00  0.00    +0.000 C 
ATOM     15  O   UNL     1       3.012   2.482  17.676  0.00  0.00    +0.000 OA
ENDBRANCH   1  15
BRANCH  10  16
ATOM     16  C   UNL     1       4.982   6.621  15.980  0.00  0.00    +0.000 C 
BRANCH  16  17
ATOM     17  C   UNL     1       6.112   6.153  16.869  0.00  0.00    +0.000 A 
ATOM     18  C   UNL     1       6.777   7.107  17.664  0.00  0.00    +0.000 A 
ATOM     19  C   UNL     1       7.834   6.743  18.500  0.00  0.00    +0.000 A 
ATOM     20  C   UNL     1       8.254   5.419  18.548  0.00  0.00    +0.000 A 
ATOM     21  C   UNL     1       7.623   4.464  17.754  0.00  0.00    +0.000 A 
ATOM     22  C   UNL     1       6.561   4.825  16.914  0.00  0.00    +0.000 A 
ATOM     23 CL   UNL     1       5.851   3.583  15.946  0.00  0.00    +0.000 Cl
ENDBRANCH  16  17
ENDBRANCH  10  16
TORSDOF 3
ENDMDL
MODEL 3
REMARK VINA RESULT:      -8.0      1.147      1.572
REMARK  Name = 
REMARK  5 active torsions:
REMARK  status: ('A' for Active; 'I' for Inactive)
REMARK    1  A    between atoms: C_1  and  O_2
REMARK    2  A    between atoms: O_2  and  C_3
REMARK    3  A    between atoms: C_8  and  C_9
REMARK    4  A    between atoms: N_12  and  C_13
REMARK    5  A    between atoms: C_13  and  C_14
REMARK                            x       y       z     vdW  Elec       q    Type
REMARK                         _______ _______ _______ _____ _____    ______ ____
ROOT
ATOM      1  C   UNL     1       1.748   3.306  19.529  0.00  0.00    +0.000 A 
ATOM      2  C   UNL     1       2.111   2.115  18.888  0.00  0.00    +0.000 A 
ATOM      3  C   UNL     1       2.983   2.137  17.814  0.00  0.00    +0.000 A 
ATOM      4  C   UNL     1       3.513   3.352  17.395  0.00  0.00    +0.000 A 
ATOM      5  C   UNL     1       3.198   4.568  18.049  0.00  0.00    +0.000 A 
ATOM      6  C   UNL     1       3.758   5.815  17.678  0.00  0.00    +0.000 A 
ATOM      7  C   UNL     1       4.671   6.036  16.501  0.00  0.00    +0.000 C 
ATOM      8  C   UNL     1       3.429   6.951  18.425  0.00  0.00    +0.000 A 
ATOM      9  C   UNL     1       2.522   6.860  19.464  0.00  0.00    +0.000 A 
ATOM     10  N   UNL     1       2.195   8.036  20.153  0.00  0.00    +0.000 N 
ATOM     11  N   UNL     1       1.968   5.688  19.801  0.00  0.00    +0.000 NA
ATOM     12  C   UNL     1       2.290   4.549  19.142  0.00  0.00    +0.000 A 
ATOM     13  H   UNL     1       3.006   8.324  20.697  0.00  0.00    +0.000 HD
ENDROOT
BRANCH   1  15
ATOM     14  C   UNL     1       1.462   2.595  21.782  0.00  0.00    +0.000 C 
ATOM     15  O   UNL     1       0.880   3.084  20.580  0.00  0.00    +0.000 OA
ENDBRANCH   1  15
BRANCH  10  16
ATOM     16  C   UNL     1       1.001   7.954  20.982  0.00  0.00    +0.000 C 
BRANCH  16  17
ATOM     17  C   UNL     1       0.269   9.275  20.902  0.00  0.00    +0.000 A 
ATOM     18  C   UNL     1       0.047   9.841  19.631  0.00  0.00    +0.000 A 
ATOM     19  C   UNL     1      -0.616  11.062  19.488  0.00  0.00    +0.000 A 
ATOM     20  C   UNL     1      -1.057  11.745  20.615  0.00  0.00    +0.000 A 
ATOM     21  C   UNL     1      -0.829  11.213  21.881  0.00  0.00    +0.000 A 
ATOM     22  C   UNL     1      -0.166   9.987  22.030  0.00  0.00    +0.000 A 
ATOM     23 CL   UNL     1       0.097   9.411  23.637  0.00  0.00    +0.000 Cl
ENDBRANCH  16  17
ENDBRANCH  10  16
TORSDOF 3
ENDMDL
MODEL 4
REMARK VINA RESULT:      -8.0      3.895      7.811
REMARK  Name = 
REMARK  5 active torsions:
REMARK  status: ('A' for Active; 'I' for Inactive)
REMARK    1  A    between atoms: C_1  and  O_2
REMARK    2  A    between atoms: O_2  and  C_3
REMARK    3  A    between atoms: C_8  and  C_9
REMARK    4  A    between atoms: N_12  and  C_13
REMARK    5  A    between atoms: C_13  and  C_14
REMARK                            x       y       z     vdW  Elec       q    Type
REMARK                         _______ _______ _______ _____ _____    ______ ____
ROOT
ATOM      1  C   UNL     1       3.630   3.833  19.257  0.00  0.00    +0.000 A 
ATOM      2  C   UNL     1       2.727   3.677  20.316  0.00  0.00    +0.000 A 
ATOM      3  C   UNL     1       1.930   4.735  20.717  0.00  0.00    +0.000 A 
ATOM      4  C   UNL     1       2.018   5.946  20.040  0.00  0.00    +0.000 A 
ATOM      5  C   UNL     1       2.891   6.122  18.938  0.00  0.00    +0.000 A 
ATOM      6  C   UNL     1       2.969   7.325  18.196  0.00  0.00    +0.000 A 
ATOM      7  C   UNL     1       2.226   8.593  18.526  0.00  0.00    +0.000 C 
ATOM      8  C   UNL     1       3.819   7.380  17.087  0.00  0.00    +0.000 A 
ATOM      9  C   UNL     1       4.614   6.296  16.767  0.00  0.00    +0.000 A 
ATOM     10  N   UNL     1       5.480   6.418  15.671  0.00  0.00    +0.000 N 
ATOM     11  N   UNL     1       4.565   5.164  17.482  0.00  0.00    +0.000 NA
ATOM     12  C   UNL     1       3.722   5.041  18.536  0.00  0.00    +0.000 A 
ATOM     13  H   UNL     1       4.919   6.439  14.821  0.00  0.00    +0.000 HD
ENDROOT
BRANCH   1  15
ATOM     14  C   UNL     1       3.600   1.630  18.358  0.00  0.00    +0.000 C 
ATOM     15  O   UNL     1       4.329   2.670  18.997  0.00  0.00    +0.000 OA
ENDBRANCH   1  15
BRANCH  10  16
ATOM     16  C   UNL     1       6.523   5.407  15.593  0.00  0.00    +0.000 C 
BRANCH  16  17
ATOM     17  C   UNL     1       6.433   4.725  14.245  0.00  0.00    +0.000 A 
ATOM     18  C   UNL     1       5.351   3.856  14.006  0.00  0.00    +0.000 A 
ATOM     19  C   UNL     1       5.214   3.189  12.787  0.00  0.00    +0.000 A 
ATOM     20  C   UNL     1       6.163   3.371  11.788  0.00  0.00    +0.000 A 
ATOM     21  C   UNL     1       7.252   4.210  12.013  0.00  0.00    +0.000 A 
ATOM     22  C   UNL     1       7.393   4.882  13.234  0.00  0.00    +0.000 A 
ATOM     23 CL   UNL     1       8.785   5.885  13.438  0.00  0.00    +0.000 Cl
ENDBRANCH  16  17
ENDBRANCH  10  16
TORSDOF 3
ENDMDL
MODEL 5
REMARK VINA RESULT:      -7.7      3.525      7.584
REMARK  Name = 
REMARK  5 active torsions:
REMARK  status: ('A' for Active; 'I' for Inactive)
REMARK    1  A    between atoms: C_1  and  O_2
REMARK    2  A    between atoms: O_2  and  C_3
REMARK    3  A    between atoms: C_8  and  C_9
REMARK    4  A    between atoms: N_12  and  C_13
REMARK    5  A    between atoms: C_13  and  C_14
REMARK                            x       y       z     vdW  Elec       q    Type
REMARK                         _______ _______ _______ _____ _____    ______ ____
ROOT
ATOM      1  C   UNL     1       3.566   3.722  19.456  0.00  0.00    +0.000 A 
ATOM      2  C   UNL     1       2.579   3.465  20.417  0.00  0.00    +0.000 A 
ATOM      3  C   UNL     1       1.688   4.458  20.786  0.00  0.00    +0.000 A 
ATOM      4  C   UNL     1       1.769   5.704  20.176  0.00  0.00    +0.000 A 
ATOM      5  C   UNL     1       2.729   5.981  19.172  0.00  0.00    +0.000 A 
ATOM      6  C   UNL     1       2.806   7.223  18.496  0.00  0.00    +0.000 A 
ATOM      7  C   UNL     1       1.964   8.432  18.810  0.00  0.00    +0.000 C 
ATOM      8  C   UNL     1       3.752   7.380  17.477  0.00  0.00    +0.000 A 
ATOM      9  C   UNL     1       4.634   6.356  17.186  0.00  0.00    +0.000 A 
ATOM     10  N   UNL     1       5.590   6.579  16.185  0.00  0.00    +0.000 N 
ATOM     11  N   UNL     1       4.584   5.188  17.841  0.00  0.00    +0.000 NA
ATOM     12  C   UNL     1       3.655   4.968  18.803  0.00  0.00    +0.000 A 
ATOM     13  H   UNL     1       5.110   6.613  15.287  0.00  0.00    +0.000 HD
ENDROOT
BRANCH   1  15
ATOM     14  C   UNL     1       3.708   1.516  18.578  0.00  0.00    +0.000 C 
ATOM     15  O   UNL     1       4.352   2.613  19.213  0.00  0.00    +0.000 OA
ENDBRANCH   1  15
BRANCH  10  16
ATOM     16  C   UNL     1       6.693   5.630  16.162  0.00  0.00    +0.000 C 
BRANCH  16  17
ATOM     17  C   UNL     1       6.777   5.023  14.778  0.00  0.00    +0.000 A 
ATOM     18  C   UNL     1       7.711   5.558  13.869  0.00  0.00    +0.000 A 
ATOM     19  C   UNL     1       7.834   5.050  12.574  0.00  0.00    +0.000 A 
ATOM     20  C   UNL     1       7.015   4.006  12.161  0.00  0.00    +0.000 A 
ATOM     21  C   UNL     1       6.070   3.478  13.037  0.00  0.00    +0.000 A 
ATOM     22  C   UNL     1       5.944   3.984  14.338  0.00  0.00    +0.000 A 
ATOM     23 CL   UNL     1       4.731   3.288  15.352  0.00  0.00    +0.000 Cl
ENDBRANCH  16  17
ENDBRANCH  10  16
TORSDOF 3
ENDMDL
MODEL 6
REMARK VINA RESULT:      -7.7      1.692      3.135
REMARK  Name = 
REMARK  5 active torsions:
REMARK  status: ('A' for Active; 'I' for Inactive)
REMARK    1  A    between atoms: C_1  and  O_2
REMARK    2  A    between atoms: O_2  and  C_3
REMARK    3  A    between atoms: C_8  and  C_9
REMARK    4  A    between atoms: N_12  and  C_13
REMARK    5  A    between atoms: C_13  and  C_14
REMARK                            x       y       z     vdW  Elec       q    Type
REMARK                         _______ _______ _______ _____ _____    ______ ____
ROOT
ATOM      1  C   UNL     1       3.947   5.540  17.617  0.00  0.00    +0.000 A 
ATOM      2  C   UNL     1       4.522   4.471  16.917  0.00  0.00    +0.000 A 
ATOM      3  C   UNL     1       4.359   3.172  17.367  0.00  0.00    +0.000 A 
ATOM      4  C   UNL     1       3.599   2.939  18.507  0.00  0.00    +0.000 A 
ATOM      5  C   UNL     1       2.971   3.995  19.213  0.00  0.00    +0.000 A 
ATOM      6  C   UNL     1       2.150   3.787  20.348  0.00  0.00    +0.000 A 
ATOM      7  C   UNL     1       1.914   2.455  21.011  0.00  0.00    +0.000 C 
ATOM      8  C   UNL     1       1.526   4.889  20.941  0.00  0.00    +0.000 A 
ATOM      9  C   UNL     1       1.764   6.163  20.459  0.00  0.00    +0.000 A 
ATOM     10  N   UNL     1       1.147   7.237  21.115  0.00  0.00    +0.000 N 
ATOM     11  N   UNL     1       2.561   6.368  19.402  0.00  0.00    +0.000 NA
ATOM     12  C   UNL     1       3.151   5.331  18.762  0.00  0.00    +0.000 A 
ATOM     13  H   UNL     1       0.147   7.197  20.925  0.00  0.00    +0.000 HD
ENDROOT
BRANCH   1  15
ATOM     14  C   UNL     1       5.078   6.721  15.889  0.00  0.00    +0.000 C 
ATOM     15  O   UNL     1       4.209   6.754  17.014  0.00  0.00    +0.000 OA
ENDBRANCH   1  15
BRANCH  10  16
ATOM     16  C   UNL     1       1.694   8.549  20.802  0.00  0.00    +0.000 C 
BRANCH  16  17
ATOM     17  C   UNL     1       0.787   9.603  21.397  0.00  0.00    +0.000 A 
ATOM     18  C   UNL     1       0.104   9.301  22.591  0.00  0.00    +0.000 A 
ATOM     19  C   UNL     1      -0.755  10.227  23.188  0.00  0.00    +0.000 A 
ATOM     20  C   UNL     1      -0.955  11.467  22.595  0.00  0.00    +0.000 A 
ATOM     21  C   UNL     1      -0.305  11.777  21.403  0.00  0.00    +0.000 A 
ATOM     22  C   UNL     1       0.559  10.852  20.801  0.00  0.00    +0.000 A 
ATOM     23 CL   UNL     1       1.306  11.308  19.312  0.00  0.00    +0.000 Cl
ENDBRANCH  16  17
ENDBRANCH  10  16
TORSDOF 3
ENDMDL
MODEL 7
REMARK VINA RESULT:      -7.6      1.763      3.260
REMARK  Name = 
REMARK  5 active torsions:
REMARK  status: ('A' for Active; 'I' for Inactive)
REMARK    1  A    between atoms: C_1  and  O_2
REMARK    2  A    between atoms: O_2  and  C_3
REMARK    3  A    between atoms: C_8  and  C_9
REMARK    4  A    between atoms: N_12  and  C_13
REMARK    5  A    between atoms: C_13  and  C_14
REMARK                            x       y       z     vdW  Elec       q    Type
REMARK                         _______ _______ _______ _____ _____    ______ ____
ROOT
ATOM      1  C   UNL     1       3.990   5.525  17.624  0.00  0.00    +0.000 A 
ATOM      2  C   UNL     1       4.505   4.440  16.903  0.00  0.00    +0.000 A 
ATOM      3  C   UNL     1       4.225   3.143  17.295  0.00  0.00    +0.000 A 
ATOM      4  C   UNL     1       3.407   2.930  18.399  0.00  0.00    +0.000 A 
ATOM      5  C   UNL     1       2.838   4.005  19.124  0.00  0.00    +0.000 A 
ATOM      6  C   UNL     1       1.961   3.822  20.221  0.00  0.00    +0.000 A 
ATOM      7  C   UNL     1       1.597   2.490  20.823  0.00  0.00    +0.000 C 
ATOM      8  C   UNL     1       1.404   4.948  20.835  0.00  0.00    +0.000 A 
ATOM      9  C   UNL     1       1.758   6.216  20.412  0.00  0.00    +0.000 A 
ATOM     10  N   UNL     1       1.203   7.311  21.088  0.00  0.00    +0.000 N 
ATOM     11  N   UNL     1       2.607   6.396  19.392  0.00  0.00    +0.000 NA
ATOM     12  C   UNL     1       3.138   5.338  18.732  0.00  0.00    +0.000 A 
ATOM     13  H   UNL     1       0.211   7.358  20.862  0.00  0.00    +0.000 HD
ENDROOT
BRANCH   1  15
ATOM     14  C   UNL     1       5.133   6.672  15.881  0.00  0.00    +0.000 C 
ATOM     15  O   UNL     1       4.369   6.736  17.079  0.00  0.00    +0.000 OA
ENDBRANCH   1  15
BRANCH  10  16
ATOM     16  C   UNL     1       1.862   8.585  20.846  0.00  0.00    +0.000 C 
BRANCH  16  17
ATOM     17  C   UNL     1       0.821   9.590  20.405  0.00  0.00    +0.000 A 
ATOM     18  C   UNL     1       0.028  10.209  21.392  0.00  0.00    +0.000 A 
ATOM     19  C   UNL     1      -0.956  11.139  21.053  0.00  0.00    +0.000 A 
ATOM     20  C   UNL     1      -1.175  11.458  19.718  0.00  0.00    +0.000 A 
ATOM     21  C   UNL     1      -0.417  10.842  18.726  0.00  0.00    +0.000 A 
ATOM     22  C   UNL     1       0.574   9.909  19.062  0.00  0.00    +0.000 A 
ATOM     23 CL   UNL     1       1.451   9.175  17.768  0.00  0.00    +0.000 Cl
ENDBRANCH  16  17
ENDBRANCH  10  16
TORSDOF 3
ENDMDL
MODEL 8
REMARK VINA RESULT:      -7.6      2.012      3.517
REMARK  Name = 
REMARK  5 active torsions:
REMARK  status: ('A' for Active; 'I' for Inactive)
REMARK    1  A    between atoms: C_1  and  O_2
REMARK    2  A    between atoms: O_2  and  C_3
REMARK    3  A    between atoms: C_8  and  C_9
REMARK    4  A    between atoms: N_12  and  C_13
REMARK    5  A    between atoms: C_13  and  C_14
REMARK                            x       y       z     vdW  Elec       q    Type
REMARK                         _______ _______ _______ _____ _____    ______ ____
ROOT
ATOM      1  C   UNL     1       4.164   5.767  17.674  0.00  0.00    +0.000 A 
ATOM      2  C   UNL     1       4.726   4.794  16.837  0.00  0.00    +0.000 A 
ATOM      3  C   UNL     1       4.412   3.457  17.011  0.00  0.00    +0.000 A 
ATOM      4  C   UNL     1       3.516   3.095  18.010  0.00  0.00    +0.000 A 
ATOM      5  C   UNL     1       2.900   4.059  18.845  0.00  0.00    +0.000 A 
ATOM      6  C   UNL     1       1.946   3.728  19.838  0.00  0.00    +0.000 A 
ATOM      7  C   UNL     1       1.534   2.328  20.207  0.00  0.00    +0.000 C 
ATOM      8  C   UNL     1       1.350   4.759  20.571  0.00  0.00    +0.000 A 
ATOM      9  C   UNL     1       1.739   6.070  20.368  0.00  0.00    +0.000 A 
ATOM     10  N   UNL     1       1.141   7.061  21.159  0.00  0.00    +0.000 N 
ATOM     11  N   UNL     1       2.661   6.387  19.449  0.00  0.00    +0.000 NA
ATOM     12  C   UNL     1       3.233   5.431  18.678  0.00  0.00    +0.000 A 
ATOM     13  H   UNL     1       0.169   7.155  20.873  0.00  0.00    +0.000 HD
ENDROOT
BRANCH   1  15
ATOM     14  C   UNL     1       5.980   7.198  17.111  0.00  0.00    +0.000 C 
ATOM     15  O   UNL     1       4.586   7.040  17.343  0.00  0.00    +0.000 OA
ENDBRANCH   1  15
BRANCH  10  16
ATOM     16  C   UNL     1       1.822   8.347  21.156  0.00  0.00    +0.000 C 
BRANCH  16  17
ATOM     17  C   UNL     1       0.857   9.401  20.659  0.00  0.00    +0.000 A 
ATOM     18  C   UNL     1       0.894   9.751  19.295  0.00  0.00    +0.000 A 
ATOM     19  C   UNL     1       0.036  10.722  18.773  0.00  0.00    +0.000 A 
ATOM     20  C   UNL     1      -0.865  11.369  19.608  0.00  0.00    +0.000 A 
ATOM     21  C   UNL     1      -0.902  11.054  20.965  0.00  0.00    +0.000 A 
ATOM     22  C   UNL     1      -0.045  10.079  21.493  0.00  0.00    +0.000 A 
ATOM     23 CL   UNL     1      -0.140   9.765  23.188  0.00  0.00    +0.000 Cl
ENDBRANCH  16  17
ENDBRANCH  10  16
TORSDOF 3
ENDMDL
MODEL 9
REMARK VINA RESULT:      -7.5      2.227      3.705
REMARK  Name = 
REMARK  5 active torsions:
REMARK  status: ('A' for Active; 'I' for Inactive)
REMARK    1  A    between atoms: C_1  and  O_2
REMARK    2  A    between atoms: O_2  and  C_3
REMARK    3  A    between atoms: C_8  and  C_9
REMARK    4  A    between atoms: N_12  and  C_13
REMARK    5  A    between atoms: C_13  and  C_14
REMARK                            x       y       z     vdW  Elec       q    Type
REMARK                         _______ _______ _______ _____ _____    ______ ____
ROOT
ATOM      1  C   UNL     1       5.690   6.165  17.115  0.00  0.00    +0.000 A 
ATOM      2  C   UNL     1       6.520   5.495  16.207  0.00  0.00    +0.000 A 
ATOM      3  C   UNL     1       6.233   4.196  15.824  0.00  0.00    +0.000 A 
ATOM      4  C   UNL     1       5.098   3.574  16.332  0.00  0.00    +0.000 A 
ATOM      5  C   UNL     1       4.217   4.240  17.219  0.00  0.00    +0.000 A 
ATOM      6  C   UNL     1       3.028   3.653  17.715  0.00  0.00    +0.000 A 
ATOM      7  C   UNL     1       2.591   2.235  17.457  0.00  0.00    +0.000 C 
ATOM      8  C   UNL     1       2.193   4.414  18.540  0.00  0.00    +0.000 A 
ATOM      9  C   UNL     1       2.562   5.693  18.911  0.00  0.00    +0.000 A 
ATOM     10  N   UNL     1       1.710   6.397  19.772  0.00  0.00    +0.000 N 
ATOM     11  N   UNL     1       3.699   6.244  18.466  0.00  0.00    +0.000 NA
ATOM     12  C   UNL     1       4.520   5.568  17.626  0.00  0.00    +0.000 A 
ATOM     13  H   UNL     1       0.863   6.637  19.260  0.00  0.00    +0.000 HD
ENDROOT
BRANCH   1  15
ATOM     14  C   UNL     1       7.537   7.614  17.506  0.00  0.00    +0.000 C 
ATOM     15  O   UNL     1       6.131   7.449  17.369  0.00  0.00    +0.000 OA
ENDBRANCH   1  15
BRANCH  10  16
ATOM     16  C   UNL     1       2.299   7.571  20.400  0.00  0.00    +0.000 C 
BRANCH  16  17
ATOM     17  C   UNL     1       1.291   8.699  20.354  0.00  0.00    +0.000 A 
ATOM     18  C   UNL     1       0.515   8.949  21.502  0.00  0.00    +0.000 A 
ATOM     19  C   UNL     1      -0.438   9.970  21.523  0.00  0.00    +0.000 A 
ATOM     20  C   UNL     1      -0.641  10.750  20.391  0.00  0.00    +0.000 A 
ATOM     21  C   UNL     1       0.101  10.503  19.239  0.00  0.00    +0.000 A 
ATOM     22  C   UNL     1       1.060   9.482  19.213  0.00  0.00    +0.000 A 
ATOM     23 CL   UNL     1       1.919   9.229  17.737  0.00  0.00    +0.000 Cl
ENDBRANCH  16  17
ENDBRANCH  10  16
TORSDOF 3
ENDMDL
