MODEL 1
REMARK VINA RESULT:      -7.3      0.000      0.000
REMARK  Name = 
REMARK  10 active torsions:
REMARK  status: ('A' for Active; 'I' for Inactive)
REMARK    1  A    between atoms: C_1  and  O_2
REMARK    2  A    between atoms: O_2  and  C_3
REMARK    3  A    between atoms: C_6  and  C_7
REMARK    4  A    between atoms: C_9  and  C_10
REMARK    5  A    between atoms: C_10  and  N_11
REMARK    6  A    between atoms: N_11  and  C_12
REMARK    7  A    between atoms: C_12  and  C_13
REMARK    8  A    between atoms: C_13  and  C_14
REMARK    9  A    between atoms: C_19  and  O_20
REMARK   10  A    between atoms: O_20  and  C_21
REMARK                            x       y       z     vdW  Elec       q    Type
REMARK                         _______ _______ _______ _____ _____    ______ ____
ROOT
ATOM      1  C   UNL     1       8.248   8.667  18.248  0.00  0.00    +0.000 A 
ATOM      2  N   UNL     1       8.467   7.497  18.820  0.00  0.00    +0.000 NA
ATOM      3  C   UNL     1       7.674   6.622  18.104  0.00  0.00    +0.000 A 
ATOM      4  C   UNL     1       7.001   7.311  17.122  0.00  0.00    +0.000 A 
ATOM      5  O   UNL     1       7.356   8.619  17.206  0.00  0.00    +0.000 OA
ENDROOT
BRANCH   1   9
ATOM      6  C   UNL     1       9.859  12.522  19.163  0.00  0.00    +0.000 A 
ATOM      7  C   UNL     1       9.170  12.309  17.964  0.00  0.00    +0.000 A 
ATOM      8  C   UNL     1       8.642  11.049  17.666  0.00  0.00    +0.000 A 
ATOM      9  C   UNL     1       8.810   9.978  18.554  0.00  0.00    +0.000 A 
ATOM     10  C   UNL     1       9.528  10.197  19.737  0.00  0.00    +0.000 A 
ATOM     11  C   UNL     1      10.046  11.457  20.036  0.00  0.00    +0.000 A 
BRANCH   6  13
ATOM     12  C   UNL     1       9.489  14.835  18.891  0.00  0.00    +0.000 C 
ATOM     13  O   UNL     1      10.339  13.789  19.349  0.00  0.00    +0.000 OA
ENDBRANCH   6  13
ENDBRANCH   1   9
BRANCH   3  14
ATOM     14  C   UNL     1       7.560   5.184  18.470  0.00  0.00    +0.000 C 
BRANCH  14  15
ATOM     15  N   UNL     1       6.221   4.881  18.995  0.00  0.00    +0.000 NA
ATOM     16  H   UNL     1       5.773   5.781  19.186  0.00  0.00    +0.000 HD
BRANCH  15  17
ATOM     17  C   UNL     1       5.366   4.142  18.053  0.00  0.00    +0.000 C 
BRANCH  17  18
ATOM     18  C   UNL     1       4.027   4.837  17.763  0.00  0.00    +0.000 C 
BRANCH  18  19
ATOM     19  C   UNL     1       2.973   4.503  18.788  0.00  0.00    +0.000 A 
ATOM     20  C   UNL     1       2.674   3.127  18.938  0.00  0.00    +0.000 A 
ATOM     21  C   UNL     1       1.773   2.672  19.896  0.00  0.00    +0.000 A 
ATOM     22  C   UNL     1       1.135   3.588  20.716  0.00  0.00    +0.000 A 
ATOM     23  C   UNL     1       1.413   4.950  20.577  0.00  0.00    +0.000 A 
ATOM     24  C   UNL     1       2.323   5.425  19.619  0.00  0.00    +0.000 A 
BRANCH  24  25
ATOM     25  O   UNL     1       2.549   6.769  19.732  0.00  0.00    +0.000 OA
ATOM     26  C   UNL     1       1.708   7.555  20.561  0.00  0.00    +0.000 C 
ENDBRANCH  24  25
ENDBRANCH  18  19
ENDBRANCH  17  18
ENDBRANCH  15  17
ENDBRANCH  14  15
ENDBRANCH   3  14
TORSDOF 8
ENDMDL
MODEL 2
REMARK VINA RESULT:      -7.3      1.542      2.506
REMARK  Name = 
REMARK  10 active torsions:
REMARK  status: ('A' for Active; 'I' for Inactive)
REMARK    1  A    between atoms: C_1  and  O_2
REMARK    2  A    between atoms: O_2  and  C_3
REMARK    3  A    between atoms: C_6  and  C_7
REMARK    4  A    between atoms: C_9  and  C_10
REMARK    5  A    between atoms: C_10  and  N_11
REMARK    6  A    between atoms: N_11  and  C_12
REMARK    7  A    between atoms: C_12  and  C_13
REMARK    8  A    between atoms: C_13  and  C_14
REMARK    9  A    between atoms: C_19  and  O_20
REMARK   10  A    between atoms: O_20  and  C_21
REMARK                            x       y       z     vdW  Elec       q    Type
REMARK                         _______ _______ _______ _____ _____    ______ ____
ROOT
ATOM      1  C   UNL     1       8.198   8.670  18.101  0.00  0.00    +0.000 A 
ATOM      2  N   UNL     1       7.407   8.291  17.113  0.00  0.00    +0.000 NA
ATOM      3  C   UNL     1       7.219   6.941  17.333  0.00  0.00    +0.000 A 
ATOM      4  C   UNL     1       7.915   6.559  18.456  0.00  0.00    +0.000 A 
ATOM      5  O   UNL     1       8.547   7.652  18.955  0.00  0.00    +0.000 OA
ENDROOT
BRANCH   1   9
ATOM      6  C   UNL     1       9.817  12.524  19.002  0.00  0.00    +0.000 A 
ATOM      7  C   UNL     1      10.082  11.432  19.837  0.00  0.00    +0.000 A 
ATOM      8  C   UNL     1       9.554  10.171  19.540  0.00  0.00    +0.000 A 
ATOM      9  C   UNL     1       8.738   9.988  18.416  0.00  0.00    +0.000 A 
ATOM     10  C   UNL     1       8.456  11.095  17.606  0.00  0.00    +0.000 A 
ATOM     11  C   UNL     1       8.992  12.349  17.898  0.00  0.00    +0.000 A 
BRANCH   6  13
ATOM     12  C   UNL     1      11.053  14.428  18.363  0.00  0.00    +0.000 C 
ATOM     13  O   UNL     1      10.378  13.710  19.389  0.00  0.00    +0.000 OA
ENDBRANCH   6  13
ENDBRANCH   1   9
BRANCH   3  14
ATOM     14  C   UNL     1       6.440   6.092  16.392  0.00  0.00    +0.000 C 
BRANCH  14  15
ATOM     15  N   UNL     1       5.083   5.852  16.903  0.00  0.00    +0.000 NA
ATOM     16  H   UNL     1       4.485   5.710  16.084  0.00  0.00    +0.000 HD
BRANCH  15  17
ATOM     17  C   UNL     1       4.971   4.658  17.756  0.00  0.00    +0.000 C 
BRANCH  17  18
ATOM     18  C   UNL     1       4.737   4.982  19.239  0.00  0.00    +0.000 C 
BRANCH  18  19
ATOM     19  C   UNL     1       3.471   4.360  19.771  0.00  0.00    +0.000 A 
ATOM     20  C   UNL     1       2.431   5.263  20.097  0.00  0.00    +0.000 A 
ATOM     21  C   UNL     1       1.185   4.820  20.532  0.00  0.00    +0.000 A 
ATOM     22  C   UNL     1       0.957   3.460  20.665  0.00  0.00    +0.000 A 
ATOM     23  C   UNL     1       1.975   2.556  20.354  0.00  0.00    +0.000 A 
ATOM     24  C   UNL     1       3.236   2.985  19.910  0.00  0.00    +0.000 A 
BRANCH  24  25
ATOM     25  O   UNL     1       4.042   1.946  19.538  0.00  0.00    +0.000 OA
ATOM     26  C   UNL     1       3.732   1.199  18.372  0.00  0.00    +0.000 C 
ENDBRANCH  24  25
ENDBRANCH  18  19
ENDBRANCH  17  18
ENDBRANCH  15  17
ENDBRANCH  14  15
ENDBRANCH   3  14
TORSDOF 8
ENDMDL
MODEL 3
REMARK VINA RESULT:      -7.2      1.116      2.089
REMARK  Name = 
REMARK  10 active torsions:
REMARK  status: ('A' for Active; 'I' for Inactive)
REMARK    1  A    between atoms: C_1  and  O_2
REMARK    2  A    between atoms: O_2  and  C_3
REMARK    3  A    between atoms: C_6  and  C_7
REMARK    4  A    between atoms: C_9  and  C_10
REMARK    5  A    between atoms: C_10  and  N_11
REMARK    6  A    between atoms: N_11  and  C_12
REMARK    7  A    between atoms: C_12  and  C_13
REMARK    8  A    between atoms: C_13  and  C_14
REMARK    9  A    between atoms: C_19  and  O_20
REMARK   10  A    between atoms: O_20  and  C_21
REMARK                            x       y       z     vdW  Elec       q    Type
REMARK                         _______ _______ _______ _____ _____    ______ ____
ROOT
ATOM      1  C   UNL     1       8.172   8.435  18.203  0.00  0.00    +0.000 A 
ATOM      2  N   UNL     1       8.431   7.305  18.837  0.00  0.00    +0.000 NA
ATOM      3  C   UNL     1       7.688   6.361  18.155  0.00  0.00    +0.000 A 
ATOM      4  C   UNL     1       7.003   6.971  17.129  0.00  0.00    +0.000 A 
ATOM      5  O   UNL     1       7.301   8.295  17.151  0.00  0.00    +0.000 OA
ENDROOT
BRANCH   1   9
ATOM      6  C   UNL     1       9.605  12.394  18.948  0.00  0.00    +0.000 A 
ATOM      7  C   UNL     1       8.794  12.133  17.838  0.00  0.00    +0.000 A 
ATOM      8  C   UNL     1       8.324  10.838  17.596  0.00  0.00    +0.000 A 
ATOM      9  C   UNL     1       8.673   9.783  18.449  0.00  0.00    +0.000 A 
ATOM     10  C   UNL     1       9.510  10.053  19.540  0.00  0.00    +0.000 A 
ATOM     11  C   UNL     1       9.969  11.347  19.784  0.00  0.00    +0.000 A 
BRANCH   6  13
ATOM     12  C   UNL     1      10.661  14.001  20.314  0.00  0.00    +0.000 C 
ATOM     13  O   UNL     1      10.013  13.693  19.085  0.00  0.00    +0.000 OA
ENDBRANCH   6  13
ENDBRANCH   1   9
BRANCH   3  14
ATOM     14  C   UNL     1       7.629   4.941  18.593  0.00  0.00    +0.000 C 
BRANCH  14  15
ATOM     15  N   UNL     1       6.420   4.283  18.077  0.00  0.00    +0.000 NA
ATOM     16  H   UNL     1       6.658   3.295  17.950  0.00  0.00    +0.000 HD
BRANCH  15  17
ATOM     17  C   UNL     1       5.267   4.356  18.988  0.00  0.00    +0.000 C 
BRANCH  17  18
ATOM     18  C   UNL     1       3.926   4.563  18.268  0.00  0.00    +0.000 C 
BRANCH  18  19
ATOM     19  C   UNL     1       3.262   5.860  18.653  0.00  0.00    +0.000 A 
ATOM     20  C   UNL     1       3.357   6.907  17.704  0.00  0.00    +0.000 A 
ATOM     21  C   UNL     1       2.731   8.134  17.899  0.00  0.00    +0.000 A 
ATOM     22  C   UNL     1       2.006   8.348  19.060  0.00  0.00    +0.000 A 
ATOM     23  C   UNL     1       1.907   7.329  20.010  0.00  0.00    +0.000 A 
ATOM     24  C   UNL     1       2.529   6.084  19.827  0.00  0.00    +0.000 A 
BRANCH  24  25
ATOM     25  O   UNL     1       2.204   5.187  20.806  0.00  0.00    +0.000 OA
ATOM     26  C   UNL     1       1.208   4.207  20.560  0.00  0.00    +0.000 C 
ENDBRANCH  24  25
ENDBRANCH  18  19
ENDBRANCH  17  18
ENDBRANCH  15  17
ENDBRANCH  14  15
ENDBRANCH   3  14
TORSDOF 8
ENDMDL
MODEL 4
REMARK VINA RESULT:      -7.2      1.720      2.095
REMARK  Name = 
REMARK  10 active torsions:
REMARK  status: ('A' for Active; 'I' for Inactive)
REMARK    1  A    between atoms: C_1  and  O_2
REMARK    2  A    between atoms: O_2  and  C_3
REMARK    3  A    between atoms: C_6  and  C_7
REMARK    4  A    between atoms: C_9  and  C_10
REMARK    5  A    between atoms: C_10  and  N_11
REMARK    6  A    between atoms: N_11  and  C_12
REMARK    7  A    between atoms: C_12  and  C_13
REMARK    8  A    between atoms: C_13  and  C_14
REMARK    9  A    between atoms: C_19  and  O_20
REMARK   10  A    between atoms: O_20  and  C_21
REMARK                            x       y       z     vdW  Elec       q    Type
REMARK                         _______ _______ _______ _____ _____    ______ ____
ROOT
ATOM      1  C   UNL     1       8.538   9.085  18.393  0.00  0.00    +0.000 A 
ATOM      2  N   UNL     1       7.662   8.901  17.422  0.00  0.00    +0.000 NA
ATOM      3  C   UNL     1       7.347   7.559  17.507  0.00  0.00    +0.000 A 
ATOM      4  C   UNL     1       8.058   6.985  18.535  0.00  0.00    +0.000 A 
ATOM      5  O   UNL     1       8.825   7.948  19.107  0.00  0.00    +0.000 OA
ENDROOT
BRANCH   1   9
ATOM      6  C   UNL     1      10.597  12.623  19.632  0.00  0.00    +0.000 A 
ATOM      7  C   UNL     1       9.930  11.828  20.570  0.00  0.00    +0.000 A 
ATOM      8  C   UNL     1       9.258  10.669  20.165  0.00  0.00    +0.000 A 
ATOM      9  C   UNL     1       9.229  10.300  18.814  0.00  0.00    +0.000 A 
ATOM     10  C   UNL     1       9.876  11.121  17.881  0.00  0.00    +0.000 A 
ATOM     11  C   UNL     1      10.552  12.270  18.290  0.00  0.00    +0.000 A 
BRANCH   6  13
ATOM     12  C   UNL     1      10.482  14.437  21.135  0.00  0.00    +0.000 C 
ATOM     13  O   UNL     1      11.214  13.734  20.137  0.00  0.00    +0.000 OA
ENDBRANCH   6  13
ENDBRANCH   1   9
BRANCH   3  14
ATOM     14  C   UNL     1       6.435   6.903  16.532  0.00  0.00    +0.000 C 
BRANCH  14  15
ATOM     15  N   UNL     1       7.018   5.650  16.029  0.00  0.00    +0.000 NA
ATOM     16  H   UNL     1       7.874   5.491  16.567  0.00  0.00    +0.000 HD
BRANCH  15  17
ATOM     17  C   UNL     1       6.148   4.477  16.205  0.00  0.00    +0.000 C 
BRANCH  17  18
ATOM     18  C   UNL     1       5.648   4.294  17.647  0.00  0.00    +0.000 C 
BRANCH  18  19
ATOM     19  C   UNL     1       4.158   4.072  17.713  0.00  0.00    +0.000 A 
ATOM     20  C   UNL     1       3.738   2.721  17.770  0.00  0.00    +0.000 A 
ATOM     21  C   UNL     1       2.397   2.374  17.904  0.00  0.00    +0.000 A 
ATOM     22  C   UNL     1       1.441   3.375  17.969  0.00  0.00    +0.000 A 
ATOM     23  C   UNL     1       1.838   4.713  17.908  0.00  0.00    +0.000 A 
ATOM     24  C   UNL     1       3.186   5.080  17.777  0.00  0.00    +0.000 A 
BRANCH  24  25
ATOM     25  O   UNL     1       3.373   6.432  17.866  0.00  0.00    +0.000 OA
ATOM     26  C   UNL     1       2.570   7.195  18.753  0.00  0.00    +0.000 C 
ENDBRANCH  24  25
ENDBRANCH  18  19
ENDBRANCH  17  18
ENDBRANCH  15  17
ENDBRANCH  14  15
ENDBRANCH   3  14
TORSDOF 8
ENDMDL
MODEL 5
REMARK VINA RESULT:      -7.2      1.671      1.857
REMARK  Name = 
REMARK  10 active torsions:
REMARK  status: ('A' for Active; 'I' for Inactive)
REMARK    1  A    between atoms: C_1  and  O_2
REMARK    2  A    between atoms: O_2  and  C_3
REMARK    3  A    between atoms: C_6  and  C_7
REMARK    4  A    between atoms: C_9  and  C_10
REMARK    5  A    between atoms: C_10  and  N_11
REMARK    6  A    between atoms: N_11  and  C_12
REMARK    7  A    between atoms: C_12  and  C_13
REMARK    8  A    between atoms: C_13  and  C_14
REMARK    9  A    between atoms: C_19  and  O_20
REMARK   10  A    between atoms: O_20  and  C_21
REMARK                            x       y       z     vdW  Elec       q    Type
REMARK                         _______ _______ _______ _____ _____    ______ ____
ROOT
ATOM      1  C   UNL     1       8.073   8.283  18.088  0.00  0.00    +0.000 A 
ATOM      2  N   UNL     1       7.266   7.824  17.148  0.00  0.00    +0.000 NA
ATOM      3  C   UNL     1       7.145   6.479  17.438  0.00  0.00    +0.000 A 
ATOM      4  C   UNL     1       7.895   6.182  18.552  0.00  0.00    +0.000 A 
ATOM      5  O   UNL     1       8.496   7.323  18.975  0.00  0.00    +0.000 OA
ENDROOT
BRANCH   1   9
ATOM      6  C   UNL     1       9.484  12.257  18.793  0.00  0.00    +0.000 A 
ATOM      7  C   UNL     1       8.634  11.989  17.714  0.00  0.00    +0.000 A 
ATOM      8  C   UNL     1       8.171  10.689  17.485  0.00  0.00    +0.000 A 
ATOM      9  C   UNL     1       8.566   9.636  18.320  0.00  0.00    +0.000 A 
ATOM     10  C   UNL     1       9.441   9.913  19.378  0.00  0.00    +0.000 A 
ATOM     11  C   UNL     1       9.894  11.211  19.610  0.00  0.00    +0.000 A 
BRANCH   6  13
ATOM     12  C   UNL     1       9.255  14.477  18.028  0.00  0.00    +0.000 C 
ATOM     13  O   UNL     1       9.881  13.560  18.919  0.00  0.00    +0.000 OA
ENDBRANCH   6  13
ENDBRANCH   1   9
BRANCH   3  14
ATOM     14  C   UNL     1       6.372   5.553  16.568  0.00  0.00    +0.000 C 
BRANCH  14  15
ATOM     15  N   UNL     1       6.129   4.273  17.248  0.00  0.00    +0.000 NA
ATOM     16  H   UNL     1       6.938   4.107  17.854  0.00  0.00    +0.000 HD
BRANCH  15  17
ATOM     17  C   UNL     1       4.924   4.267  18.092  0.00  0.00    +0.000 C 
BRANCH  17  18
ATOM     18  C   UNL     1       4.177   2.924  18.088  0.00  0.00    +0.000 C 
BRANCH  18  19
ATOM     19  C   UNL     1       3.117   2.853  19.157  0.00  0.00    +0.000 A 
ATOM     20  C   UNL     1       3.578   2.561  20.463  0.00  0.00    +0.000 A 
ATOM     21  C   UNL     1       2.718   2.534  21.557  0.00  0.00    +0.000 A 
ATOM     22  C   UNL     1       1.369   2.784  21.364  0.00  0.00    +0.000 A 
ATOM     23  C   UNL     1       0.896   3.067  20.081  0.00  0.00    +0.000 A 
ATOM     24  C   UNL     1       1.751   3.103  18.968  0.00  0.00    +0.000 A 
BRANCH  24  25
ATOM     25  O   UNL     1       1.116   3.523  17.832  0.00  0.00    +0.000 OA
ATOM     26  C   UNL     1       1.248   4.872  17.412  0.00  0.00    +0.000 C 
ENDBRANCH  24  25
ENDBRANCH  18  19
ENDBRANCH  17  18
ENDBRANCH  15  17
ENDBRANCH  14  15
ENDBRANCH   3  14
TORSDOF 8
ENDMDL
MODEL 6
REMARK VINA RESULT:      -7.1      1.268      1.822
REMARK  Name = 
REMARK  10 active torsions:
REMARK  status: ('A' for Active; 'I' for Inactive)
REMARK    1  A    between atoms: C_1  and  O_2
REMARK    2  A    between atoms: O_2  and  C_3
REMARK    3  A    between atoms: C_6  and  C_7
REMARK    4  A    between atoms: C_9  and  C_10
REMARK    5  A    between atoms: C_10  and  N_11
REMARK    6  A    between atoms: N_11  and  C_12
REMARK    7  A    between atoms: C_12  and  C_13
REMARK    8  A    between atoms: C_13  and  C_14
REMARK    9  A    between atoms: C_19  and  O_20
REMARK   10  A    between atoms: O_20  and  C_21
REMARK                            x       y       z     vdW  Elec       q    Type
REMARK                         _______ _______ _______ _____ _____    ______ ____
ROOT
ATOM      1  C   UNL     1       8.149   8.654  18.142  0.00  0.00    +0.000 A 
ATOM      2  N   UNL     1       7.251   8.277  17.250  0.00  0.00    +0.000 NA
ATOM      3  C   UNL     1       7.108   6.921  17.472  0.00  0.00    +0.000 A 
ATOM      4  C   UNL     1       7.939   6.535  18.498  0.00  0.00    +0.000 A 
ATOM      5  O   UNL     1       8.611   7.631  18.933  0.00  0.00    +0.000 OA
ENDROOT
BRANCH   1   9
ATOM      6  C   UNL     1       9.816  12.518  18.902  0.00  0.00    +0.000 A 
ATOM      7  C   UNL     1      10.086  11.450  19.764  0.00  0.00    +0.000 A 
ATOM      8  C   UNL     1       9.542  10.185  19.514  0.00  0.00    +0.000 A 
ATOM      9  C   UNL     1       8.706   9.976  18.409  0.00  0.00    +0.000 A 
ATOM     10  C   UNL     1       8.419  11.062  17.572  0.00  0.00    +0.000 A 
ATOM     11  C   UNL     1       8.971  12.319  17.818  0.00  0.00    +0.000 A 
BRANCH   6  13
ATOM     12  C   UNL     1       9.513  14.828  19.270  0.00  0.00    +0.000 C 
ATOM     13  O   UNL     1      10.393  13.710  19.245  0.00  0.00    +0.000 OA
ENDBRANCH   6  13
ENDBRANCH   1   9
BRANCH   3  14
ATOM     14  C   UNL     1       6.234   6.073  16.619  0.00  0.00    +0.000 C 
BRANCH  14  15
ATOM     15  N   UNL     1       4.920   6.703  16.423  0.00  0.00    +0.000 NA
ATOM     16  H   UNL     1       4.488   6.234  15.622  0.00  0.00    +0.000 HD
BRANCH  15  17
ATOM     17  C   UNL     1       4.014   6.560  17.573  0.00  0.00    +0.000 C 
BRANCH  17  18
ATOM     18  C   UNL     1       4.353   5.365  18.477  0.00  0.00    +0.000 C 
BRANCH  18  19
ATOM     19  C   UNL     1       3.186   4.425  18.648  0.00  0.00    +0.000 A 
ATOM     20  C   UNL     1       3.121   3.351  17.728  0.00  0.00    +0.000 A 
ATOM     21  C   UNL     1       2.137   2.370  17.813  0.00  0.00    +0.000 A 
ATOM     22  C   UNL     1       1.184   2.451  18.816  0.00  0.00    +0.000 A 
ATOM     23  C   UNL     1       1.231   3.508  19.728  0.00  0.00    +0.000 A 
ATOM     24  C   UNL     1       2.219   4.503  19.659  0.00  0.00    +0.000 A 
BRANCH  24  25
ATOM     25  O   UNL     1       2.165   5.369  20.715  0.00  0.00    +0.000 OA
ATOM     26  C   UNL     1       1.664   6.683  20.521  0.00  0.00    +0.000 C 
ENDBRANCH  24  25
ENDBRANCH  18  19
ENDBRANCH  17  18
ENDBRANCH  15  17
ENDBRANCH  14  15
ENDBRANCH   3  14
TORSDOF 8
ENDMDL
MODEL 7
REMARK VINA RESULT:      -7.1      1.411      2.244
REMARK  Name = 
REMARK  10 active torsions:
REMARK  status: ('A' for Active; 'I' for Inactive)
REMARK    1  A    between atoms: C_1  and  O_2
REMARK    2  A    between atoms: O_2  and  C_3
REMARK    3  A    between atoms: C_6  and  C_7
REMARK    4  A    between atoms: C_9  and  C_10
REMARK    5  A    between atoms: C_10  and  N_11
REMARK    6  A    between atoms: N_11  and  C_12
REMARK    7  A    between atoms: C_12  and  C_13
REMARK    8  A    between atoms: C_13  and  C_14
REMARK    9  A    between atoms: C_19  and  O_20
REMARK   10  A    between atoms: O_20  and  C_21
REMARK                            x       y       z     vdW  Elec       q    Type
REMARK                         _______ _______ _______ _____ _____    ______ ____
ROOT
ATOM      1  C   UNL     1       8.285   8.877  18.272  0.00  0.00    +0.000 A 
ATOM      2  N   UNL     1       7.337   8.638  17.383  0.00  0.00    +0.000 NA
ATOM      3  C   UNL     1       7.111   7.280  17.492  0.00  0.00    +0.000 A 
ATOM      4  C   UNL     1       7.945   6.752  18.451  0.00  0.00    +0.000 A 
ATOM      5  O   UNL     1       8.702   7.760  18.954  0.00  0.00    +0.000 OA
ENDROOT
BRANCH   1   9
ATOM      6  C   UNL     1      10.159  12.569  19.340  0.00  0.00    +0.000 A 
ATOM      7  C   UNL     1       9.613  12.397  18.063  0.00  0.00    +0.000 A 
ATOM      8  C   UNL     1       8.998  11.189  17.715  0.00  0.00    +0.000 A 
ATOM      9  C   UNL     1       8.937  10.131  18.632  0.00  0.00    +0.000 A 
ATOM     10  C   UNL     1       9.514  10.307  19.896  0.00  0.00    +0.000 A 
ATOM     11  C   UNL     1      10.118  11.516  20.244  0.00  0.00    +0.000 A 
BRANCH   6  13
ATOM     12  C   UNL     1       9.930  14.916  19.268  0.00  0.00    +0.000 C 
ATOM     13  O   UNL     1      10.740  13.786  19.571  0.00  0.00    +0.000 OA
ENDBRANCH   6  13
ENDBRANCH   1   9
BRANCH   3  14
ATOM     14  C   UNL     1       6.156   6.568  16.601  0.00  0.00    +0.000 C 
BRANCH  14  15
ATOM     15  N   UNL     1       6.432   5.124  16.582  0.00  0.00    +0.000 NA
ATOM     16  H   UNL     1       7.361   5.000  16.994  0.00  0.00    +0.000 HD
BRANCH  15  17
ATOM     17  C   UNL     1       5.480   4.326  17.370  0.00  0.00    +0.000 C 
BRANCH  17  18
ATOM     18  C   UNL     1       4.009   4.648  17.065  0.00  0.00    +0.000 C 
BRANCH  18  19
ATOM     19  C   UNL     1       3.151   4.641  18.305  0.00  0.00    +0.000 A 
ATOM     20  C   UNL     1       2.979   5.894  18.942  0.00  0.00    +0.000 A 
ATOM     21  C   UNL     1       2.156   6.045  20.054  0.00  0.00    +0.000 A 
ATOM     22  C   UNL     1       1.497   4.939  20.565  0.00  0.00    +0.000 A 
ATOM     23  C   UNL     1       1.660   3.695  19.952  0.00  0.00    +0.000 A 
ATOM     24  C   UNL     1       2.482   3.525  18.827  0.00  0.00    +0.000 A 
BRANCH  24  25
ATOM     25  O   UNL     1       2.404   2.264  18.306  0.00  0.00    +0.000 OA
ATOM     26  C   UNL     1       3.487   1.364  18.478  0.00  0.00    +0.000 C 
ENDBRANCH  24  25
ENDBRANCH  18  19
ENDBRANCH  17  18
ENDBRANCH  15  17
ENDBRANCH  14  15
ENDBRANCH   3  14
TORSDOF 8
ENDMDL
MODEL 8
REMARK VINA RESULT:      -7.1      4.867      6.627
REMARK  Name = 
REMARK  10 active torsions:
REMARK  status: ('A' for Active; 'I' for Inactive)
REMARK    1  A    between atoms: C_1  and  O_2
REMARK    2  A    between atoms: O_2  and  C_3
REMARK    3  A    between atoms: C_6  and  C_7
REMARK    4  A    between atoms: C_9  and  C_10
REMARK    5  A    between atoms: C_10  and  N_11
REMARK    6  A    between atoms: N_11  and  C_12
REMARK    7  A    between atoms: C_12  and  C_13
REMARK    8  A    between atoms: C_13  and  C_14
REMARK    9  A    between atoms: C_19  and  O_20
REMARK   10  A    between atoms: O_20  and  C_21
REMARK                            x       y       z     vdW  Elec       q    Type
REMARK                         _______ _______ _______ _____ _____    ______ ____
ROOT
ATOM      1  C   UNL     1       4.033   3.591  17.493  0.00  0.00    +0.000 A 
ATOM      2  N   UNL     1       4.104   3.280  18.775  0.00  0.00    +0.000 NA
ATOM      3  C   UNL     1       2.826   2.862  19.089  0.00  0.00    +0.000 A 
ATOM      4  C   UNL     1       2.029   2.944  17.970  0.00  0.00    +0.000 A 
ATOM      5  O   UNL     1       2.786   3.410  16.945  0.00  0.00    +0.000 OA
ENDROOT
BRANCH   1   9
ATOM      6  C   UNL     1       7.092   5.003  14.860  0.00  0.00    +0.000 A 
ATOM      7  C   UNL     1       6.984   5.515  16.157  0.00  0.00    +0.000 A 
ATOM      8  C   UNL     1       5.984   5.051  17.019  0.00  0.00    +0.000 A 
ATOM      9  C   UNL     1       5.068   4.083  16.589  0.00  0.00    +0.000 A 
ATOM     10  C   UNL     1       5.169   3.600  15.278  0.00  0.00    +0.000 A 
ATOM     11  C   UNL     1       6.172   4.058  14.424  0.00  0.00    +0.000 A 
BRANCH   6  13
ATOM     12  C   UNL     1       7.976   5.332  12.698  0.00  0.00    +0.000 C 
ATOM     13  O   UNL     1       8.100   5.531  14.102  0.00  0.00    +0.000 OA
ENDBRANCH   6  13
ENDBRANCH   1   9
BRANCH   3  14
ATOM     14  C   UNL     1       2.440   2.487  20.475  0.00  0.00    +0.000 C 
BRANCH  14  15
ATOM     15  N   UNL     1       1.692   3.573  21.125  0.00  0.00    +0.000 NA
ATOM     16  H   UNL     1       1.565   3.295  22.102  0.00  0.00    +0.000 HD
BRANCH  15  17
ATOM     17  C   UNL     1       2.391   4.867  21.111  0.00  0.00    +0.000 C 
BRANCH  17  18
ATOM     18  C   UNL     1       1.444   6.076  21.042  0.00  0.00    +0.000 C 
BRANCH  18  19
ATOM     19  C   UNL     1       1.838   7.053  19.964  0.00  0.00    +0.000 A 
ATOM     20  C   UNL     1       2.641   6.530  18.921  0.00  0.00    +0.000 A 
ATOM     21  C   UNL     1       3.018   7.302  17.827  0.00  0.00    +0.000 A 
ATOM     22  C   UNL     1       2.613   8.625  17.759  0.00  0.00    +0.000 A 
ATOM     23  C   UNL     1       1.826   9.159  18.782  0.00  0.00    +0.000 A 
ATOM     24  C   UNL     1       1.433   8.393  19.890  0.00  0.00    +0.000 A 
BRANCH  24  25
ATOM     25  O   UNL     1       0.565   9.061  20.708  0.00  0.00    +0.000 OA
ATOM     26  C   UNL     1      -0.400   9.936  20.145  0.00  0.00    +0.000 C 
ENDBRANCH  24  25
ENDBRANCH  18  19
ENDBRANCH  17  18
ENDBRANCH  15  17
ENDBRANCH  14  15
ENDBRANCH   3  14
TORSDOF 8
ENDMDL
MODEL 9
REMARK VINA RESULT:      -7.1      1.316      1.680
REMARK  Name = 
REMARK  10 active torsions:
REMARK  status: ('A' for Active; 'I' for Inactive)
REMARK    1  A    between atoms: C_1  and  O_2
REMARK    2  A    between atoms: O_2  and  C_3
REMARK    3  A    between atoms: C_6  and  C_7
REMARK    4  A    between atoms: C_9  and  C_10
REMARK    5  A    between atoms: C_10  and  N_11
REMARK    6  A    between atoms: N_11  and  C_12
REMARK    7  A    between atoms: C_12  and  C_13
REMARK    8  A    between atoms: C_13  and  C_14
REMARK    9  A    between atoms: C_19  and  O_20
REMARK   10  A    between atoms: O_20  and  C_21
REMARK                            x       y       z     vdW  Elec       q    Type
REMARK                         _______ _______ _______ _____ _____    ______ ____
ROOT
ATOM      1  C   UNL     1       8.516   9.101  18.446  0.00  0.00    +0.000 A 
ATOM      2  N   UNL     1       8.684   7.878  18.918  0.00  0.00    +0.000 NA
ATOM      3  C   UNL     1       7.867   7.098  18.124  0.00  0.00    +0.000 A 
ATOM      4  C   UNL     1       7.232   7.894  17.199  0.00  0.00    +0.000 A 
ATOM      5  O   UNL     1       7.635   9.175  17.395  0.00  0.00    +0.000 OA
ENDROOT
BRANCH   1   9
ATOM      6  C   UNL     1      10.337  12.772  19.669  0.00  0.00    +0.000 A 
ATOM      7  C   UNL     1      10.130  11.742  20.593  0.00  0.00    +0.000 A 
ATOM      8  C   UNL     1       9.536  10.541  20.192  0.00  0.00    +0.000 A 
ATOM      9  C   UNL     1       9.124  10.359  18.866  0.00  0.00    +0.000 A 
ATOM     10  C   UNL     1       9.310  11.409  17.957  0.00  0.00    +0.000 A 
ATOM     11  C   UNL     1       9.910  12.602  18.358  0.00  0.00    +0.000 A 
BRANCH   6  13
ATOM     12  C   UNL     1      11.765  14.605  19.266  0.00  0.00    +0.000 C 
ATOM     13  O   UNL     1      10.918  13.904  20.170  0.00  0.00    +0.000 OA
ENDBRANCH   6  13
ENDBRANCH   1   9
BRANCH   3  14
ATOM     14  C   UNL     1       7.694   5.641  18.366  0.00  0.00    +0.000 C 
BRANCH  14  15
ATOM     15  N   UNL     1       7.058   5.397  19.668  0.00  0.00    +0.000 NA
ATOM     16  H   UNL     1       7.128   6.272  20.195  0.00  0.00    +0.000 HD
BRANCH  15  17
ATOM     17  C   UNL     1       5.634   5.038  19.576  0.00  0.00    +0.000 C 
BRANCH  17  18
ATOM     18  C   UNL     1       5.289   4.204  18.333  0.00  0.00    +0.000 C 
BRANCH  18  19
ATOM     19  C   UNL     1       3.829   3.832  18.277  0.00  0.00    +0.000 A 
ATOM     20  C   UNL     1       3.520   2.498  18.636  0.00  0.00    +0.000 A 
ATOM     21  C   UNL     1       2.207   2.040  18.697  0.00  0.00    +0.000 A 
ATOM     22  C   UNL     1       1.172   2.905  18.383  0.00  0.00    +0.000 A 
ATOM     23  C   UNL     1       1.460   4.223  18.020  0.00  0.00    +0.000 A 
ATOM     24  C   UNL     1       2.778   4.702  17.959  0.00  0.00    +0.000 A 
BRANCH  24  25
ATOM     25  O   UNL     1       2.836   6.046  17.712  0.00  0.00    +0.000 OA
ATOM     26  C   UNL     1       2.380   6.962  18.695  0.00  0.00    +0.000 C 
ENDBRANCH  24  25
ENDBRANCH  18  19
ENDBRANCH  17  18
ENDBRANCH  15  17
ENDBRANCH  14  15
ENDBRANCH   3  14
TORSDOF 8
ENDMDL
