MODEL 1
REMARK VINA RESULT:      -7.1      0.000      0.000
REMARK  Name = 
REMARK  10 active torsions:
REMARK  status: ('A' for Active; 'I' for Inactive)
REMARK    1  A    between atoms: C_1  and  C_2
REMARK    2  A    between atoms: C_2  and  O_3
REMARK    3  A    between atoms: C_2  and  C_4
REMARK    4  A    between atoms: C_8  and  C_9
REMARK    5  A    between atoms: C_9  and  O_11
REMARK    6  A    between atoms: C_12  and  S_13
REMARK    7  A    between atoms: S_13  and  C_14
REMARK    8  A    between atoms: C_17  and  C_18
REMARK    9  A    between atoms: C_18  and  O_19
REMARK   10  A    between atoms: C_24  and  C_25
REMARK                            x       y       z     vdW  Elec       q    Type
REMARK                         _______ _______ _______ _____ _____    ______ ____
ROOT
ATOM      1  C   UNL     1       5.945   3.785  15.134  0.00  0.00    +0.000 C 
ATOM      2  C   UNL     1       6.972   4.291  16.168  0.00  0.00    +0.000 C 
ATOM      3  O   UNL     1       8.091   4.030  16.537  0.00  0.00    +0.000 OA
ATOM      4  N   UNL     1       6.083   5.176  16.694  0.00  0.00    +0.000 N 
ATOM      5  C   UNL     1       5.799   5.263  18.042  0.00  0.00    +0.000 C 
ATOM      6  C   UNL     1       4.557   4.817  18.304  0.00  0.00    +0.000 C 
ATOM      7  C   UNL     1       3.980   4.100  17.097  0.00  0.00    +0.000 C 
ATOM      8  C   UNL     1       4.044   2.575  17.219  0.00  0.00    +0.000 C 
ATOM      9  C   UNL     1       4.905   4.607  15.976  0.00  0.00    +0.000 C 
ENDROOT
BRANCH   1  11
ATOM     10  C   UNL     1       7.434   5.062  13.554  0.00  0.00    +0.000 C 
ATOM     11  C   UNL     1       6.131   4.294  13.714  0.00  0.00    +0.000 C 
BRANCH  11  12
ATOM     12  O   UNL     1       6.123   3.167  12.839  0.00  0.00    +0.000 OA
ATOM     13  H   UNL     1       7.016   2.776  12.824  0.00  0.00    +0.000 HD
ENDBRANCH  11  12
ENDBRANCH   1  11
BRANCH   5  14
ATOM     14  C   UNL     1       6.777   5.838  19.016  0.00  0.00    +0.000 C 
ATOM     15  O   UNL     1       6.993   5.396  20.132  0.00  0.00    +0.000 OA
BRANCH  14  16
ATOM     16  O   UNL     1       7.455   6.910  18.545  0.00  0.00    +0.000 OA
ATOM     17  H   UNL     1       8.298   6.699  18.086  0.00  0.00    +0.000 HD
ENDBRANCH  14  16
ENDBRANCH   5  14
BRANCH   6  18
ATOM     18  S   UNL     1       3.647   4.952  19.759  0.00  0.00    +0.000 S 
BRANCH  18  19
ATOM     19  C   UNL     1       2.888   6.530  19.496  0.00  0.00    +0.000 A 
ATOM     20  N   UNL     1       2.221   7.200  20.430  0.00  0.00    +0.000 NA
ATOM     21  C   UNL     1       1.703   8.322  19.841  0.00  0.00    +0.000 A 
ATOM     22  C   UNL     1       0.835   9.307  20.369  0.00  0.00    +0.000 A 
ATOM     23  C   UNL     1       0.617  10.287  19.400  0.00  0.00    +0.000 A 
ATOM     24  S   UNL     1       1.417   9.939  17.903  0.00  0.00    +0.000 S 
ATOM     25  C   UNL     1       2.038   8.536  18.554  0.00  0.00    +0.000 A 
ATOM     26  S   UNL     1       2.988   7.307  17.941  0.00  0.00    +0.000 S 
BRANCH  22  27
ATOM     27  C   UNL     1       0.212   9.293  21.718  0.00  0.00    +0.000 C 
BRANCH  27  28
ATOM     28  O   UNL     1       1.192   9.338  22.752  0.00  0.00    +0.000 OA
ATOM     29  H   UNL     1       1.314  10.278  22.967  0.00  0.00    +0.000 HD
ENDBRANCH  27  28
ENDBRANCH  22  27
ENDBRANCH  18  19
ENDBRANCH   6  18
TORSDOF 8
ENDMDL
MODEL 2
REMARK VINA RESULT:      -6.5      6.401      9.941
REMARK  Name = 
REMARK  10 active torsions:
REMARK  status: ('A' for Active; 'I' for Inactive)
REMARK    1  A    between atoms: C_1  and  C_2
REMARK    2  A    between atoms: C_2  and  O_3
REMARK    3  A    between atoms: C_2  and  C_4
REMARK    4  A    between atoms: C_8  and  C_9
REMARK    5  A    between atoms: C_9  and  O_11
REMARK    6  A    between atoms: C_12  and  S_13
REMARK    7  A    between atoms: S_13  and  C_14
REMARK    8  A    between atoms: C_17  and  C_18
REMARK    9  A    between atoms: C_18  and  O_19
REMARK   10  A    between atoms: C_24  and  C_25
REMARK                            x       y       z     vdW  Elec       q    Type
REMARK                         _______ _______ _______ _____ _____    ______ ____
ROOT
ATOM      1  C   UNL     1       0.963   9.906  20.470  0.00  0.00    +0.000 C 
ATOM      2  C   UNL     1       0.205  10.039  19.134  0.00  0.00    +0.000 C 
ATOM      3  O   UNL     1       0.427   9.937  17.951  0.00  0.00    +0.000 OA
ATOM      4  N   UNL     1      -0.923  10.473  19.757  0.00  0.00    +0.000 N 
ATOM      5  C   UNL     1      -1.601  11.621  19.399  0.00  0.00    +0.000 C 
ATOM      6  C   UNL     1      -1.465  12.575  20.338  0.00  0.00    +0.000 C 
ATOM      7  C   UNL     1      -0.388  12.193  21.337  0.00  0.00    +0.000 C 
ATOM      8  C   UNL     1       0.940  12.913  21.090  0.00  0.00    +0.000 C 
ATOM      9  C   UNL     1      -0.259  10.682  21.077  0.00  0.00    +0.000 C 
ENDROOT
BRANCH   1  11
ATOM     10  C   UNL     1       1.934   7.619  20.056  0.00  0.00    +0.000 C 
ATOM     11  C   UNL     1       1.122   8.490  21.001  0.00  0.00    +0.000 C 
BRANCH  11  12
ATOM     12  O   UNL     1       1.773   8.566  22.269  0.00  0.00    +0.000 OA
ATOM     13  H   UNL     1       1.138   8.313  22.962  0.00  0.00    +0.000 HD
ENDBRANCH  11  12
ENDBRANCH   1  11
BRANCH   5  14
ATOM     14  C   UNL     1      -2.401  11.700  18.138  0.00  0.00    +0.000 C 
ATOM     15  O   UNL     1      -3.570  11.366  18.032  0.00  0.00    +0.000 OA
BRANCH  14  16
ATOM     16  O   UNL     1      -1.722  12.212  17.087  0.00  0.00    +0.000 OA
ATOM     17  H   UNL     1      -0.797  12.480  17.281  0.00  0.00    +0.000 HD
ENDBRANCH  14  16
ENDBRANCH   5  14
BRANCH   6  18
ATOM     18  S   UNL     1      -2.309  14.068  20.488  0.00  0.00    +0.000 S 
BRANCH  18  19
ATOM     19  C   UNL     1      -3.802  13.495  21.251  0.00  0.00    +0.000 A 
ATOM     20  N   UNL     1      -4.709  12.742  20.639  0.00  0.00    +0.000 NA
ATOM     21  C   UNL     1      -5.758  12.577  21.503  0.00  0.00    +0.000 A 
ATOM     22  C   UNL     1      -7.011  11.950  21.302  0.00  0.00    +0.000 A 
ATOM     23  C   UNL     1      -7.736  11.993  22.493  0.00  0.00    +0.000 A 
ATOM     24  S   UNL     1      -6.898  12.828  23.759  0.00  0.00    +0.000 S 
ATOM     25  C   UNL     1      -5.611  13.100  22.735  0.00  0.00    +0.000 A 
ATOM     26  S   UNL     1      -4.159  13.908  22.905  0.00  0.00    +0.000 S 
BRANCH  22  27
ATOM     27  C   UNL     1      -7.507  11.373  20.025  0.00  0.00    +0.000 C 
BRANCH  27  28
ATOM     28  O   UNL     1      -6.437  10.927  19.198  0.00  0.00    +0.000 OA
ATOM     29  H   UNL     1      -6.818  10.265  18.597  0.00  0.00    +0.000 HD
ENDBRANCH  27  28
ENDBRANCH  22  27
ENDBRANCH  18  19
ENDBRANCH   6  18
TORSDOF 8
ENDMDL
MODEL 3
REMARK VINA RESULT:      -6.5      4.674      8.432
REMARK  Name = 
REMARK  10 active torsions:
REMARK  status: ('A' for Active; 'I' for Inactive)
REMARK    1  A    between atoms: C_1  and  C_2
REMARK    2  A    between atoms: C_2  and  O_3
REMARK    3  A    between atoms: C_2  and  C_4
REMARK    4  A    between atoms: C_8  and  C_9
REMARK    5  A    between atoms: C_9  and  O_11
REMARK    6  A    between atoms: C_12  and  S_13
REMARK    7  A    between atoms: S_13  and  C_14
REMARK    8  A    between atoms: C_17  and  C_18
REMARK    9  A    between atoms: C_18  and  O_19
REMARK   10  A    between atoms: C_24  and  C_25
REMARK                            x       y       z     vdW  Elec       q    Type
REMARK                         _______ _______ _______ _____ _____    ______ ____
ROOT
ATOM      1  C   UNL     1      -1.256  11.482  18.129  0.00  0.00    +0.000 C 
ATOM      2  C   UNL     1      -1.476  11.814  19.619  0.00  0.00    +0.000 C 
ATOM      3  O   UNL     1      -1.677  12.782  20.313  0.00  0.00    +0.000 OA
ATOM      4  N   UNL     1      -1.237  10.529  19.994  0.00  0.00    +0.000 N 
ATOM      5  C   UNL     1      -0.333  10.174  20.975  0.00  0.00    +0.000 C 
ATOM      6  C   UNL     1       0.740   9.561  20.445  0.00  0.00    +0.000 C 
ATOM      7  C   UNL     1       0.750   9.712  18.934  0.00  0.00    +0.000 C 
ATOM      8  C   UNL     1       1.718  10.792  18.447  0.00  0.00    +0.000 C 
ATOM      9  C   UNL     1      -0.711  10.110  18.662  0.00  0.00    +0.000 C 
ENDROOT
BRANCH   1  11
ATOM     10  C   UNL     1      -3.007   9.926  17.204  0.00  0.00    +0.000 C 
ATOM     11  C   UNL     1      -2.516  11.362  17.287  0.00  0.00    +0.000 C 
BRANCH  11  12
ATOM     12  O   UNL     1      -3.521  12.184  17.880  0.00  0.00    +0.000 OA
ATOM     13  H   UNL     1      -3.090  12.945  18.309  0.00  0.00    +0.000 HD
ENDBRANCH  11  12
ENDBRANCH   1  11
BRANCH   5  14
ATOM     14  C   UNL     1      -0.606  10.428  22.423  0.00  0.00    +0.000 C 
ATOM     15  O   UNL     1      -1.009   9.592  23.215  0.00  0.00    +0.000 OA
BRANCH  14  16
ATOM     16  O   UNL     1      -0.338  11.694  22.820  0.00  0.00    +0.000 OA
ATOM     17  H   UNL     1      -0.111  11.792  23.771  0.00  0.00    +0.000 HD
ENDBRANCH  14  16
ENDBRANCH   5  14
BRANCH   6  18
ATOM     18  S   UNL     1       2.004   8.713  21.249  0.00  0.00    +0.000 S 
BRANCH  18  19
ATOM     19  C   UNL     1       1.953   7.180  20.361  0.00  0.00    +0.000 A 
ATOM     20  N   UNL     1       1.578   6.023  20.896  0.00  0.00    +0.000 NA
ATOM     21  C   UNL     1       1.753   5.055  19.944  0.00  0.00    +0.000 A 
ATOM     22  C   UNL     1       1.602   3.650  20.038  0.00  0.00    +0.000 A 
ATOM     23  C   UNL     1       1.849   3.083  18.788  0.00  0.00    +0.000 A 
ATOM     24  S   UNL     1       2.301   4.256  17.596  0.00  0.00    +0.000 S 
ATOM     25  C   UNL     1       2.150   5.471  18.726  0.00  0.00    +0.000 A 
ATOM     26  S   UNL     1       2.404   7.122  18.680  0.00  0.00    +0.000 S 
BRANCH  22  27
ATOM     27  C   UNL     1       1.277   2.885  21.270  0.00  0.00    +0.000 C 
BRANCH  27  28
ATOM     28  O   UNL     1       2.177   3.190  22.332  0.00  0.00    +0.000 OA
ATOM     29  H   UNL     1       2.551   2.341  22.621  0.00  0.00    +0.000 HD
ENDBRANCH  27  28
ENDBRANCH  22  27
ENDBRANCH  18  19
ENDBRANCH   6  18
TORSDOF 8
ENDMDL
MODEL 4
REMARK VINA RESULT:      -6.5      2.497      3.736
REMARK  Name = 
REMARK  10 active torsions:
REMARK  status: ('A' for Active; 'I' for Inactive)
REMARK    1  A    between atoms: C_1  and  C_2
REMARK    2  A    between atoms: C_2  and  O_3
REMARK    3  A    between atoms: C_2  and  C_4
REMARK    4  A    between atoms: C_8  and  C_9
REMARK    5  A    between atoms: C_9  and  O_11
REMARK    6  A    between atoms: C_12  and  S_13
REMARK    7  A    between atoms: S_13  and  C_14
REMARK    8  A    between atoms: C_17  and  C_18
REMARK    9  A    between atoms: C_18  and  O_19
REMARK   10  A    between atoms: C_24  and  C_25
REMARK                            x       y       z     vdW  Elec       q    Type
REMARK                         _______ _______ _______ _____ _____    ______ ____
ROOT
ATOM      1  C   UNL     1       6.695   5.341  18.370  0.00  0.00    +0.000 C 
ATOM      2  C   UNL     1       5.687   4.586  19.261  0.00  0.00    +0.000 C 
ATOM      3  O   UNL     1       5.485   3.461  19.650  0.00  0.00    +0.000 OA
ATOM      4  N   UNL     1       4.918   5.697  19.420  0.00  0.00    +0.000 N 
ATOM      5  C   UNL     1       3.557   5.723  19.188  0.00  0.00    +0.000 C 
ATOM      6  C   UNL     1       3.267   6.441  18.089  0.00  0.00    +0.000 C 
ATOM      7  C   UNL     1       4.529   6.746  17.301  0.00  0.00    +0.000 C 
ATOM      8  C   UNL     1       4.708   5.836  16.083  0.00  0.00    +0.000 C 
ATOM      9  C   UNL     1       5.615   6.480  18.358  0.00  0.00    +0.000 C 
ENDROOT
BRANCH   1  11
ATOM     10  C   UNL     1       8.317   7.209  18.844  0.00  0.00    +0.000 C 
ATOM     11  C   UNL     1       8.002   5.734  19.039  0.00  0.00    +0.000 C 
BRANCH  11  12
ATOM     12  O   UNL     1       7.888   5.444  20.431  0.00  0.00    +0.000 OA
ATOM     13  H   UNL     1       7.604   6.252  20.897  0.00  0.00    +0.000 HD
ENDBRANCH  11  12
ENDBRANCH   1  11
BRANCH   5  14
ATOM     14  C   UNL     1       2.590   5.057  20.114  0.00  0.00    +0.000 C 
ATOM     15  O   UNL     1       2.254   3.886  20.048  0.00  0.00    +0.000 OA
BRANCH  14  16
ATOM     16  O   UNL     1       2.113   5.867  21.087  0.00  0.00    +0.000 OA
ATOM     17  H   UNL     1       1.775   5.403  21.885  0.00  0.00    +0.000 HD
ENDBRANCH  14  16
ENDBRANCH   5  14
BRANCH   6  18
ATOM     18  S   UNL     1       1.733   6.983  17.528  0.00  0.00    +0.000 S 
BRANCH  18  19
ATOM     19  C   UNL     1       1.527   8.417  18.548  0.00  0.00    +0.000 A 
ATOM     20  N   UNL     1       1.105   8.379  19.807  0.00  0.00    +0.000 NA
ATOM     21  C   UNL     1       0.983   9.673  20.238  0.00  0.00    +0.000 A 
ATOM     22  C   UNL     1       0.476  10.180  21.459  0.00  0.00    +0.000 A 
ATOM     23  C   UNL     1       0.595  11.570  21.458  0.00  0.00    +0.000 A 
ATOM     24  S   UNL     1       1.253  12.185  19.977  0.00  0.00    +0.000 S 
ATOM     25  C   UNL     1       1.380  10.634  19.382  0.00  0.00    +0.000 A 
ATOM     26  S   UNL     1       1.887  10.001  17.921  0.00  0.00    +0.000 S 
BRANCH  22  27
ATOM     27  C   UNL     1      -0.130   9.380  22.555  0.00  0.00    +0.000 C 
BRANCH  27  28
ATOM     28  O   UNL     1       0.464   9.679  23.815  0.00  0.00    +0.000 OA
ATOM     29  H   UNL     1      -0.227  10.114  24.343  0.00  0.00    +0.000 HD
ENDBRANCH  27  28
ENDBRANCH  22  27
ENDBRANCH  18  19
ENDBRANCH   6  18
TORSDOF 8
ENDMDL
MODEL 5
REMARK VINA RESULT:      -6.3      6.156      9.476
REMARK  Name = 
REMARK  10 active torsions:
REMARK  status: ('A' for Active; 'I' for Inactive)
REMARK    1  A    between atoms: C_1  and  C_2
REMARK    2  A    between atoms: C_2  and  O_3
REMARK    3  A    between atoms: C_2  and  C_4
REMARK    4  A    between atoms: C_8  and  C_9
REMARK    5  A    between atoms: C_9  and  O_11
REMARK    6  A    between atoms: C_12  and  S_13
REMARK    7  A    between atoms: S_13  and  C_14
REMARK    8  A    between atoms: C_17  and  C_18
REMARK    9  A    between atoms: C_18  and  O_19
REMARK   10  A    between atoms: C_24  and  C_25
REMARK                            x       y       z     vdW  Elec       q    Type
REMARK                         _______ _______ _______ _____ _____    ______ ____
ROOT
ATOM      1  C   UNL     1       0.344   8.957  20.268  0.00  0.00    +0.000 C 
ATOM      2  C   UNL     1      -0.167   9.407  21.652  0.00  0.00    +0.000 C 
ATOM      3  O   UNL     1      -0.727   8.932  22.610  0.00  0.00    +0.000 OA
ATOM      4  N   UNL     1       0.146  10.707  21.402  0.00  0.00    +0.000 N 
ATOM      5  C   UNL     1      -0.743  11.751  21.563  0.00  0.00    +0.000 C 
ATOM      6  C   UNL     1      -1.109  12.261  20.373  0.00  0.00    +0.000 C 
ATOM      7  C   UNL     1      -0.662  11.354  19.241  0.00  0.00    +0.000 C 
ATOM      8  C   UNL     1      -1.795  10.488  18.685  0.00  0.00    +0.000 C 
ATOM      9  C   UNL     1       0.400  10.493  19.948  0.00  0.00    +0.000 C 
ENDROOT
BRANCH   1  11
ATOM     10  C   UNL     1       1.621   6.844  20.768  0.00  0.00    +0.000 C 
ATOM     11  C   UNL     1       1.702   8.273  20.256  0.00  0.00    +0.000 C 
BRANCH  11  12
ATOM     12  O   UNL     1       2.185   8.279  18.913  0.00  0.00    +0.000 OA
ATOM     13  H   UNL     1       2.096   9.180  18.552  0.00  0.00    +0.000 HD
ENDBRANCH  11  12
ENDBRANCH   1  11
BRANCH   5  14
ATOM     14  C   UNL     1      -1.159  12.227  22.918  0.00  0.00    +0.000 C 
ATOM     15  O   UNL     1      -0.640  13.151  23.523  0.00  0.00    +0.000 OA
BRANCH  14  16
ATOM     16  O   UNL     1      -2.211  11.554  23.439  0.00  0.00    +0.000 OA
ATOM     17  H   UNL     1      -2.450  11.806  24.358  0.00  0.00    +0.000 HD
ENDBRANCH  14  16
ENDBRANCH   5  14
BRANCH   6  18
ATOM     18  S   UNL     1      -1.979  13.710  20.043  0.00  0.00    +0.000 S 
BRANCH  18  19
ATOM     19  C   UNL     1      -3.614  13.187  20.480  0.00  0.00    +0.000 A 
ATOM     20  N   UNL     1      -4.120  13.275  21.705  0.00  0.00    +0.000 NA
ATOM     21  C   UNL     1      -5.360  12.695  21.681  0.00  0.00    +0.000 A 
ATOM     22  C   UNL     1      -6.265  12.439  22.738  0.00  0.00    +0.000 A 
ATOM     23  C   UNL     1      -7.425  11.867  22.216  0.00  0.00    +0.000 A 
ATOM     24  S   UNL     1      -7.337  11.619  20.503  0.00  0.00    +0.000 S 
ATOM     25  C   UNL     1      -5.805  12.274  20.481  0.00  0.00    +0.000 A 
ATOM     26  S   UNL     1      -4.674  12.511  19.275  0.00  0.00    +0.000 S 
BRANCH  22  27
ATOM     27  C   UNL     1      -6.018  12.692  24.182  0.00  0.00    +0.000 C 
BRANCH  27  28
ATOM     28  O   UNL     1      -4.923  11.924  24.672  0.00  0.00    +0.000 OA
ATOM     29  H   UNL     1      -4.377  11.708  23.898  0.00  0.00    +0.000 HD
ENDBRANCH  27  28
ENDBRANCH  22  27
ENDBRANCH  18  19
ENDBRANCH   6  18
TORSDOF 8
ENDMDL
MODEL 6
REMARK VINA RESULT:      -6.2      2.882      4.240
REMARK  Name = 
REMARK  10 active torsions:
REMARK  status: ('A' for Active; 'I' for Inactive)
REMARK    1  A    between atoms: C_1  and  C_2
REMARK    2  A    between atoms: C_2  and  O_3
REMARK    3  A    between atoms: C_2  and  C_4
REMARK    4  A    between atoms: C_8  and  C_9
REMARK    5  A    between atoms: C_9  and  O_11
REMARK    6  A    between atoms: C_12  and  S_13
REMARK    7  A    between atoms: S_13  and  C_14
REMARK    8  A    between atoms: C_17  and  C_18
REMARK    9  A    between atoms: C_18  and  O_19
REMARK   10  A    between atoms: C_24  and  C_25
REMARK                            x       y       z     vdW  Elec       q    Type
REMARK                         _______ _______ _______ _____ _____    ______ ____
ROOT
ATOM      1  C   UNL     1       6.428   4.017  14.794  0.00  0.00    +0.000 C 
ATOM      2  C   UNL     1       7.387   4.487  15.907  0.00  0.00    +0.000 C 
ATOM      3  O   UNL     1       8.262   4.031  16.603  0.00  0.00    +0.000 OA
ATOM      4  N   UNL     1       6.803   5.714  15.963  0.00  0.00    +0.000 N 
ATOM      5  C   UNL     1       6.355   6.294  17.133  0.00  0.00    +0.000 C 
ATOM      6  C   UNL     1       5.011   6.344  17.164  0.00  0.00    +0.000 C 
ATOM      7  C   UNL     1       4.419   5.495  16.053  0.00  0.00    +0.000 C 
ATOM      8  C   UNL     1       3.909   4.138  16.543  0.00  0.00    +0.000 C 
ATOM      9  C   UNL     1       5.633   5.330  15.122  0.00  0.00    +0.000 C 
ENDROOT
BRANCH   1  11
ATOM     10  C   UNL     1       5.996   3.510  12.364  0.00  0.00    +0.000 C 
ATOM     11  C   UNL     1       7.013   3.982  13.391  0.00  0.00    +0.000 C 
BRANCH  11  12
ATOM     12  O   UNL     1       7.454   5.300  13.065  0.00  0.00    +0.000 OA
ATOM     13  H   UNL     1       6.675   5.880  12.989  0.00  0.00    +0.000 HD
ENDBRANCH  11  12
ENDBRANCH   1  11
BRANCH   5  14
ATOM     14  C   UNL     1       7.304   6.822  18.161  0.00  0.00    +0.000 C 
ATOM     15  O   UNL     1       7.840   7.917  18.120  0.00  0.00    +0.000 OA
BRANCH  14  16
ATOM     16  O   UNL     1       7.515   5.979  19.198  0.00  0.00    +0.000 OA
ATOM     17  H   UNL     1       6.905   6.098  19.960  0.00  0.00    +0.000 HD
ENDBRANCH  14  16
ENDBRANCH   5  14
BRANCH   6  18
ATOM     18  S   UNL     1       3.988   7.187  18.262  0.00  0.00    +0.000 S 
BRANCH  18  19
ATOM     19  C   UNL     1       3.461   5.838  19.281  0.00  0.00    +0.000 A 
ATOM     20  N   UNL     1       4.189   4.750  19.510  0.00  0.00    +0.000 NA
ATOM     21  C   UNL     1       3.426   3.895  20.260  0.00  0.00    +0.000 A 
ATOM     22  C   UNL     1       3.692   2.571  20.681  0.00  0.00    +0.000 A 
ATOM     23  C   UNL     1       2.631   2.121  21.465  0.00  0.00    +0.000 A 
ATOM     24  S   UNL     1       1.357   3.287  21.602  0.00  0.00    +0.000 S 
ATOM     25  C   UNL     1       2.222   4.351  20.655  0.00  0.00    +0.000 A 
ATOM     26  S   UNL     1       1.906   5.882  20.064  0.00  0.00    +0.000 S 
BRANCH  22  27
ATOM     27  C   UNL     1       4.885   1.760  20.319  0.00  0.00    +0.000 C 
BRANCH  27  28
ATOM     28  O   UNL     1       5.589   1.314  21.474  0.00  0.00    +0.000 OA
ATOM     29  H   UNL     1       5.972   0.452  21.240  0.00  0.00    +0.000 HD
ENDBRANCH  27  28
ENDBRANCH  22  27
ENDBRANCH  18  19
ENDBRANCH   6  18
TORSDOF 8
ENDMDL
MODEL 7
REMARK VINA RESULT:      -6.1      5.912      9.361
REMARK  Name = 
REMARK  10 active torsions:
REMARK  status: ('A' for Active; 'I' for Inactive)
REMARK    1  A    between atoms: C_1  and  C_2
REMARK    2  A    between atoms: C_2  and  O_3
REMARK    3  A    between atoms: C_2  and  C_4
REMARK    4  A    between atoms: C_8  and  C_9
REMARK    5  A    between atoms: C_9  and  O_11
REMARK    6  A    between atoms: C_12  and  S_13
REMARK    7  A    between atoms: S_13  and  C_14
REMARK    8  A    between atoms: C_17  and  C_18
REMARK    9  A    between atoms: C_18  and  O_19
REMARK   10  A    between atoms: C_24  and  C_25
REMARK                            x       y       z     vdW  Elec       q    Type
REMARK                         _______ _______ _______ _____ _____    ______ ____
ROOT
ATOM      1  C   UNL     1       0.511   8.844  19.910  0.00  0.00    +0.000 C 
ATOM      2  C   UNL     1      -0.063   9.166  21.306  0.00  0.00    +0.000 C 
ATOM      3  O   UNL     1      -0.672   8.608  22.187  0.00  0.00    +0.000 OA
ATOM      4  N   UNL     1       0.270  10.480  21.196  0.00  0.00    +0.000 N 
ATOM      5  C   UNL     1      -0.619  11.514  21.413  0.00  0.00    +0.000 C 
ATOM      6  C   UNL     1      -0.924  12.139  20.262  0.00  0.00    +0.000 C 
ATOM      7  C   UNL     1      -0.429  11.338  19.071  0.00  0.00    +0.000 C 
ATOM      8  C   UNL     1      -1.540  10.541  18.382  0.00  0.00    +0.000 C 
ATOM      9  C   UNL     1       0.592  10.403  19.741  0.00  0.00    +0.000 C 
ENDROOT
BRANCH   1  11
ATOM     10  C   UNL     1       1.786   6.750  20.487  0.00  0.00    +0.000 C 
ATOM     11  C   UNL     1       1.863   8.149  19.897  0.00  0.00    +0.000 C 
BRANCH  11  12
ATOM     12  O   UNL     1       2.308   8.079  18.543  0.00  0.00    +0.000 OA
ATOM     13  H   UNL     1       3.059   7.460  18.491  0.00  0.00    +0.000 HD
ENDBRANCH  11  12
ENDBRANCH   1  11
BRANCH   5  14
ATOM     14  C   UNL     1      -1.096  11.864  22.786  0.00  0.00    +0.000 C 
ATOM     15  O   UNL     1      -1.939  11.243  23.412  0.00  0.00    +0.000 OA
BRANCH  14  16
ATOM     16  O   UNL     1      -0.484  12.945  23.322  0.00  0.00    +0.000 OA
ATOM     17  H   UNL     1       0.185  12.743  24.013  0.00  0.00    +0.000 HD
ENDBRANCH  14  16
ENDBRANCH   5  14
BRANCH   6  18
ATOM     18  S   UNL     1      -1.767  13.622  20.030  0.00  0.00    +0.000 S 
BRANCH  18  19
ATOM     19  C   UNL     1      -3.414  13.096  20.416  0.00  0.00    +0.000 A 
ATOM     20  N   UNL     1      -4.130  12.275  19.655  0.00  0.00    +0.000 NA
ATOM     21  C   UNL     1      -5.374  12.172  20.218  0.00  0.00    +0.000 A 
ATOM     22  C   UNL     1      -6.532  11.509  19.748  0.00  0.00    +0.000 A 
ATOM     23  C   UNL     1      -7.549  11.647  20.692  0.00  0.00    +0.000 A 
ATOM     24  S   UNL     1      -7.075  12.607  22.054  0.00  0.00    +0.000 S 
ATOM     25  C   UNL     1      -5.558  12.806  21.391  0.00  0.00    +0.000 A 
ATOM     26  S   UNL     1      -4.198  13.651  21.868  0.00  0.00    +0.000 S 
BRANCH  22  27
ATOM     27  C   UNL     1      -6.673  10.811  18.443  0.00  0.00    +0.000 C 
BRANCH  27  28
ATOM     28  O   UNL     1      -6.198  11.611  17.364  0.00  0.00    +0.000 OA
ATOM     29  H   UNL     1      -6.376  12.533  17.613  0.00  0.00    +0.000 HD
ENDBRANCH  27  28
ENDBRANCH  22  27
ENDBRANCH  18  19
ENDBRANCH   6  18
TORSDOF 8
ENDMDL
MODEL 8
REMARK VINA RESULT:      -6.1      7.774      9.453
REMARK  Name = 
REMARK  10 active torsions:
REMARK  status: ('A' for Active; 'I' for Inactive)
REMARK    1  A    between atoms: C_1  and  C_2
REMARK    2  A    between atoms: C_2  and  O_3
REMARK    3  A    between atoms: C_2  and  C_4
REMARK    4  A    between atoms: C_8  and  C_9
REMARK    5  A    between atoms: C_9  and  O_11
REMARK    6  A    between atoms: C_12  and  S_13
REMARK    7  A    between atoms: S_13  and  C_14
REMARK    8  A    between atoms: C_17  and  C_18
REMARK    9  A    between atoms: C_18  and  O_19
REMARK   10  A    between atoms: C_24  and  C_25
REMARK                            x       y       z     vdW  Elec       q    Type
REMARK                         _______ _______ _______ _____ _____    ______ ____
ROOT
ATOM      1  C   UNL     1       2.411  14.096  18.622  0.00  0.00    +0.000 C 
ATOM      2  C   UNL     1       2.185  12.586  18.839  0.00  0.00    +0.000 C 
ATOM      3  O   UNL     1       2.136  11.573  18.184  0.00  0.00    +0.000 OA
ATOM      4  N   UNL     1       1.911  12.764  20.159  0.00  0.00    +0.000 N 
ATOM      5  C   UNL     1       0.784  12.263  20.780  0.00  0.00    +0.000 C 
ATOM      6  C   UNL     1      -0.065  13.252  21.111  0.00  0.00    +0.000 C 
ATOM      7  C   UNL     1       0.345  14.554  20.447  0.00  0.00    +0.000 C 
ATOM      8  C   UNL     1      -0.496  14.886  19.211  0.00  0.00    +0.000 C 
ATOM      9  C   UNL     1       1.803  14.249  20.061  0.00  0.00    +0.000 C 
ENDROOT
BRANCH   1  11
ATOM     10  C   UNL     1       4.053  15.596  17.439  0.00  0.00    +0.000 C 
ATOM     11  C   UNL     1       3.861  14.538  18.514  0.00  0.00    +0.000 C 
BRANCH  11  12
ATOM     12  O   UNL     1       4.258  15.060  19.781  0.00  0.00    +0.000 OA
ATOM     13  H   UNL     1       3.539  14.909  20.421  0.00  0.00    +0.000 HD
ENDBRANCH  11  12
ENDBRANCH   1  11
BRANCH   5  14
ATOM     14  C   UNL     1       0.625  10.803  21.059  0.00  0.00    +0.000 C 
ATOM     15  O   UNL     1       1.009  10.239  22.070  0.00  0.00    +0.000 OA
BRANCH  14  16
ATOM     16  O   UNL     1      -0.025  10.125  20.085  0.00  0.00    +0.000 OA
ATOM     17  H   UNL     1      -0.592  10.678  19.502  0.00  0.00    +0.000 HD
ENDBRANCH  14  16
ENDBRANCH   5  14
BRANCH   6  18
ATOM     18  S   UNL     1      -1.463  13.182  22.113  0.00  0.00    +0.000 S 
BRANCH  18  19
ATOM     19  C   UNL     1      -2.676  12.720  20.907  0.00  0.00    +0.000 A 
ATOM     20  N   UNL     1      -2.391  12.110  19.762  0.00  0.00    +0.000 NA
ATOM     21  C   UNL     1      -3.559  11.999  19.054  0.00  0.00    +0.000 A 
ATOM     22  C   UNL     1      -3.783  11.523  17.740  0.00  0.00    +0.000 A 
ATOM     23  C   UNL     1      -5.151  11.560  17.471  0.00  0.00    +0.000 A 
ATOM     24  S   UNL     1      -6.075  12.214  18.783  0.00  0.00    +0.000 S 
ATOM     25  C   UNL     1      -4.680  12.417  19.672  0.00  0.00    +0.000 A 
ATOM     26  S   UNL     1      -4.363  13.054  21.184  0.00  0.00    +0.000 S 
BRANCH  22  27
ATOM     27  C   UNL     1      -2.738  11.092  16.775  0.00  0.00    +0.000 C 
BRANCH  27  28
ATOM     28  O   UNL     1      -1.624  11.979  16.773  0.00  0.00    +0.000 OA
ATOM     29  H   UNL     1      -0.853  11.445  16.520  0.00  0.00    +0.000 HD
ENDBRANCH  27  28
ENDBRANCH  22  27
ENDBRANCH  18  19
ENDBRANCH   6  18
TORSDOF 8
ENDMDL
MODEL 9
REMARK VINA RESULT:      -6.0      7.531     10.319
REMARK  Name = 
REMARK  10 active torsions:
REMARK  status: ('A' for Active; 'I' for Inactive)
REMARK    1  A    between atoms: C_1  and  C_2
REMARK    2  A    between atoms: C_2  and  O_3
REMARK    3  A    between atoms: C_2  and  C_4
REMARK    4  A    between atoms: C_8  and  C_9
REMARK    5  A    between atoms: C_9  and  O_11
REMARK    6  A    between atoms: C_12  and  S_13
REMARK    7  A    between atoms: S_13  and  C_14
REMARK    8  A    between atoms: C_17  and  C_18
REMARK    9  A    between atoms: C_18  and  O_19
REMARK   10  A    between atoms: C_24  and  C_25
REMARK                            x       y       z     vdW  Elec       q    Type
REMARK                         _______ _______ _______ _____ _____    ______ ____
ROOT
ATOM      1  C   UNL     1       0.839  10.787  20.344  0.00  0.00    +0.000 C 
ATOM      2  C   UNL     1       1.168  12.259  20.667  0.00  0.00    +0.000 C 
ATOM      3  O   UNL     1       2.131  12.935  20.938  0.00  0.00    +0.000 OA
ATOM      4  N   UNL     1      -0.146  12.608  20.664  0.00  0.00    +0.000 N 
ATOM      5  C   UNL     1      -0.757  13.297  21.693  0.00  0.00    +0.000 C 
ATOM      6  C   UNL     1      -1.612  12.504  22.365  0.00  0.00    +0.000 C 
ATOM      7  C   UNL     1      -1.420  11.052  21.967  0.00  0.00    +0.000 C 
ATOM      8  C   UNL     1      -0.614  10.252  22.994  0.00  0.00    +0.000 C 
ATOM      9  C   UNL     1      -0.645  11.202  20.647  0.00  0.00    +0.000 C 
ENDROOT
BRANCH   1  11
ATOM     10  C   UNL     1      -0.220  10.051  18.181  0.00  0.00    +0.000 C 
ATOM     11  C   UNL     1       1.081  10.358  18.906  0.00  0.00    +0.000 C 
BRANCH  11  12
ATOM     12  O   UNL     1       1.768  11.417  18.240  0.00  0.00    +0.000 OA
ATOM     13  H   UNL     1       2.402  11.031  17.609  0.00  0.00    +0.000 HD
ENDBRANCH  11  12
ENDBRANCH   1  11
BRANCH   5  14
ATOM     14  C   UNL     1      -0.488  14.747  21.935  0.00  0.00    +0.000 C 
ATOM     15  O   UNL     1      -0.868  15.657  21.217  0.00  0.00    +0.000 OA
BRANCH  14  16
ATOM     16  O   UNL     1       0.211  14.996  23.067  0.00  0.00    +0.000 OA
ATOM     17  H   UNL     1      -0.332  15.271  23.838  0.00  0.00    +0.000 HD
ENDBRANCH  14  16
ENDBRANCH   5  14
BRANCH   6  18
ATOM     18  S   UNL     1      -2.787  12.941  23.544  0.00  0.00    +0.000 S 
BRANCH  18  19
ATOM     19  C   UNL     1      -4.164  13.290  22.485  0.00  0.00    +0.000 A 
ATOM     20  N   UNL     1      -5.045  12.379  22.087  0.00  0.00    +0.000 NA
ATOM     21  C   UNL     1      -5.903  12.992  21.212  0.00  0.00    +0.000 A 
ATOM     22  C   UNL     1      -6.949  12.445  20.432  0.00  0.00    +0.000 A 
ATOM     23  C   UNL     1      -7.574  13.472  19.725  0.00  0.00    +0.000 A 
ATOM     24  S   UNL     1      -6.835  15.016  19.994  0.00  0.00    +0.000 S 
ATOM     25  C   UNL     1      -5.735  14.316  21.032  0.00  0.00    +0.000 A 
ATOM     26  S   UNL     1      -4.436  14.907  21.899  0.00  0.00    +0.000 S 
BRANCH  22  27
ATOM     27  C   UNL     1      -7.309  11.006  20.336  0.00  0.00    +0.000 C 
BRANCH  27  28
ATOM     28  O   UNL     1      -7.493  10.421  21.622  0.00  0.00    +0.000 OA
ATOM     29  H   UNL     1      -8.453  10.356  21.754  0.00  0.00    +0.000 HD
ENDBRANCH  27  28
ENDBRANCH  22  27
ENDBRANCH  18  19
ENDBRANCH   6  18
TORSDOF 8
ENDMDL
