MODEL 1
REMARK VINA RESULT:      -7.4      0.000      0.000
REMARK  Name = 
REMARK  9 active torsions:
REMARK  status: ('A' for Active; 'I' for Inactive)
REMARK    1  A    between atoms: C_1  and  O_2
REMARK    2  A    between atoms: O_2  and  C_3
REMARK    3  A    between atoms: C_5  and  C_6
REMARK    4  A    between atoms: C_11  and  O_12
REMARK    5  A    between atoms: C_14  and  O_15
REMARK    6  A    between atoms: C_20  and  O_21
REMARK    7  A    between atoms: O_21  and  C_22
REMARK    8  A    between atoms: C_23  and  O_24
REMARK    9  A    between atoms: O_24  and  C_25
REMARK                            x       y       z     vdW  Elec       q    Type
REMARK                         _______ _______ _______ _____ _____    ______ ____
ROOT
ATOM      1  C   UNL     1       2.286   7.459  18.772  0.00  0.00    +0.000 C 
ATOM      2  C   UNL     1       2.565   8.867  18.246  0.00  0.00    +0.000 C 
ATOM      3  C   UNL     1       1.217   9.502  18.405  0.00  0.00    +0.000 C 
ATOM      4  O   UNL     1       0.660  10.155  17.522  0.00  0.00    +0.000 OA
ATOM      5  C   UNL     1       0.615   9.311  19.736  0.00  0.00    +0.000 A 
ATOM      6  C   UNL     1      -0.488  10.048  20.158  0.00  0.00    +0.000 A 
ATOM      7  C   UNL     1      -0.668  10.278  21.508  0.00  0.00    +0.000 A 
ATOM      8  C   UNL     1       0.207   9.677  22.420  0.00  0.00    +0.000 A 
ATOM      9  C   UNL     1       1.159   8.739  22.005  0.00  0.00    +0.000 A 
ATOM     10  C   UNL     1       1.352   8.522  20.643  0.00  0.00    +0.000 A 
ATOM     11  O   UNL     1       2.291   7.579  20.225  0.00  0.00    +0.000 OA
ENDROOT
BRANCH   1  14
ATOM     12  C   UNL     1       3.546   4.155  17.185  0.00  0.00    +0.000 A 
ATOM     13  C   UNL     1       2.770   5.056  17.961  0.00  0.00    +0.000 A 
ATOM     14  C   UNL     1       3.159   6.386  18.135  0.00  0.00    +0.000 A 
ATOM     15  C   UNL     1       4.349   6.790  17.508  0.00  0.00    +0.000 A 
ATOM     16  C   UNL     1       5.154   5.914  16.774  0.00  0.00    +0.000 A 
ATOM     17  C   UNL     1       4.771   4.574  16.613  0.00  0.00    +0.000 A 
BRANCH  12  19
ATOM     18  C   UNL     1       3.231   1.986  18.119  0.00  0.00    +0.000 C 
ATOM     19  O   UNL     1       3.154   2.852  16.990  0.00  0.00    +0.000 OA
ENDBRANCH  12  19
BRANCH  16  20
ATOM     20  O   UNL     1       6.296   6.521  16.311  0.00  0.00    +0.000 OA
ATOM     21  C   UNL     1       7.330   6.752  17.258  0.00  0.00    +0.000 C 
ENDBRANCH  16  20
BRANCH  17  22
ATOM     22  O   UNL     1       5.682   3.795  15.949  0.00  0.00    +0.000 OA
ATOM     23  C   UNL     1       5.847   3.889  14.556  0.00  0.00    +0.000 C 
ENDBRANCH  17  22
ENDBRANCH   1  14
BRANCH   6  24
ATOM     24  O   UNL     1      -1.425  10.549  19.309  0.00  0.00    +0.000 OA
ATOM     25  H   UNL     1      -1.575   9.903  18.597  0.00  0.00    +0.000 HD
ENDBRANCH   6  24
BRANCH   8  26
ATOM     26  O   UNL     1       0.145  10.005  23.738  0.00  0.00    +0.000 OA
ATOM     27  H   UNL     1       1.006  10.399  23.996  0.00  0.00    +0.000 HD
ENDBRANCH   8  26
TORSDOF 6
ENDMDL
MODEL 2
REMARK VINA RESULT:      -7.4      2.143      3.509
REMARK  Name = 
REMARK  9 active torsions:
REMARK  status: ('A' for Active; 'I' for Inactive)
REMARK    1  A    between atoms: C_1  and  O_2
REMARK    2  A    between atoms: O_2  and  C_3
REMARK    3  A    between atoms: C_5  and  C_6
REMARK    4  A    between atoms: C_11  and  O_12
REMARK    5  A    between atoms: C_14  and  O_15
REMARK    6  A    between atoms: C_20  and  O_21
REMARK    7  A    between atoms: O_21  and  C_22
REMARK    8  A    between atoms: C_23  and  O_24
REMARK    9  A    between atoms: O_24  and  C_25
REMARK                            x       y       z     vdW  Elec       q    Type
REMARK                         _______ _______ _______ _____ _____    ______ ____
ROOT
ATOM      1  C   UNL     1       1.687   8.214  20.054  0.00  0.00    +0.000 C 
ATOM      2  C   UNL     1       0.679   8.254  21.202  0.00  0.00    +0.000 C 
ATOM      3  C   UNL     1       0.772   9.693  21.611  0.00  0.00    +0.000 C 
ATOM      4  O   UNL     1       0.898  10.065  22.778  0.00  0.00    +0.000 OA
ATOM      5  C   UNL     1       0.664  10.645  20.493  0.00  0.00    +0.000 A 
ATOM      6  C   UNL     1       0.453  12.005  20.701  0.00  0.00    +0.000 A 
ATOM      7  C   UNL     1      -0.193  12.743  19.728  0.00  0.00    +0.000 A 
ATOM      8  C   UNL     1      -0.524  12.126  18.517  0.00  0.00    +0.000 A 
ATOM      9  C   UNL     1      -0.088  10.830  18.218  0.00  0.00    +0.000 A 
ATOM     10  C   UNL     1       0.547  10.080  19.206  0.00  0.00    +0.000 A 
ATOM     11  O   UNL     1       0.995   8.794  18.908  0.00  0.00    +0.000 OA
ENDROOT
BRANCH   1  14
ATOM     12  C   UNL     1       2.689   4.489  20.434  0.00  0.00    +0.000 A 
ATOM     13  C   UNL     1       2.201   5.782  20.757  0.00  0.00    +0.000 A 
ATOM     14  C   UNL     1       2.357   6.857  19.878  0.00  0.00    +0.000 A 
ATOM     15  C   UNL     1       3.015   6.599  18.664  0.00  0.00    +0.000 A 
ATOM     16  C   UNL     1       3.542   5.346  18.339  0.00  0.00    +0.000 A 
ATOM     17  C   UNL     1       3.399   4.271  19.230  0.00  0.00    +0.000 A 
BRANCH  12  19
ATOM     18  C   UNL     1       1.248   2.774  21.245  0.00  0.00    +0.000 C 
ATOM     19  O   UNL     1       2.516   3.422  21.284  0.00  0.00    +0.000 OA
ENDBRANCH  12  19
BRANCH  16  20
ATOM     20  O   UNL     1       4.194   5.353  17.131  0.00  0.00    +0.000 OA
ATOM     21  C   UNL     1       4.784   6.581  16.725  0.00  0.00    +0.000 C 
ENDBRANCH  16  20
BRANCH  17  22
ATOM     22  O   UNL     1       4.031   3.119  18.840  0.00  0.00    +0.000 OA
ATOM     23  C   UNL     1       3.340   2.097  18.166  0.00  0.00    +0.000 C 
ENDBRANCH  17  22
ENDBRANCH   1  14
BRANCH   6  24
ATOM     24  O   UNL     1       0.865  12.666  21.816  0.00  0.00    +0.000 OA
ATOM     25  H   UNL     1       1.570  12.147  22.241  0.00  0.00    +0.000 HD
ENDBRANCH   6  24
BRANCH   8  26
ATOM     26  O   UNL     1      -1.289  12.784  17.606  0.00  0.00    +0.000 OA
ATOM     27  H   UNL     1      -2.222  12.507  17.733  0.00  0.00    +0.000 HD
ENDBRANCH   8  26
TORSDOF 6
ENDMDL
MODEL 3
REMARK VINA RESULT:      -7.3      1.562      7.850
REMARK  Name = 
REMARK  9 active torsions:
REMARK  status: ('A' for Active; 'I' for Inactive)
REMARK    1  A    between atoms: C_1  and  O_2
REMARK    2  A    between atoms: O_2  and  C_3
REMARK    3  A    between atoms: C_5  and  C_6
REMARK    4  A    between atoms: C_11  and  O_12
REMARK    5  A    between atoms: C_14  and  O_15
REMARK    6  A    between atoms: C_20  and  O_21
REMARK    7  A    between atoms: O_21  and  C_22
REMARK    8  A    between atoms: C_23  and  O_24
REMARK    9  A    between atoms: O_24  and  C_25
REMARK                            x       y       z     vdW  Elec       q    Type
REMARK                         _______ _______ _______ _____ _____    ______ ____
ROOT
ATOM      1  C   UNL     1       2.285   7.629  18.498  0.00  0.00    +0.000 C 
ATOM      2  C   UNL     1       2.624   6.681  19.648  0.00  0.00    +0.000 C 
ATOM      3  C   UNL     1       2.763   5.382  18.913  0.00  0.00    +0.000 C 
ATOM      4  O   UNL     1       2.229   4.333  19.273  0.00  0.00    +0.000 OA
ATOM      5  C   UNL     1       3.631   5.451  17.726  0.00  0.00    +0.000 A 
ATOM      6  C   UNL     1       4.096   4.306  17.086  0.00  0.00    +0.000 A 
ATOM      7  C   UNL     1       5.293   4.359  16.397  0.00  0.00    +0.000 A 
ATOM      8  C   UNL     1       5.951   5.588  16.275  0.00  0.00    +0.000 A 
ATOM      9  C   UNL     1       5.355   6.778  16.706  0.00  0.00    +0.000 A 
ATOM     10  C   UNL     1       4.159   6.722  17.416  0.00  0.00    +0.000 A 
ATOM     11  O   UNL     1       3.554   7.907  17.836  0.00  0.00    +0.000 OA
ENDROOT
BRANCH   1  14
ATOM     12  C   UNL     1      -0.391  10.433  18.564  0.00  0.00    +0.000 A 
ATOM     13  C   UNL     1       0.530   9.474  18.066  0.00  0.00    +0.000 A 
ATOM     14  C   UNL     1       1.418   8.810  18.916  0.00  0.00    +0.000 A 
ATOM     15  C   UNL     1       1.355   9.131  20.281  0.00  0.00    +0.000 A 
ATOM     16  C   UNL     1       0.487  10.100  20.793  0.00  0.00    +0.000 A 
ATOM     17  C   UNL     1      -0.392  10.779  19.936  0.00  0.00    +0.000 A 
BRANCH  12  19
ATOM     18  C   UNL     1      -2.277  10.256  17.118  0.00  0.00    +0.000 C 
ATOM     19  O   UNL     1      -1.283  11.071  17.735  0.00  0.00    +0.000 OA
ENDBRANCH  12  19
BRANCH  16  20
ATOM     20  O   UNL     1       0.652  10.285  22.144  0.00  0.00    +0.000 OA
ATOM     21  C   UNL     1      -0.188   9.528  23.005  0.00  0.00    +0.000 C 
ENDBRANCH  16  20
BRANCH  17  22
ATOM     22  O   UNL     1      -1.130  11.765  20.538  0.00  0.00    +0.000 OA
ATOM     23  C   UNL     1      -0.703  13.104  20.533  0.00  0.00    +0.000 C 
ENDBRANCH  17  22
ENDBRANCH   1  14
BRANCH   6  24
ATOM     24  O   UNL     1       3.426   3.123  17.083  0.00  0.00    +0.000 OA
ATOM     25  H   UNL     1       3.998   2.442  17.476  0.00  0.00    +0.000 HD
ENDBRANCH   6  24
BRANCH   8  26
ATOM     26  O   UNL     1       7.197   5.640  15.734  0.00  0.00    +0.000 OA
ATOM     27  H   UNL     1       7.656   4.796  15.940  0.00  0.00    +0.000 HD
ENDBRANCH   8  26
TORSDOF 6
ENDMDL
MODEL 4
REMARK VINA RESULT:      -7.3      2.098      4.034
REMARK  Name = 
REMARK  9 active torsions:
REMARK  status: ('A' for Active; 'I' for Inactive)
REMARK    1  A    between atoms: C_1  and  O_2
REMARK    2  A    between atoms: O_2  and  C_3
REMARK    3  A    between atoms: C_5  and  C_6
REMARK    4  A    between atoms: C_11  and  O_12
REMARK    5  A    between atoms: C_14  and  O_15
REMARK    6  A    between atoms: C_20  and  O_21
REMARK    7  A    between atoms: O_21  and  C_22
REMARK    8  A    between atoms: C_23  and  O_24
REMARK    9  A    between atoms: O_24  and  C_25
REMARK                            x       y       z     vdW  Elec       q    Type
REMARK                         _______ _______ _______ _____ _____    ______ ____
ROOT
ATOM      1  C   UNL     1       1.733   8.115  19.716  0.00  0.00    +0.000 C 
ATOM      2  C   UNL     1       0.914   8.126  21.006  0.00  0.00    +0.000 C 
ATOM      3  C   UNL     1       1.054   9.560  21.417  0.00  0.00    +0.000 C 
ATOM      4  O   UNL     1       1.355   9.918  22.557  0.00  0.00    +0.000 OA
ATOM      5  C   UNL     1       0.763  10.526  20.344  0.00  0.00    +0.000 A 
ATOM      6  C   UNL     1       0.572  11.880  20.604  0.00  0.00    +0.000 A 
ATOM      7  C   UNL     1      -0.224  12.623  19.754  0.00  0.00    +0.000 A 
ATOM      8  C   UNL     1      -0.732  12.017  18.599  0.00  0.00    +0.000 A 
ATOM      9  C   UNL     1      -0.333  10.732  18.216  0.00  0.00    +0.000 A 
ATOM     10  C   UNL     1       0.455   9.977  19.082  0.00  0.00    +0.000 A 
ATOM     11  O   UNL     1       0.866   8.701  18.699  0.00  0.00    +0.000 OA
ENDROOT
BRANCH   1  14
ATOM     12  C   UNL     1       4.020   5.330  18.287  0.00  0.00    +0.000 A 
ATOM     13  C   UNL     1       3.302   6.551  18.388  0.00  0.00    +0.000 A 
ATOM     14  C   UNL     1       2.383   6.769  19.417  0.00  0.00    +0.000 A 
ATOM     15  C   UNL     1       2.204   5.731  20.345  0.00  0.00    +0.000 A 
ATOM     16  C   UNL     1       2.866   4.504  20.246  0.00  0.00    +0.000 A 
ATOM     17  C   UNL     1       3.777   4.278  19.202  0.00  0.00    +0.000 A 
BRANCH  12  19
ATOM     18  C   UNL     1       5.089   6.157  16.325  0.00  0.00    +0.000 C 
ATOM     19  O   UNL     1       4.943   5.119  17.290  0.00  0.00    +0.000 OA
ENDBRANCH  12  19
BRANCH  16  20
ATOM     20  O   UNL     1       2.483   3.624  21.228  0.00  0.00    +0.000 OA
ATOM     21  C   UNL     1       1.232   2.972  21.056  0.00  0.00    +0.000 C 
ENDBRANCH  16  20
BRANCH  17  22
ATOM     22  O   UNL     1       4.295   3.010  19.160  0.00  0.00    +0.000 OA
ATOM     23  C   UNL     1       3.675   1.991  18.416  0.00  0.00    +0.000 C 
ENDBRANCH  17  22
ENDBRANCH   1  14
BRANCH   6  24
ATOM     24  O   UNL     1       1.145  12.532  21.651  0.00  0.00    +0.000 OA
ATOM     25  H   UNL     1       0.444  12.794  22.273  0.00  0.00    +0.000 HD
ENDBRANCH   6  24
BRANCH   8  26
ATOM     26  O   UNL     1      -1.636  12.677  17.827  0.00  0.00    +0.000 OA
ATOM     27  H   UNL     1      -2.216  13.203  18.418  0.00  0.00    +0.000 HD
ENDBRANCH   8  26
TORSDOF 6
ENDMDL
MODEL 5
REMARK VINA RESULT:      -7.2      1.855      7.882
REMARK  Name = 
REMARK  9 active torsions:
REMARK  status: ('A' for Active; 'I' for Inactive)
REMARK    1  A    between atoms: C_1  and  O_2
REMARK    2  A    between atoms: O_2  and  C_3
REMARK    3  A    between atoms: C_5  and  C_6
REMARK    4  A    between atoms: C_11  and  O_12
REMARK    5  A    between atoms: C_14  and  O_15
REMARK    6  A    between atoms: C_20  and  O_21
REMARK    7  A    between atoms: O_21  and  C_22
REMARK    8  A    between atoms: C_23  and  O_24
REMARK    9  A    between atoms: O_24  and  C_25
REMARK                            x       y       z     vdW  Elec       q    Type
REMARK                         _______ _______ _______ _____ _____    ______ ____
ROOT
ATOM      1  C   UNL     1       2.009   7.047  19.424  0.00  0.00    +0.000 C 
ATOM      2  C   UNL     1       2.025   6.051  20.583  0.00  0.00    +0.000 C 
ATOM      3  C   UNL     1       1.581   4.800  19.888  0.00  0.00    +0.000 C 
ATOM      4  O   UNL     1       0.701   4.054  20.318  0.00  0.00    +0.000 OA
ATOM      5  C   UNL     1       2.317   4.507  18.646  0.00  0.00    +0.000 A 
ATOM      6  C   UNL     1       2.240   3.267  18.019  0.00  0.00    +0.000 A 
ATOM      7  C   UNL     1       3.305   2.831  17.254  0.00  0.00    +0.000 A 
ATOM      8  C   UNL     1       4.387   3.694  17.046  0.00  0.00    +0.000 A 
ATOM      9  C   UNL     1       4.348   5.026  17.471  0.00  0.00    +0.000 A 
ATOM     10  C   UNL     1       3.283   5.459  18.258  0.00  0.00    +0.000 A 
ATOM     11  O   UNL     1       3.232   6.790  18.673  0.00  0.00    +0.000 OA
ENDROOT
BRANCH   1  14
ATOM     12  C   UNL     1       1.118  10.819  19.414  0.00  0.00    +0.000 A 
ATOM     13  C   UNL     1       1.586   9.554  18.971  0.00  0.00    +0.000 A 
ATOM     14  C   UNL     1       1.716   8.479  19.853  0.00  0.00    +0.000 A 
ATOM     15  C   UNL     1       1.363   8.706  21.193  0.00  0.00    +0.000 A 
ATOM     16  C   UNL     1       0.939   9.952  21.665  0.00  0.00    +0.000 A 
ATOM     17  C   UNL     1       0.824  11.036  20.781  0.00  0.00    +0.000 A 
BRANCH  12  19
ATOM     18  C   UNL     1       2.117  12.675  18.303  0.00  0.00    +0.000 C 
ATOM     19  O   UNL     1       0.964  11.873  18.545  0.00  0.00    +0.000 OA
ENDBRANCH  12  19
BRANCH  16  20
ATOM     20  O   UNL     1       0.712   9.947  23.019  0.00  0.00    +0.000 OA
ATOM     21  C   UNL     1      -0.585   9.560  23.453  0.00  0.00    +0.000 C 
ENDBRANCH  16  20
BRANCH  17  22
ATOM     22  O   UNL     1       0.485  12.224  21.375  0.00  0.00    +0.000 OA
ATOM     23  C   UNL     1      -0.850  12.659  21.428  0.00  0.00    +0.000 C 
ENDBRANCH  17  22
ENDBRANCH   1  14
BRANCH   6  24
ATOM     24  O   UNL     1       1.155   2.450  18.101  0.00  0.00    +0.000 OA
ATOM     25  H   UNL     1       0.701   2.622  18.945  0.00  0.00    +0.000 HD
ENDBRANCH   6  24
BRANCH   8  26
ATOM     26  O   UNL     1       5.508   3.239  16.426  0.00  0.00    +0.000 OA
ATOM     27  H   UNL     1       6.237   3.225  17.084  0.00  0.00    +0.000 HD
ENDBRANCH   8  26
TORSDOF 6
ENDMDL
MODEL 6
REMARK VINA RESULT:      -7.2      1.971      7.502
REMARK  Name = 
REMARK  9 active torsions:
REMARK  status: ('A' for Active; 'I' for Inactive)
REMARK    1  A    between atoms: C_1  and  O_2
REMARK    2  A    between atoms: O_2  and  C_3
REMARK    3  A    between atoms: C_5  and  C_6
REMARK    4  A    between atoms: C_11  and  O_12
REMARK    5  A    between atoms: C_14  and  O_15
REMARK    6  A    between atoms: C_20  and  O_21
REMARK    7  A    between atoms: O_21  and  C_22
REMARK    8  A    between atoms: C_23  and  O_24
REMARK    9  A    between atoms: O_24  and  C_25
REMARK                            x       y       z     vdW  Elec       q    Type
REMARK                         _______ _______ _______ _____ _____    ______ ____
ROOT
ATOM      1  C   UNL     1       2.321   7.088  19.530  0.00  0.00    +0.000 C 
ATOM      2  C   UNL     1       2.882   7.117  18.108  0.00  0.00    +0.000 C 
ATOM      3  C   UNL     1       4.013   6.140  18.230  0.00  0.00    +0.000 C 
ATOM      4  O   UNL     1       5.153   6.360  17.821  0.00  0.00    +0.000 OA
ATOM      5  C   UNL     1       3.639   4.861  18.857  0.00  0.00    +0.000 A 
ATOM      6  C   UNL     1       4.470   3.746  18.806  0.00  0.00    +0.000 A 
ATOM      7  C   UNL     1       3.909   2.485  18.866  0.00  0.00    +0.000 A 
ATOM      8  C   UNL     1       2.532   2.365  19.082  0.00  0.00    +0.000 A 
ATOM      9  C   UNL     1       1.742   3.482  19.380  0.00  0.00    +0.000 A 
ATOM     10  C   UNL     1       2.305   4.754  19.301  0.00  0.00    +0.000 A 
ATOM     11  O   UNL     1       1.526   5.869  19.610  0.00  0.00    +0.000 OA
ENDROOT
BRANCH   1  14
ATOM     12  C   UNL     1       0.855   9.995  21.633  0.00  0.00    +0.000 A 
ATOM     13  C   UNL     1       1.267   8.689  21.261  0.00  0.00    +0.000 A 
ATOM     14  C   UNL     1       1.673   8.399  19.956  0.00  0.00    +0.000 A 
ATOM     15  C   UNL     1       1.656   9.457  19.033  0.00  0.00    +0.000 A 
ATOM     16  C   UNL     1       1.215  10.743  19.361  0.00  0.00    +0.000 A 
ATOM     17  C   UNL     1       0.792  11.029  20.668  0.00  0.00    +0.000 A 
BRANCH  12  19
ATOM     18  C   UNL     1      -0.858   9.962  23.288  0.00  0.00    +0.000 C 
ATOM     19  O   UNL     1       0.479  10.291  22.922  0.00  0.00    +0.000 OA
ENDBRANCH  12  19
BRANCH  16  20
ATOM     20  O   UNL     1       1.229  11.590  18.280  0.00  0.00    +0.000 OA
ATOM     21  C   UNL     1       2.374  12.418  18.126  0.00  0.00    +0.000 C 
ENDBRANCH  16  20
BRANCH  17  22
ATOM     22  O   UNL     1       0.302  12.296  20.846  0.00  0.00    +0.000 OA
ATOM     23  C   UNL     1      -1.068  12.577  20.704  0.00  0.00    +0.000 C 
ENDBRANCH  17  22
ENDBRANCH   1  14
BRANCH   6  24
ATOM     24  O   UNL     1       5.825   3.823  18.716  0.00  0.00    +0.000 OA
ATOM     25  H   UNL     1       6.093   3.536  17.825  0.00  0.00    +0.000 HD
ENDBRANCH   6  24
BRANCH   8  26
ATOM     26  O   UNL     1       1.934   1.147  18.997  0.00  0.00    +0.000 OA
ATOM     27  H   UNL     1       2.569   0.523  18.584  0.00  0.00    +0.000 HD
ENDBRANCH   8  26
TORSDOF 6
ENDMDL
MODEL 7
REMARK VINA RESULT:      -7.2      0.453      2.526
REMARK  Name = 
REMARK  9 active torsions:
REMARK  status: ('A' for Active; 'I' for Inactive)
REMARK    1  A    between atoms: C_1  and  O_2
REMARK    2  A    between atoms: O_2  and  C_3
REMARK    3  A    between atoms: C_5  and  C_6
REMARK    4  A    between atoms: C_11  and  O_12
REMARK    5  A    between atoms: C_14  and  O_15
REMARK    6  A    between atoms: C_20  and  O_21
REMARK    7  A    between atoms: O_21  and  C_22
REMARK    8  A    between atoms: C_23  and  O_24
REMARK    9  A    between atoms: O_24  and  C_25
REMARK                            x       y       z     vdW  Elec       q    Type
REMARK                         _______ _______ _______ _____ _____    ______ ____
ROOT
ATOM      1  C   UNL     1       2.253   7.732  18.623  0.00  0.00    +0.000 C 
ATOM      2  C   UNL     1       2.457   9.187  18.204  0.00  0.00    +0.000 C 
ATOM      3  C   UNL     1       1.095   9.753  18.471  0.00  0.00    +0.000 C 
ATOM      4  O   UNL     1       0.476  10.453  17.669  0.00  0.00    +0.000 OA
ATOM      5  C   UNL     1       0.561   9.431  19.805  0.00  0.00    +0.000 A 
ATOM      6  C   UNL     1      -0.549  10.086  20.332  0.00  0.00    +0.000 A 
ATOM      7  C   UNL     1      -0.676  10.199  21.703  0.00  0.00    +0.000 A 
ATOM      8  C   UNL     1       0.260   9.561  22.526  0.00  0.00    +0.000 A 
ATOM      9  C   UNL     1       1.226   8.699  21.995  0.00  0.00    +0.000 A 
ATOM     10  C   UNL     1       1.365   8.601  20.613  0.00  0.00    +0.000 A 
ATOM     11  O   UNL     1       2.318   7.733  20.080  0.00  0.00    +0.000 OA
ENDROOT
BRANCH   1  14
ATOM     12  C   UNL     1       5.247   6.055  16.821  0.00  0.00    +0.000 A 
ATOM     13  C   UNL     1       4.392   7.062  17.341  0.00  0.00    +0.000 A 
ATOM     14  C   UNL     1       3.136   6.749  17.864  0.00  0.00    +0.000 A 
ATOM     15  C   UNL     1       2.759   5.396  17.854  0.00  0.00    +0.000 A 
ATOM     16  C   UNL     1       3.563   4.389  17.312  0.00  0.00    +0.000 A 
ATOM     17  C   UNL     1       4.818   4.707  16.771  0.00  0.00    +0.000 A 
BRANCH  12  19
ATOM     18  C   UNL     1       7.449   6.849  17.264  0.00  0.00    +0.000 C 
ATOM     19  O   UNL     1       6.495   6.354  16.328  0.00  0.00    +0.000 OA
ENDBRANCH  12  19
BRANCH  16  20
ATOM     20  O   UNL     1       2.958   3.158  17.358  0.00  0.00    +0.000 OA
ATOM     21  C   UNL     1       1.803   3.038  18.178  0.00  0.00    +0.000 C 
ENDBRANCH  16  20
BRANCH  17  22
ATOM     22  O   UNL     1       5.475   3.652  16.192  0.00  0.00    +0.000 OA
ATOM     23  C   UNL     1       5.922   3.711  14.861  0.00  0.00    +0.000 C 
ENDBRANCH  17  22
ENDBRANCH   1  14
BRANCH   6  24
ATOM     24  O   UNL     1      -1.540  10.617  19.567  0.00  0.00    +0.000 OA
ATOM     25  H   UNL     1      -1.148  11.269  18.961  0.00  0.00    +0.000 HD
ENDBRANCH   6  24
BRANCH   8  26
ATOM     26  O   UNL     1       0.245   9.778  23.867  0.00  0.00    +0.000 OA
ATOM     27  H   UNL     1       0.262   8.907  24.319  0.00  0.00    +0.000 HD
ENDBRANCH   8  26
TORSDOF 6
ENDMDL
MODEL 8
REMARK VINA RESULT:      -7.2      1.727      7.629
REMARK  Name = 
REMARK  9 active torsions:
REMARK  status: ('A' for Active; 'I' for Inactive)
REMARK    1  A    between atoms: C_1  and  O_2
REMARK    2  A    between atoms: O_2  and  C_3
REMARK    3  A    between atoms: C_5  and  C_6
REMARK    4  A    between atoms: C_11  and  O_12
REMARK    5  A    between atoms: C_14  and  O_15
REMARK    6  A    between atoms: C_20  and  O_21
REMARK    7  A    between atoms: O_21  and  C_22
REMARK    8  A    between atoms: C_23  and  O_24
REMARK    9  A    between atoms: O_24  and  C_25
REMARK                            x       y       z     vdW  Elec       q    Type
REMARK                         _______ _______ _______ _____ _____    ______ ____
ROOT
ATOM      1  C   UNL     1       2.019   7.040  19.364  0.00  0.00    +0.000 C 
ATOM      2  C   UNL     1       1.972   5.935  20.419  0.00  0.00    +0.000 C 
ATOM      3  C   UNL     1       1.807   4.723  19.553  0.00  0.00    +0.000 C 
ATOM      4  O   UNL     1       0.969   3.844  19.760  0.00  0.00    +0.000 OA
ATOM      5  C   UNL     1       2.764   4.645  18.437  0.00  0.00    +0.000 A 
ATOM      6  C   UNL     1       2.945   3.477  17.702  0.00  0.00    +0.000 A 
ATOM      7  C   UNL     1       4.165   3.244  17.098  0.00  0.00    +0.000 A 
ATOM      8  C   UNL     1       5.151   4.236  17.155  0.00  0.00    +0.000 A 
ATOM      9  C   UNL     1       4.877   5.504  17.679  0.00  0.00    +0.000 A 
ATOM     10  C   UNL     1       3.653   5.732  18.304  0.00  0.00    +0.000 A 
ATOM     11  O   UNL     1       3.370   6.998  18.817  0.00  0.00    +0.000 OA
ENDROOT
BRANCH   1  14
ATOM     12  C   UNL     1       0.828   9.961  21.618  0.00  0.00    +0.000 A 
ATOM     13  C   UNL     1       1.129   8.643  21.183  0.00  0.00    +0.000 A 
ATOM     14  C   UNL     1       1.484   8.378  19.859  0.00  0.00    +0.000 A 
ATOM     15  C   UNL     1       1.531   9.472  18.979  0.00  0.00    +0.000 A 
ATOM     16  C   UNL     1       1.200  10.773  19.370  0.00  0.00    +0.000 A 
ATOM     17  C   UNL     1       0.828  11.035  20.697  0.00  0.00    +0.000 A 
BRANCH  12  19
ATOM     18  C   UNL     1      -0.875  10.135  23.274  0.00  0.00    +0.000 C 
ATOM     19  O   UNL     1       0.503  10.230  22.926  0.00  0.00    +0.000 OA
ENDBRANCH  12  19
BRANCH  16  20
ATOM     20  O   UNL     1       1.258  11.661  18.324  0.00  0.00    +0.000 OA
ATOM     21  C   UNL     1       2.465  12.397  18.171  0.00  0.00    +0.000 C 
ENDBRANCH  16  20
BRANCH  17  22
ATOM     22  O   UNL     1       0.442  12.328  20.937  0.00  0.00    +0.000 OA
ATOM     23  C   UNL     1      -0.881  12.749  20.719  0.00  0.00    +0.000 C 
ENDBRANCH  17  22
ENDBRANCH   1  14
BRANCH   6  24
ATOM     24  O   UNL     1       1.972   2.543  17.525  0.00  0.00    +0.000 OA
ATOM     25  H   UNL     1       2.300   1.688  17.854  0.00  0.00    +0.000 HD
ENDBRANCH   6  24
BRANCH   8  26
ATOM     26  O   UNL     1       6.405   3.974  16.700  0.00  0.00    +0.000 OA
ATOM     27  H   UNL     1       6.381   3.976  15.719  0.00  0.00    +0.000 HD
ENDBRANCH   8  26
TORSDOF 6
ENDMDL
MODEL 9
REMARK VINA RESULT:      -7.1      1.275      2.491
REMARK  Name = 
REMARK  9 active torsions:
REMARK  status: ('A' for Active; 'I' for Inactive)
REMARK    1  A    between atoms: C_1  and  O_2
REMARK    2  A    between atoms: O_2  and  C_3
REMARK    3  A    between atoms: C_5  and  C_6
REMARK    4  A    between atoms: C_11  and  O_12
REMARK    5  A    between atoms: C_14  and  O_15
REMARK    6  A    between atoms: C_20  and  O_21
REMARK    7  A    between atoms: O_21  and  C_22
REMARK    8  A    between atoms: C_23  and  O_24
REMARK    9  A    between atoms: O_24  and  C_25
REMARK                            x       y       z     vdW  Elec       q    Type
REMARK                         _______ _______ _______ _____ _____    ______ ____
ROOT
ATOM      1  C   UNL     1       2.226   7.963  18.851  0.00  0.00    +0.000 C 
ATOM      2  C   UNL     1       1.456   7.504  20.088  0.00  0.00    +0.000 C 
ATOM      3  C   UNL     1       1.319   8.797  20.832  0.00  0.00    +0.000 C 
ATOM      4  O   UNL     1       1.572   8.926  22.030  0.00  0.00    +0.000 OA
ATOM      5  C   UNL     1       0.814   9.913  20.014  0.00  0.00    +0.000 A 
ATOM      6  C   UNL     1       0.365  11.100  20.585  0.00  0.00    +0.000 A 
ATOM      7  C   UNL     1      -0.585  11.850  19.919  0.00  0.00    +0.000 A 
ATOM      8  C   UNL     1      -0.992  11.448  18.641  0.00  0.00    +0.000 A 
ATOM      9  C   UNL     1      -0.357  10.397  17.972  0.00  0.00    +0.000 A 
ATOM     10  C   UNL     1       0.588   9.630  18.651  0.00  0.00    +0.000 A 
ATOM     11  O   UNL     1       1.234   8.589  17.984  0.00  0.00    +0.000 OA
ENDROOT
BRANCH   1  14
ATOM     12  C   UNL     1       3.550   4.637  17.364  0.00  0.00    +0.000 A 
ATOM     13  C   UNL     1       2.750   5.547  18.105  0.00  0.00    +0.000 A 
ATOM     14  C   UNL     1       3.123   6.885  18.255  0.00  0.00    +0.000 A 
ATOM     15  C   UNL     1       4.319   7.287  17.640  0.00  0.00    +0.000 A 
ATOM     16  C   UNL     1       5.146   6.404  16.940  0.00  0.00    +0.000 A 
ATOM     17  C   UNL     1       4.780   5.056  16.804  0.00  0.00    +0.000 A 
BRANCH  12  19
ATOM     18  C   UNL     1       2.071   2.870  17.969  0.00  0.00    +0.000 C 
ATOM     19  O   UNL     1       3.176   3.325  17.192  0.00  0.00    +0.000 OA
ENDBRANCH  12  19
BRANCH  16  20
ATOM     20  O   UNL     1       6.290   7.012  16.484  0.00  0.00    +0.000 OA
ATOM     21  C   UNL     1       7.352   7.167  17.415  0.00  0.00    +0.000 C 
ENDBRANCH  16  20
BRANCH  17  22
ATOM     22  O   UNL     1       5.711   4.272  16.175  0.00  0.00    +0.000 OA
ATOM     23  C   UNL     1       5.730   4.140  14.775  0.00  0.00    +0.000 C 
ENDBRANCH  17  22
ENDBRANCH   1  14
BRANCH   6  24
ATOM     24  O   UNL     1       0.824  11.585  21.770  0.00  0.00    +0.000 OA
ATOM     25  H   UNL     1       1.666  11.144  21.979  0.00  0.00    +0.000 HD
ENDBRANCH   6  24
BRANCH   8  26
ATOM     26  O   UNL     1      -2.029  12.080  18.029  0.00  0.00    +0.000 OA
ATOM     27  H   UNL     1      -1.736  12.348  17.131  0.00  0.00    +0.000 HD
ENDBRANCH   8  26
TORSDOF 6
ENDMDL
