MODEL 1
REMARK VINA RESULT:      -6.6      0.000      0.000
REMARK  Name = 
REMARK  8 active torsions:
REMARK  status: ('A' for Active; 'I' for Inactive)
REMARK    1  A    between atoms: C_2  and  C_3
REMARK    2  A    between atoms: C_3  and  C_4
REMARK    3  A    between atoms: C_4  and  C_5
REMARK    4  A    between atoms: C_5  and  C_6
REMARK    5  A    between atoms: C_6  and  P_7
REMARK    6  A    between atoms: P_7  and  O_9
REMARK    7  A    between atoms: P_7  and  O_10
REMARK    8  A    between atoms: N_11  and  C_12
REMARK                            x       y       z     vdW  Elec       q    Type
REMARK                         _______ _______ _______ _____ _____    ______ ____
ROOT
ATOM      1  O   UNL     1       4.204   2.826  17.384  0.00  0.00    +0.000 OA
ATOM      2  C   UNL     1       4.416   3.922  16.862  0.00  0.00    +0.000 C 
ATOM      3  N   UNL     1       3.898   5.140  17.268  0.00  0.00    +0.000 N 
ATOM      4  H   UNL     1       3.982   5.915  16.624  0.00  0.00    +0.000 HD
ENDROOT
BRANCH   3   5
ATOM      5  C   UNL     1       3.126   5.364  18.430  0.00  0.00    +0.000 A 
ATOM      6  C   UNL     1       2.782   6.640  18.890  0.00  0.00    +0.000 A 
ATOM      7  C   UNL     1       2.048   6.803  20.067  0.00  0.00    +0.000 A 
ATOM      8  C   UNL     1       1.644   5.688  20.798  0.00  0.00    +0.000 A 
ATOM      9  C   UNL     1       1.955   4.414  20.325  0.00  0.00    +0.000 A 
ATOM     10 BR   UNL     1       1.408   2.896  21.311  0.00  0.00    +0.000 Br
ATOM     11  C   UNL     1       2.679   4.246  19.141  0.00  0.00    +0.000 A 
ENDBRANCH   3   5
BRANCH   2  12
ATOM     12  C   UNL     1       5.322   4.018  15.649  0.00  0.00    +0.000 C 
BRANCH  12  13
ATOM     13  C   UNL     1       5.909   5.414  15.449  0.00  0.00    +0.000 C 
BRANCH  13  14
ATOM     14  C   UNL     1       7.180   5.634  16.274  0.00  0.00    +0.000 C 
BRANCH  14  15
ATOM     15  C   UNL     1       6.928   6.543  17.472  0.00  0.00    +0.000 C 
BRANCH  15  16
ATOM     16  P   UNL     1       7.628   5.867  19.021  0.00  0.00    +0.000 P 
ATOM     17  O   UNL     1       6.226   5.632  19.587  0.00  0.00    +0.000 OA
BRANCH  16  18
ATOM     18  O   UNL     1       7.999   4.463  18.270  0.00  0.00    +0.000 OA
ATOM     19  H   UNL     1       7.720   3.695  18.803  0.00  0.00    +0.000 HD
ENDBRANCH  16  18
BRANCH  16  20
ATOM     20  O   UNL     1       8.290   5.229  20.486  0.00  0.00    +0.000 OA
ATOM     21  H   UNL     1       8.752   5.986  20.901  0.00  0.00    +0.000 HD
ENDBRANCH  16  20
ENDBRANCH  15  16
ENDBRANCH  14  15
ENDBRANCH  13  14
ENDBRANCH  12  13
ENDBRANCH   2  12
TORSDOF 8
ENDMDL
MODEL 2
REMARK VINA RESULT:      -6.3      3.423      5.794
REMARK  Name = 
REMARK  8 active torsions:
REMARK  status: ('A' for Active; 'I' for Inactive)
REMARK    1  A    between atoms: C_2  and  C_3
REMARK    2  A    between atoms: C_3  and  C_4
REMARK    3  A    between atoms: C_4  and  C_5
REMARK    4  A    between atoms: C_5  and  C_6
REMARK    5  A    between atoms: C_6  and  P_7
REMARK    6  A    between atoms: P_7  and  O_9
REMARK    7  A    between atoms: P_7  and  O_10
REMARK    8  A    between atoms: N_11  and  C_12
REMARK                            x       y       z     vdW  Elec       q    Type
REMARK                         _______ _______ _______ _____ _____    ______ ____
ROOT
ATOM      1  O   UNL     1       3.755   7.712  17.550  0.00  0.00    +0.000 OA
ATOM      2  C   UNL     1       3.292   6.718  18.112  0.00  0.00    +0.000 C 
ATOM      3  N   UNL     1       3.802   5.433  18.061  0.00  0.00    +0.000 N 
ATOM      4  H   UNL     1       3.204   4.685  18.388  0.00  0.00    +0.000 HD
ENDROOT
BRANCH   3   5
ATOM      5  C   UNL     1       5.017   5.049  17.450  0.00  0.00    +0.000 A 
ATOM      6  C   UNL     1       6.241   5.020  18.128  0.00  0.00    +0.000 A 
ATOM      7  C   UNL     1       7.418   4.669  17.464  0.00  0.00    +0.000 A 
ATOM      8  C   UNL     1       7.385   4.338  16.112  0.00  0.00    +0.000 A 
ATOM      9  C   UNL     1       6.163   4.333  15.441  0.00  0.00    +0.000 A 
ATOM     10 BR   UNL     1       6.110   3.882  13.606  0.00  0.00    +0.000 Br
ATOM     11  C   UNL     1       4.980   4.671  16.105  0.00  0.00    +0.000 A 
ENDBRANCH   3   5
BRANCH   2  12
ATOM     12  C   UNL     1       2.039   6.845  18.958  0.00  0.00    +0.000 C 
BRANCH  12  13
ATOM     13  C   UNL     1       2.180   6.203  20.336  0.00  0.00    +0.000 C 
BRANCH  13  14
ATOM     14  C   UNL     1       1.239   5.010  20.520  0.00  0.00    +0.000 C 
BRANCH  14  15
ATOM     15  C   UNL     1       1.978   3.779  21.034  0.00  0.00    +0.000 C 
BRANCH  15  16
ATOM     16  P   UNL     1       2.170   2.492  19.747  0.00  0.00    +0.000 P 
ATOM     17  O   UNL     1       1.534   3.404  18.697  0.00  0.00    +0.000 OA
BRANCH  16  18
ATOM     18  O   UNL     1       3.771   2.808  19.636  0.00  0.00    +0.000 OA
ATOM     19  H   UNL     1       3.929   3.709  19.298  0.00  0.00    +0.000 HD
ENDBRANCH  16  18
BRANCH  16  20
ATOM     20  O   UNL     1       2.352   1.276  18.531  0.00  0.00    +0.000 OA
ATOM     21  H   UNL     1       1.624   1.447  17.899  0.00  0.00    +0.000 HD
ENDBRANCH  16  20
ENDBRANCH  15  16
ENDBRANCH  14  15
ENDBRANCH  13  14
ENDBRANCH  12  13
ENDBRANCH   2  12
TORSDOF 8
ENDMDL
MODEL 3
REMARK VINA RESULT:      -6.3      5.176      6.437
REMARK  Name = 
REMARK  8 active torsions:
REMARK  status: ('A' for Active; 'I' for Inactive)
REMARK    1  A    between atoms: C_2  and  C_3
REMARK    2  A    between atoms: C_3  and  C_4
REMARK    3  A    between atoms: C_4  and  C_5
REMARK    4  A    between atoms: C_5  and  C_6
REMARK    5  A    between atoms: C_6  and  P_7
REMARK    6  A    between atoms: P_7  and  O_9
REMARK    7  A    between atoms: P_7  and  O_10
REMARK    8  A    between atoms: N_11  and  C_12
REMARK                            x       y       z     vdW  Elec       q    Type
REMARK                         _______ _______ _______ _____ _____    ______ ____
ROOT
ATOM      1  O   UNL     1       8.222   7.042  18.706  0.00  0.00    +0.000 OA
ATOM      2  C   UNL     1       7.755   7.819  17.872  0.00  0.00    +0.000 C 
ATOM      3  N   UNL     1       6.813   7.518  16.904  0.00  0.00    +0.000 N 
ATOM      4  H   UNL     1       6.686   8.189  16.158  0.00  0.00    +0.000 HD
ENDROOT
BRANCH   3   5
ATOM      5  C   UNL     1       6.125   6.290  16.774  0.00  0.00    +0.000 A 
ATOM      6  C   UNL     1       6.648   5.185  16.093  0.00  0.00    +0.000 A 
ATOM      7  C   UNL     1       5.907   4.008  15.963  0.00  0.00    +0.000 A 
ATOM      8  C   UNL     1       4.633   3.920  16.519  0.00  0.00    +0.000 A 
ATOM      9  C   UNL     1       4.123   5.006  17.228  0.00  0.00    +0.000 A 
ATOM     10 BR   UNL     1       2.395   4.894  17.987  0.00  0.00    +0.000 Br
ATOM     11  C   UNL     1       4.865   6.182  17.370  0.00  0.00    +0.000 A 
ENDBRANCH   3   5
BRANCH   2  12
ATOM     12  C   UNL     1       8.218   9.264  17.845  0.00  0.00    +0.000 C 
BRANCH  12  13
ATOM     13  C   UNL     1       9.106   9.630  19.031  0.00  0.00    +0.000 C 
BRANCH  13  14
ATOM     14  C   UNL     1       9.460  11.120  19.054  0.00  0.00    +0.000 C 
BRANCH  14  15
ATOM     15  C   UNL     1      10.252  11.533  17.818  0.00  0.00    +0.000 C 
BRANCH  15  16
ATOM     16  P   UNL     1      11.196  13.078  18.077  0.00  0.00    +0.000 P 
ATOM     17  O   UNL     1      11.527  13.162  16.585  0.00  0.00    +0.000 OA
BRANCH  16  18
ATOM     18  O   UNL     1       9.808  13.929  18.229  0.00  0.00    +0.000 OA
ATOM     19  H   UNL     1       9.857  14.772  17.738  0.00  0.00    +0.000 HD
ENDBRANCH  16  18
BRANCH  16  20
ATOM     20  O   UNL     1      12.089  14.539  18.322  0.00  0.00    +0.000 OA
ATOM     21  H   UNL     1      11.422  15.190  18.621  0.00  0.00    +0.000 HD
ENDBRANCH  16  20
ENDBRANCH  15  16
ENDBRANCH  14  15
ENDBRANCH  13  14
ENDBRANCH  12  13
ENDBRANCH   2  12
TORSDOF 8
ENDMDL
MODEL 4
REMARK VINA RESULT:      -6.3      3.061      5.236
REMARK  Name = 
REMARK  8 active torsions:
REMARK  status: ('A' for Active; 'I' for Inactive)
REMARK    1  A    between atoms: C_2  and  C_3
REMARK    2  A    between atoms: C_3  and  C_4
REMARK    3  A    between atoms: C_4  and  C_5
REMARK    4  A    between atoms: C_5  and  C_6
REMARK    5  A    between atoms: C_6  and  P_7
REMARK    6  A    between atoms: P_7  and  O_9
REMARK    7  A    between atoms: P_7  and  O_10
REMARK    8  A    between atoms: N_11  and  C_12
REMARK                            x       y       z     vdW  Elec       q    Type
REMARK                         _______ _______ _______ _____ _____    ______ ____
ROOT
ATOM      1  O   UNL     1       1.013   4.320  17.181  0.00  0.00    +0.000 OA
ATOM      2  C   UNL     1       1.656   4.243  18.229  0.00  0.00    +0.000 C 
ATOM      3  N   UNL     1       2.982   4.599  18.409  0.00  0.00    +0.000 N 
ATOM      4  H   UNL     1       3.434   4.284  19.257  0.00  0.00    +0.000 HD
ENDROOT
BRANCH   3   5
ATOM      5  C   UNL     1       3.806   5.228  17.449  0.00  0.00    +0.000 A 
ATOM      6  C   UNL     1       3.993   6.613  17.386  0.00  0.00    +0.000 A 
ATOM      7  C   UNL     1       4.790   7.184  16.392  0.00  0.00    +0.000 A 
ATOM      8  C   UNL     1       5.415   6.373  15.447  0.00  0.00    +0.000 A 
ATOM      9  C   UNL     1       5.259   4.990  15.526  0.00  0.00    +0.000 A 
ATOM     10 BR   UNL     1       6.105   3.883  14.249  0.00  0.00    +0.000 Br
ATOM     11  C   UNL     1       4.472   4.414  16.528  0.00  0.00    +0.000 A 
ENDBRANCH   3   5
BRANCH   2  12
ATOM     12  C   UNL     1       0.990   3.714  19.486  0.00  0.00    +0.000 C 
BRANCH  12  13
ATOM     13  C   UNL     1       1.748   4.074  20.762  0.00  0.00    +0.000 C 
BRANCH  13  14
ATOM     14  C   UNL     1       1.828   2.899  21.740  0.00  0.00    +0.000 C 
BRANCH  14  15
ATOM     15  C   UNL     1       2.804   1.829  21.263  0.00  0.00    +0.000 C 
BRANCH  15  16
ATOM     16  P   UNL     1       4.234   2.536  20.367  0.00  0.00    +0.000 P 
ATOM     17  O   UNL     1       5.204   1.664  21.167  0.00  0.00    +0.000 OA
BRANCH  16  18
ATOM     18  O   UNL     1       3.882   1.638  19.047  0.00  0.00    +0.000 OA
ATOM     19  H   UNL     1       4.319   1.996  18.251  0.00  0.00    +0.000 HD
ENDBRANCH  16  18
BRANCH  16  20
ATOM     20  O   UNL     1       5.586   3.205  19.521  0.00  0.00    +0.000 OA
ATOM     21  H   UNL     1       5.484   2.886  18.600  0.00  0.00    +0.000 HD
ENDBRANCH  16  20
ENDBRANCH  15  16
ENDBRANCH  14  15
ENDBRANCH  13  14
ENDBRANCH  12  13
ENDBRANCH   2  12
TORSDOF 8
ENDMDL
MODEL 5
REMARK VINA RESULT:      -6.3      1.343      1.783
REMARK  Name = 
REMARK  8 active torsions:
REMARK  status: ('A' for Active; 'I' for Inactive)
REMARK    1  A    between atoms: C_2  and  C_3
REMARK    2  A    between atoms: C_3  and  C_4
REMARK    3  A    between atoms: C_4  and  C_5
REMARK    4  A    between atoms: C_5  and  C_6
REMARK    5  A    between atoms: C_6  and  P_7
REMARK    6  A    between atoms: P_7  and  O_9
REMARK    7  A    between atoms: P_7  and  O_10
REMARK    8  A    between atoms: N_11  and  C_12
REMARK                            x       y       z     vdW  Elec       q    Type
REMARK                         _______ _______ _______ _____ _____    ______ ____
ROOT
ATOM      1  O   UNL     1       5.249   3.306  17.966  0.00  0.00    +0.000 OA
ATOM      2  C   UNL     1       4.622   3.830  17.044  0.00  0.00    +0.000 C 
ATOM      3  N   UNL     1       3.321   4.302  17.097  0.00  0.00    +0.000 N 
ATOM      4  H   UNL     1       2.867   4.505  16.217  0.00  0.00    +0.000 HD
ENDROOT
BRANCH   3   5
ATOM      5  C   UNL     1       2.517   4.377  18.257  0.00  0.00    +0.000 A 
ATOM      6  C   UNL     1       1.760   3.303  18.738  0.00  0.00    +0.000 A 
ATOM      7  C   UNL     1       0.953   3.446  19.868  0.00  0.00    +0.000 A 
ATOM      8  C   UNL     1       0.897   4.666  20.536  0.00  0.00    +0.000 A 
ATOM      9  C   UNL     1       1.675   5.729  20.080  0.00  0.00    +0.000 A 
ATOM     10 BR   UNL     1       1.604   7.389  20.983  0.00  0.00    +0.000 Br
ATOM     11  C   UNL     1       2.493   5.587  18.956  0.00  0.00    +0.000 A 
ENDBRANCH   3   5
BRANCH   2  12
ATOM     12  C   UNL     1       5.278   4.003  15.687  0.00  0.00    +0.000 C 
BRANCH  12  13
ATOM     13  C   UNL     1       5.981   5.350  15.529  0.00  0.00    +0.000 C 
BRANCH  13  14
ATOM     14  C   UNL     1       5.928   6.186  16.810  0.00  0.00    +0.000 C 
BRANCH  14  15
ATOM     15  C   UNL     1       7.320   6.593  17.280  0.00  0.00    +0.000 C 
BRANCH  15  16
ATOM     16  P   UNL     1       7.720   5.934  18.939  0.00  0.00    +0.000 P 
ATOM     17  O   UNL     1       6.236   5.884  19.309  0.00  0.00    +0.000 OA
BRANCH  16  18
ATOM     18  O   UNL     1       8.026   4.458  18.305  0.00  0.00    +0.000 OA
ATOM     19  H   UNL     1       7.590   3.756  18.823  0.00  0.00    +0.000 HD
ENDBRANCH  16  18
BRANCH  16  20
ATOM     20  O   UNL     1       8.097   5.311  20.507  0.00  0.00    +0.000 OA
ATOM     21  H   UNL     1       8.658   4.527  20.334  0.00  0.00    +0.000 HD
ENDBRANCH  16  20
ENDBRANCH  15  16
ENDBRANCH  14  15
ENDBRANCH  13  14
ENDBRANCH  12  13
ENDBRANCH   2  12
TORSDOF 8
ENDMDL
MODEL 6
REMARK VINA RESULT:      -6.2      3.422      4.748
REMARK  Name = 
REMARK  8 active torsions:
REMARK  status: ('A' for Active; 'I' for Inactive)
REMARK    1  A    between atoms: C_2  and  C_3
REMARK    2  A    between atoms: C_3  and  C_4
REMARK    3  A    between atoms: C_4  and  C_5
REMARK    4  A    between atoms: C_5  and  C_6
REMARK    5  A    between atoms: C_6  and  P_7
REMARK    6  A    between atoms: P_7  and  O_9
REMARK    7  A    between atoms: P_7  and  O_10
REMARK    8  A    between atoms: N_11  and  C_12
REMARK                            x       y       z     vdW  Elec       q    Type
REMARK                         _______ _______ _______ _____ _____    ______ ____
ROOT
ATOM      1  O   UNL     1       4.806   6.857  17.389  0.00  0.00    +0.000 OA
ATOM      2  C   UNL     1       4.281   6.005  18.107  0.00  0.00    +0.000 C 
ATOM      3  N   UNL     1       3.190   6.188  18.938  0.00  0.00    +0.000 N 
ATOM      4  H   UNL     1       3.004   5.468  19.623  0.00  0.00    +0.000 HD
ENDROOT
BRANCH   3   5
ATOM      5  C   UNL     1       2.404   7.359  19.023  0.00  0.00    +0.000 A 
ATOM      6  C   UNL     1       2.141   8.189  17.928  0.00  0.00    +0.000 A 
ATOM      7  C   UNL     1       1.389   9.356  18.077  0.00  0.00    +0.000 A 
ATOM      8  C   UNL     1       0.884   9.706  19.327  0.00  0.00    +0.000 A 
ATOM      9  C   UNL     1       1.114   8.865  20.415  0.00  0.00    +0.000 A 
ATOM     10 BR   UNL     1       0.431   9.332  22.115  0.00  0.00    +0.000 Br
ATOM     11  C   UNL     1       1.857   7.690  20.267  0.00  0.00    +0.000 A 
ENDBRANCH   3   5
BRANCH   2  12
ATOM     12  C   UNL     1       4.837   4.593  18.133  0.00  0.00    +0.000 C 
BRANCH  12  13
ATOM     13  C   UNL     1       4.087   3.637  17.209  0.00  0.00    +0.000 C 
BRANCH  13  14
ATOM     14  C   UNL     1       3.652   2.357  17.927  0.00  0.00    +0.000 C 
BRANCH  14  15
ATOM     15  C   UNL     1       2.134   2.235  18.001  0.00  0.00    +0.000 C 
BRANCH  15  16
ATOM     16  P   UNL     1       1.488   2.544  19.684  0.00  0.00    +0.000 P 
ATOM     17  O   UNL     1       2.908   2.573  20.256  0.00  0.00    +0.000 OA
BRANCH  16  18
ATOM     18  O   UNL     1       1.177   4.104  19.305  0.00  0.00    +0.000 OA
ATOM     19  H   UNL     1       1.958   4.532  18.906  0.00  0.00    +0.000 HD
ENDBRANCH  16  18
BRANCH  16  20
ATOM     20  O   UNL     1       0.878   2.837  21.277  0.00  0.00    +0.000 OA
ATOM     21  H   UNL     1       0.372   2.029  21.500  0.00  0.00    +0.000 HD
ENDBRANCH  16  20
ENDBRANCH  15  16
ENDBRANCH  14  15
ENDBRANCH  13  14
ENDBRANCH  12  13
ENDBRANCH   2  12
TORSDOF 8
ENDMDL
MODEL 7
REMARK VINA RESULT:      -6.2      3.016      3.948
REMARK  Name = 
REMARK  8 active torsions:
REMARK  status: ('A' for Active; 'I' for Inactive)
REMARK    1  A    between atoms: C_2  and  C_3
REMARK    2  A    between atoms: C_3  and  C_4
REMARK    3  A    between atoms: C_4  and  C_5
REMARK    4  A    between atoms: C_5  and  C_6
REMARK    5  A    between atoms: C_6  and  P_7
REMARK    6  A    between atoms: P_7  and  O_9
REMARK    7  A    between atoms: P_7  and  O_10
REMARK    8  A    between atoms: N_11  and  C_12
REMARK                            x       y       z     vdW  Elec       q    Type
REMARK                         _______ _______ _______ _____ _____    ______ ____
ROOT
ATOM      1  O   UNL     1       1.962   5.071  17.961  0.00  0.00    +0.000 OA
ATOM      2  C   UNL     1       2.725   5.138  18.926  0.00  0.00    +0.000 C 
ATOM      3  N   UNL     1       2.914   6.232  19.752  0.00  0.00    +0.000 N 
ATOM      4  H   UNL     1       3.720   6.217  20.362  0.00  0.00    +0.000 HD
ENDROOT
BRANCH   3   5
ATOM      5  C   UNL     1       2.175   7.436  19.710  0.00  0.00    +0.000 A 
ATOM      6  C   UNL     1       2.127   8.269  18.587  0.00  0.00    +0.000 A 
ATOM      7  C   UNL     1       1.410   9.467  18.614  0.00  0.00    +0.000 A 
ATOM      8  C   UNL     1       0.727   9.846  19.767  0.00  0.00    +0.000 A 
ATOM      9  C   UNL     1       0.745   9.003  20.877  0.00  0.00    +0.000 A 
ATOM     10 BR   UNL     1      -0.181   9.509  22.446  0.00  0.00    +0.000 Br
ATOM     11  C   UNL     1       1.451   7.797  20.850  0.00  0.00    +0.000 A 
ENDBRANCH   3   5
BRANCH   2  12
ATOM     12  C   UNL     1       3.574   3.937  19.301  0.00  0.00    +0.000 C 
BRANCH  12  13
ATOM     13  C   UNL     1       5.017   4.049  18.816  0.00  0.00    +0.000 C 
BRANCH  13  14
ATOM     14  C   UNL     1       5.150   4.963  17.594  0.00  0.00    +0.000 C 
BRANCH  14  15
ATOM     15  C   UNL     1       5.305   4.165  16.304  0.00  0.00    +0.000 C 
BRANCH  15  16
ATOM     16  P   UNL     1       6.586   4.863  15.200  0.00  0.00    +0.000 P 
ATOM     17  O   UNL     1       5.874   6.217  15.180  0.00  0.00    +0.000 OA
BRANCH  16  18
ATOM     18  O   UNL     1       7.634   4.979  16.449  0.00  0.00    +0.000 OA
ATOM     19  H   UNL     1       8.558   4.927  16.139  0.00  0.00    +0.000 HD
ENDBRANCH  16  18
BRANCH  16  20
ATOM     20  O   UNL     1       7.797   5.523  14.156  0.00  0.00    +0.000 OA
ATOM     21  H   UNL     1       7.580   5.169  13.269  0.00  0.00    +0.000 HD
ENDBRANCH  16  20
ENDBRANCH  15  16
ENDBRANCH  14  15
ENDBRANCH  13  14
ENDBRANCH  12  13
ENDBRANCH   2  12
TORSDOF 8
ENDMDL
MODEL 8
REMARK VINA RESULT:      -6.2      4.192      5.083
REMARK  Name = 
REMARK  8 active torsions:
REMARK  status: ('A' for Active; 'I' for Inactive)
REMARK    1  A    between atoms: C_2  and  C_3
REMARK    2  A    between atoms: C_3  and  C_4
REMARK    3  A    between atoms: C_4  and  C_5
REMARK    4  A    between atoms: C_5  and  C_6
REMARK    5  A    between atoms: C_6  and  P_7
REMARK    6  A    between atoms: P_7  and  O_9
REMARK    7  A    between atoms: P_7  and  O_10
REMARK    8  A    between atoms: N_11  and  C_12
REMARK                            x       y       z     vdW  Elec       q    Type
REMARK                         _______ _______ _______ _____ _____    ______ ____
ROOT
ATOM      1  O   UNL     1       7.353   6.012  18.779  0.00  0.00    +0.000 OA
ATOM      2  C   UNL     1       6.885   6.694  17.867  0.00  0.00    +0.000 C 
ATOM      3  N   UNL     1       5.683   6.481  17.213  0.00  0.00    +0.000 N 
ATOM      4  H   UNL     1       5.531   6.986  16.350  0.00  0.00    +0.000 HD
ENDROOT
BRANCH   3   5
ATOM      5  C   UNL     1       4.717   5.509  17.557  0.00  0.00    +0.000 A 
ATOM      6  C   UNL     1       4.514   4.335  16.823  0.00  0.00    +0.000 A 
ATOM      7  C   UNL     1       3.518   3.426  17.186  0.00  0.00    +0.000 A 
ATOM      8  C   UNL     1       2.714   3.679  18.295  0.00  0.00    +0.000 A 
ATOM      9  C   UNL     1       2.935   4.830  19.049  0.00  0.00    +0.000 A 
ATOM     10 BR   UNL     1       1.848   5.179  20.556  0.00  0.00    +0.000 Br
ATOM     11  C   UNL     1       3.939   5.736  18.695  0.00  0.00    +0.000 A 
ENDBRANCH   3   5
BRANCH   2  12
ATOM     12  C   UNL     1       7.650   7.902  17.358  0.00  0.00    +0.000 C 
BRANCH  12  13
ATOM     13  C   UNL     1       8.509   8.562  18.434  0.00  0.00    +0.000 C 
BRANCH  13  14
ATOM     14  C   UNL     1       8.640  10.073  18.226  0.00  0.00    +0.000 C 
BRANCH  14  15
ATOM     15  C   UNL     1       9.713  10.679  19.126  0.00  0.00    +0.000 C 
BRANCH  15  16
ATOM     16  P   UNL     1      11.014  11.546  18.176  0.00  0.00    +0.000 P 
ATOM     17  O   UNL     1      10.259  12.871  18.294  0.00  0.00    +0.000 OA
BRANCH  16  18
ATOM     18  O   UNL     1      12.006  11.532  19.475  0.00  0.00    +0.000 OA
ATOM     19  H   UNL     1      11.747  10.836  20.108  0.00  0.00    +0.000 HD
ENDBRANCH  16  18
BRANCH  16  20
ATOM     20  O   UNL     1      12.244  12.365  17.277  0.00  0.00    +0.000 OA
ATOM     21  H   UNL     1      11.869  12.465  16.378  0.00  0.00    +0.000 HD
ENDBRANCH  16  20
ENDBRANCH  15  16
ENDBRANCH  14  15
ENDBRANCH  13  14
ENDBRANCH  12  13
ENDBRANCH   2  12
TORSDOF 8
ENDMDL
MODEL 9
REMARK VINA RESULT:      -6.2      2.857      3.849
REMARK  Name = 
REMARK  8 active torsions:
REMARK  status: ('A' for Active; 'I' for Inactive)
REMARK    1  A    between atoms: C_2  and  C_3
REMARK    2  A    between atoms: C_3  and  C_4
REMARK    3  A    between atoms: C_4  and  C_5
REMARK    4  A    between atoms: C_5  and  C_6
REMARK    5  A    between atoms: C_6  and  P_7
REMARK    6  A    between atoms: P_7  and  O_9
REMARK    7  A    between atoms: P_7  and  O_10
REMARK    8  A    between atoms: N_11  and  C_12
REMARK                            x       y       z     vdW  Elec       q    Type
REMARK                         _______ _______ _______ _____ _____    ______ ____
ROOT
ATOM      1  O   UNL     1       1.884   5.147  18.203  0.00  0.00    +0.000 OA
ATOM      2  C   UNL     1       2.781   5.365  19.019  0.00  0.00    +0.000 C 
ATOM      3  N   UNL     1       2.971   6.529  19.743  0.00  0.00    +0.000 N 
ATOM      4  H   UNL     1       3.862   6.645  20.206  0.00  0.00    +0.000 HD
ENDROOT
BRANCH   3   5
ATOM      5  C   UNL     1       2.096   7.639  19.766  0.00  0.00    +0.000 A 
ATOM      6  C   UNL     1       1.883   8.472  18.662  0.00  0.00    +0.000 A 
ATOM      7  C   UNL     1       1.035   9.578  18.752  0.00  0.00    +0.000 A 
ATOM      8  C   UNL     1       0.386   9.863  19.951  0.00  0.00    +0.000 A 
ATOM      9  C   UNL     1       0.569   9.017  21.043  0.00  0.00    +0.000 A 
ATOM     10 BR   UNL     1      -0.310   9.397  22.673  0.00  0.00    +0.000 Br
ATOM     11  C   UNL     1       1.407   7.902  20.953  0.00  0.00    +0.000 A 
ENDBRANCH   3   5
BRANCH   2  12
ATOM     12  C   UNL     1       3.817   4.294  19.304  0.00  0.00    +0.000 C 
BRANCH  12  13
ATOM     13  C   UNL     1       4.996   4.327  18.334  0.00  0.00    +0.000 C 
BRANCH  13  14
ATOM     14  C   UNL     1       4.782   3.407  17.128  0.00  0.00    +0.000 C 
BRANCH  14  15
ATOM     15  C   UNL     1       5.578   3.871  15.913  0.00  0.00    +0.000 C 
BRANCH  15  16
ATOM     16  P   UNL     1       6.626   5.325  16.278  0.00  0.00    +0.000 P 
ATOM     17  O   UNL     1       7.859   4.434  16.439  0.00  0.00    +0.000 OA
BRANCH  16  18
ATOM     18  O   UNL     1       6.637   5.744  14.697  0.00  0.00    +0.000 OA
ATOM     19  H   UNL     1       7.493   6.139  14.444  0.00  0.00    +0.000 HD
ENDBRANCH  16  18
BRANCH  16  20
ATOM     20  O   UNL     1       7.617   6.701  16.622  0.00  0.00    +0.000 OA
ATOM     21  H   UNL     1       7.473   6.878  17.575  0.00  0.00    +0.000 HD
ENDBRANCH  16  20
ENDBRANCH  15  16
ENDBRANCH  14  15
ENDBRANCH  13  14
ENDBRANCH  12  13
ENDBRANCH   2  12
TORSDOF 8
ENDMDL
