MODEL 1
REMARK VINA RESULT:      -7.9      0.000      0.000
REMARK  Name = 
REMARK  8 active torsions:
REMARK  status: ('A' for Active; 'I' for Inactive)
REMARK    1  A    between atoms: C_1  and  C_2
REMARK    2  A    between atoms: C_2  and  N_3
REMARK    3  A    between atoms: N_3  and  C_4
REMARK    4  A    between atoms: C_4  and  C_5
REMARK    5  A    between atoms: N_7  and  C_8
REMARK    6  A    between atoms: C_16  and  C_18
REMARK    7  A    between atoms: C_21  and  N_22
REMARK    8  A    between atoms: C_28  and  N_29
REMARK                            x       y       z     vdW  Elec       q    Type
REMARK                         _______ _______ _______ _____ _____    ______ ____
ROOT
ATOM      1  N   UNL     1       0.755   8.902  20.271  0.00  0.00    +0.000 N 
ATOM      2  C   UNL     1       1.445   7.691  20.480  0.00  0.00    +0.000 C 
ATOM      3  O   UNL     1       1.254   6.996  21.481  0.00  0.00    +0.000 OA
ENDROOT
BRANCH   2   4
ATOM      4  C   UNL     1       2.408   7.133  19.488  0.00  0.00    +0.000 A 
ATOM      5  C   UNL     1       2.807   7.951  18.429  0.00  0.00    +0.000 A 
ATOM      6  C   UNL     1       3.746   7.506  17.487  0.00  0.00    +0.000 A 
ATOM      7  C   UNL     1       4.378   6.248  17.568  0.00  0.00    +0.000 A 
ATOM      8  C   UNL     1       3.921   5.440  18.627  0.00  0.00    +0.000 A 
ATOM      9  C   UNL     1       2.914   5.844  19.529  0.00  0.00    +0.000 A 
BRANCH   7  10
ATOM     10  N   UNL     1       5.378   5.956  16.663  0.00  0.00    +0.000 N 
ATOM     11  C   UNL     1       5.196   5.782  15.209  0.00  0.00    +0.000 C 
ATOM     12  C   UNL     1       5.996   4.552  14.741  0.00  0.00    +0.000 C 
ATOM     13  O   UNL     1       7.384   4.639  15.106  0.00  0.00    +0.000 OA
ATOM     14  C   UNL     1       7.521   4.767  16.531  0.00  0.00    +0.000 C 
ATOM     15  C   UNL     1       6.806   6.025  17.045  0.00  0.00    +0.000 C 
ENDBRANCH   7  10
BRANCH   8  16
ATOM     16  N   UNL     1       4.462   4.121  18.905  0.00  0.00    +0.000 N 
ATOM     17  O   UNL     1       5.489   4.047  19.593  0.00  0.00    +0.000 OA
ATOM     18  O   UNL     1       3.884   3.162  18.374  0.00  0.00    +0.000 OA
ENDBRANCH   8  16
ENDBRANCH   2   4
BRANCH   1  20
ATOM     19  C   UNL     1       0.118  10.549  22.068  0.00  0.00    +0.000 C 
ATOM     20  C   UNL     1      -0.208   9.264  21.324  0.00  0.00    +0.000 C 
ENDBRANCH   1  20
BRANCH   1  21
ATOM     21  C   UNL     1       0.962   9.820  19.127  0.00  0.00    +0.000 C 
BRANCH  21  22
ATOM     22  C   UNL     1      -0.156  10.690  18.529  0.00  0.00    +0.000 C 
ATOM     23  O   UNL     1      -0.059  11.906  18.390  0.00  0.00    +0.000 OA
ATOM     24  N   UNL     1      -1.346   9.983  18.313  0.00  0.00    +0.000 N 
ATOM     25  H   UNL     1      -1.547   9.228  18.964  0.00  0.00    +0.000 HD
BRANCH  24  26
ATOM     26  C   UNL     1      -2.478  10.674  17.809  0.00  0.00    +0.000 A 
ATOM     27  C   UNL     1      -3.260  11.506  18.616  0.00  0.00    +0.000 A 
ATOM     28  F   UNL     1      -2.852  11.830  19.852  0.00  0.00    +0.000 F 
ATOM     29  C   UNL     1      -4.448  12.060  18.142  0.00  0.00    +0.000 A 
ATOM     30  C   UNL     1      -4.872  11.781  16.844  0.00  0.00    +0.000 A 
ATOM     31  C   UNL     1      -4.074  10.998  16.007  0.00  0.00    +0.000 A 
ATOM     32  C   UNL     1      -2.873  10.473  16.485  0.00  0.00    +0.000 A 
ATOM     33  F   UNL     1      -2.128   9.702  15.678  0.00  0.00    +0.000 F 
ENDBRANCH  24  26
ENDBRANCH  21  22
ENDBRANCH   1  21
TORSDOF 7
ENDMDL
MODEL 2
REMARK VINA RESULT:      -7.9      3.371      8.690
REMARK  Name = 
REMARK  8 active torsions:
REMARK  status: ('A' for Active; 'I' for Inactive)
REMARK    1  A    between atoms: C_1  and  C_2
REMARK    2  A    between atoms: C_2  and  N_3
REMARK    3  A    between atoms: N_3  and  C_4
REMARK    4  A    between atoms: C_4  and  C_5
REMARK    5  A    between atoms: N_7  and  C_8
REMARK    6  A    between atoms: C_16  and  C_18
REMARK    7  A    between atoms: C_21  and  N_22
REMARK    8  A    between atoms: C_28  and  N_29
REMARK                            x       y       z     vdW  Elec       q    Type
REMARK                         _______ _______ _______ _____ _____    ______ ____
ROOT
ATOM      1  N   UNL     1       3.278   4.652  20.116  0.00  0.00    +0.000 N 
ATOM      2  C   UNL     1       2.004   5.248  20.200  0.00  0.00    +0.000 C 
ATOM      3  O   UNL     1       1.001   4.603  20.512  0.00  0.00    +0.000 OA
ENDROOT
BRANCH   2   4
ATOM      4  C   UNL     1       1.783   6.706  19.978  0.00  0.00    +0.000 A 
ATOM      5  C   UNL     1       1.976   7.210  18.689  0.00  0.00    +0.000 A 
ATOM      6  C   UNL     1       1.740   8.562  18.400  0.00  0.00    +0.000 A 
ATOM      7  C   UNL     1       1.252   9.478  19.355  0.00  0.00    +0.000 A 
ATOM      8  C   UNL     1       1.105   8.939  20.648  0.00  0.00    +0.000 A 
ATOM      9  C   UNL     1       1.424   7.603  20.970  0.00  0.00    +0.000 A 
BRANCH   7  10
ATOM     10  N   UNL     1       0.934  10.754  18.938  0.00  0.00    +0.000 N 
ATOM     11  C   UNL     1       1.883  11.874  18.800  0.00  0.00    +0.000 C 
ATOM     12  C   UNL     1       1.254  13.150  19.390  0.00  0.00    +0.000 C 
ATOM     13  O   UNL     1      -0.021  13.447  18.797  0.00  0.00    +0.000 OA
ATOM     14  C   UNL     1      -0.931  12.349  18.987  0.00  0.00    +0.000 C 
ATOM     15  C   UNL     1      -0.388  11.064  18.347  0.00  0.00    +0.000 C 
ENDBRANCH   7  10
BRANCH   8  16
ATOM     16  N   UNL     1       0.589   9.705  21.769  0.00  0.00    +0.000 N 
ATOM     17  O   UNL     1       1.334   9.888  22.741  0.00  0.00    +0.000 OA
ATOM     18  O   UNL     1      -0.594  10.069  21.693  0.00  0.00    +0.000 OA
ENDBRANCH   8  16
ENDBRANCH   2   4
BRANCH   1  20
ATOM     19  C   UNL     1       3.109   2.294  19.244  0.00  0.00    +0.000 C 
ATOM     20  C   UNL     1       3.320   3.216  20.435  0.00  0.00    +0.000 C 
ENDBRANCH   1  20
BRANCH   1  21
ATOM     21  C   UNL     1       4.522   5.341  19.699  0.00  0.00    +0.000 C 
BRANCH  21  22
ATOM     22  C   UNL     1       5.400   4.864  18.529  0.00  0.00    +0.000 C 
ATOM     23  O   UNL     1       6.406   4.178  18.683  0.00  0.00    +0.000 OA
ATOM     24  N   UNL     1       5.029   5.423  17.301  0.00  0.00    +0.000 N 
ATOM     25  H   UNL     1       4.644   6.363  17.329  0.00  0.00    +0.000 HD
BRANCH  24  26
ATOM     26  C   UNL     1       5.785   5.107  16.142  0.00  0.00    +0.000 A 
ATOM     27  C   UNL     1       6.977   5.767  15.830  0.00  0.00    +0.000 A 
ATOM     28  F   UNL     1       7.547   6.593  16.721  0.00  0.00    +0.000 F 
ATOM     29  C   UNL     1       7.628   5.547  14.618  0.00  0.00    +0.000 A 
ATOM     30  C   UNL     1       7.085   4.655  13.693  0.00  0.00    +0.000 A 
ATOM     31  C   UNL     1       5.926   3.946  14.013  0.00  0.00    +0.000 A 
ATOM     32  C   UNL     1       5.299   4.156  15.242  0.00  0.00    +0.000 A 
ATOM     33  F   UNL     1       4.172   3.486  15.526  0.00  0.00    +0.000 F 
ENDBRANCH  24  26
ENDBRANCH  21  22
ENDBRANCH   1  21
TORSDOF 7
ENDMDL
MODEL 3
REMARK VINA RESULT:      -7.9      5.472     10.270
REMARK  Name = 
REMARK  8 active torsions:
REMARK  status: ('A' for Active; 'I' for Inactive)
REMARK    1  A    between atoms: C_1  and  C_2
REMARK    2  A    between atoms: C_2  and  N_3
REMARK    3  A    between atoms: N_3  and  C_4
REMARK    4  A    between atoms: C_4  and  C_5
REMARK    5  A    between atoms: N_7  and  C_8
REMARK    6  A    between atoms: C_16  and  C_18
REMARK    7  A    between atoms: C_21  and  N_22
REMARK    8  A    between atoms: C_28  and  N_29
REMARK                            x       y       z     vdW  Elec       q    Type
REMARK                         _______ _______ _______ _____ _____    ______ ____
ROOT
ATOM      1  N   UNL     1       0.101  11.310  21.579  0.00  0.00    +0.000 N 
ATOM      2  C   UNL     1      -0.815  11.322  22.649  0.00  0.00    +0.000 C 
ATOM      3  O   UNL     1      -0.823  10.440  23.510  0.00  0.00    +0.000 OA
ENDROOT
BRANCH   2   4
ATOM      4  C   UNL     1      -1.798  12.425  22.855  0.00  0.00    +0.000 A 
ATOM      5  C   UNL     1      -1.337  13.617  23.418  0.00  0.00    +0.000 A 
ATOM      6  C   UNL     1      -2.198  14.710  23.595  0.00  0.00    +0.000 A 
ATOM      7  C   UNL     1      -3.545  14.703  23.181  0.00  0.00    +0.000 A 
ATOM      8  C   UNL     1      -3.979  13.472  22.653  0.00  0.00    +0.000 A 
ATOM      9  C   UNL     1      -3.146  12.338  22.550  0.00  0.00    +0.000 A 
BRANCH   7  10
ATOM     10  N   UNL     1      -4.271  15.871  23.287  0.00  0.00    +0.000 N 
ATOM     11  C   UNL     1      -5.343  16.131  24.266  0.00  0.00    +0.000 C 
ATOM     12  C   UNL     1      -6.526  16.814  23.556  0.00  0.00    +0.000 C 
ATOM     13  O   UNL     1      -6.125  18.009  22.865  0.00  0.00    +0.000 OA
ATOM     14  C   UNL     1      -5.110  17.709  21.892  0.00  0.00    +0.000 C 
ATOM     15  C   UNL     1      -3.870  17.096  22.557  0.00  0.00    +0.000 C 
ENDBRANCH   7  10
BRANCH   8  16
ATOM     16  N   UNL     1      -5.322  13.261  22.141  0.00  0.00    +0.000 N 
ATOM     17  O   UNL     1      -5.671  13.903  21.141  0.00  0.00    +0.000 OA
ATOM     18  O   UNL     1      -6.047  12.492  22.788  0.00  0.00    +0.000 OA
ENDBRANCH   8  16
ENDBRANCH   2   4
BRANCH   1  20
ATOM     19  C   UNL     1       0.595   8.983  20.749  0.00  0.00    +0.000 C 
ATOM     20  C   UNL     1       1.043  10.180  21.572  0.00  0.00    +0.000 C 
ENDBRANCH   1  20
BRANCH   1  21
ATOM     21  C   UNL     1       0.144  12.300  20.476  0.00  0.00    +0.000 C 
BRANCH  21  22
ATOM     22  C   UNL     1      -0.629  12.128  19.157  0.00  0.00    +0.000 C 
ATOM     23  O   UNL     1      -0.503  12.890  18.202  0.00  0.00    +0.000 OA
ATOM     24  N   UNL     1      -1.601  11.123  19.217  0.00  0.00    +0.000 N 
ATOM     25  H   UNL     1      -2.047  10.978  20.119  0.00  0.00    +0.000 HD
BRANCH  24  26
ATOM     26  C   UNL     1      -2.424  10.889  18.084  0.00  0.00    +0.000 A 
ATOM     27  C   UNL     1      -1.996  10.109  17.005  0.00  0.00    +0.000 A 
ATOM     28  F   UNL     1      -0.863   9.396  17.091  0.00  0.00    +0.000 F 
ATOM     29  C   UNL     1      -2.757  10.009  15.842  0.00  0.00    +0.000 A 
ATOM     30  C   UNL     1      -3.965  10.698  15.744  0.00  0.00    +0.000 A 
ATOM     31  C   UNL     1      -4.432  11.435  16.833  0.00  0.00    +0.000 A 
ATOM     32  C   UNL     1      -3.673  11.505  18.003  0.00  0.00    +0.000 A 
ATOM     33  F   UNL     1      -4.124  12.237  19.033  0.00  0.00    +0.000 F 
ENDBRANCH  24  26
ENDBRANCH  21  22
ENDBRANCH   1  21
TORSDOF 7
ENDMDL
MODEL 4
REMARK VINA RESULT:      -7.9      1.889      2.583
REMARK  Name = 
REMARK  8 active torsions:
REMARK  status: ('A' for Active; 'I' for Inactive)
REMARK    1  A    between atoms: C_1  and  C_2
REMARK    2  A    between atoms: C_2  and  N_3
REMARK    3  A    between atoms: N_3  and  C_4
REMARK    4  A    between atoms: C_4  and  C_5
REMARK    5  A    between atoms: N_7  and  C_8
REMARK    6  A    between atoms: C_16  and  C_18
REMARK    7  A    between atoms: C_21  and  N_22
REMARK    8  A    between atoms: C_28  and  N_29
REMARK                            x       y       z     vdW  Elec       q    Type
REMARK                         _______ _______ _______ _____ _____    ______ ____
ROOT
ATOM      1  N   UNL     1       0.166  10.544  20.677  0.00  0.00    +0.000 N 
ATOM      2  C   UNL     1       1.075   9.584  21.164  0.00  0.00    +0.000 C 
ATOM      3  O   UNL     1       1.555   9.658  22.297  0.00  0.00    +0.000 OA
ENDROOT
BRANCH   2   4
ATOM      4  C   UNL     1       1.477   8.383  20.377  0.00  0.00    +0.000 A 
ATOM      5  C   UNL     1       2.043   8.585  19.116  0.00  0.00    +0.000 A 
ATOM      6  C   UNL     1       2.487   7.502  18.342  0.00  0.00    +0.000 A 
ATOM      7  C   UNL     1       2.441   6.167  18.793  0.00  0.00    +0.000 A 
ATOM      8  C   UNL     1       1.831   6.003  20.050  0.00  0.00    +0.000 A 
ATOM      9  C   UNL     1       1.301   7.076  20.799  0.00  0.00    +0.000 A 
BRANCH   7  10
ATOM     10  N   UNL     1       3.017   5.190  18.007  0.00  0.00    +0.000 N 
ATOM     11  C   UNL     1       2.360   3.945  17.564  0.00  0.00    +0.000 C 
ATOM     12  C   UNL     1       3.337   2.767  17.733  0.00  0.00    +0.000 C 
ATOM     13  O   UNL     1       4.580   2.994  17.049  0.00  0.00    +0.000 OA
ATOM     14  C   UNL     1       5.209   4.191  17.536  0.00  0.00    +0.000 C 
ATOM     15  C   UNL     1       4.309   5.416  17.321  0.00  0.00    +0.000 C 
ENDBRANCH   7  10
BRANCH   8  16
ATOM     16  N   UNL     1       1.709   4.714  20.708  0.00  0.00    +0.000 N 
ATOM     17  O   UNL     1       0.706   4.029  20.466  0.00  0.00    +0.000 OA
ATOM     18  O   UNL     1       2.599   4.420  21.519  0.00  0.00    +0.000 OA
ENDBRANCH   8  16
ENDBRANCH   2   4
BRANCH   1  20
ATOM     19  C   UNL     1      -1.264  11.282  22.615  0.00  0.00    +0.000 C 
ATOM     20  C   UNL     1      -0.169  11.625  21.617  0.00  0.00    +0.000 C 
ENDBRANCH   1  20
BRANCH   1  21
ATOM     21  C   UNL     1      -0.416  10.559  19.313  0.00  0.00    +0.000 C 
BRANCH  21  22
ATOM     22  C   UNL     1      -1.544  11.512  18.887  0.00  0.00    +0.000 C 
ATOM     23  O   UNL     1      -1.368  12.709  18.681  0.00  0.00    +0.000 OA
ATOM     24  N   UNL     1      -2.810  10.915  18.919  0.00  0.00    +0.000 N 
ATOM     25  H   UNL     1      -2.955  10.200  19.627  0.00  0.00    +0.000 HD
BRANCH  24  26
ATOM     26  C   UNL     1      -3.950  11.694  18.596  0.00  0.00    +0.000 A 
ATOM     27  C   UNL     1      -4.650  12.423  19.562  0.00  0.00    +0.000 A 
ATOM     28  F   UNL     1      -4.150  12.561  20.800  0.00  0.00    +0.000 F 
ATOM     29  C   UNL     1      -5.849  13.063  19.255  0.00  0.00    +0.000 A 
ATOM     30  C   UNL     1      -6.367  12.979  17.963  0.00  0.00    +0.000 A 
ATOM     31  C   UNL     1      -5.652  12.303  16.973  0.00  0.00    +0.000 A 
ATOM     32  C   UNL     1      -4.438  11.689  17.288  0.00  0.00    +0.000 A 
ATOM     33  F   UNL     1      -3.774  11.022  16.331  0.00  0.00    +0.000 F 
ENDBRANCH  24  26
ENDBRANCH  21  22
ENDBRANCH   1  21
TORSDOF 7
ENDMDL
MODEL 5
REMARK VINA RESULT:      -7.9      3.390      8.955
REMARK  Name = 
REMARK  8 active torsions:
REMARK  status: ('A' for Active; 'I' for Inactive)
REMARK    1  A    between atoms: C_1  and  C_2
REMARK    2  A    between atoms: C_2  and  N_3
REMARK    3  A    between atoms: N_3  and  C_4
REMARK    4  A    between atoms: C_4  and  C_5
REMARK    5  A    between atoms: N_7  and  C_8
REMARK    6  A    between atoms: C_16  and  C_18
REMARK    7  A    between atoms: C_21  and  N_22
REMARK    8  A    between atoms: C_28  and  N_29
REMARK                            x       y       z     vdW  Elec       q    Type
REMARK                         _______ _______ _______ _____ _____    ______ ____
ROOT
ATOM      1  N   UNL     1       4.113   5.177  18.456  0.00  0.00    +0.000 N 
ATOM      2  C   UNL     1       2.887   5.448  19.094  0.00  0.00    +0.000 C 
ATOM      3  O   UNL     1       2.211   4.557  19.612  0.00  0.00    +0.000 OA
ENDROOT
BRANCH   2   4
ATOM      4  C   UNL     1       2.346   6.830  19.245  0.00  0.00    +0.000 A 
ATOM      5  C   UNL     1       2.277   7.634  18.105  0.00  0.00    +0.000 A 
ATOM      6  C   UNL     1       1.735   8.927  18.166  0.00  0.00    +0.000 A 
ATOM      7  C   UNL     1       1.187   9.475  19.344  0.00  0.00    +0.000 A 
ATOM      8  C   UNL     1       1.310   8.648  20.476  0.00  0.00    +0.000 A 
ATOM      9  C   UNL     1       1.932   7.382  20.446  0.00  0.00    +0.000 A 
BRANCH   7  10
ATOM     10  N   UNL     1       0.567  10.705  19.268  0.00  0.00    +0.000 N 
ATOM     11  C   UNL     1      -0.886  10.928  19.138  0.00  0.00    +0.000 C 
ATOM     12  C   UNL     1      -1.139  12.021  18.083  0.00  0.00    +0.000 C 
ATOM     13  O   UNL     1      -0.431  13.236  18.383  0.00  0.00    +0.000 OA
ATOM     14  C   UNL     1       0.982  12.986  18.462  0.00  0.00    +0.000 C 
ATOM     15  C   UNL     1       1.302  11.958  19.556  0.00  0.00    +0.000 C 
ENDBRANCH   7  10
BRANCH   8  16
ATOM     16  N   UNL     1       0.786   9.012  21.781  0.00  0.00    +0.000 N 
ATOM     17  O   UNL     1      -0.408   8.776  22.015  0.00  0.00    +0.000 OA
ATOM     18  O   UNL     1       1.565   9.594  22.549  0.00  0.00    +0.000 OA
ENDBRANCH   8  16
ENDBRANCH   2   4
BRANCH   1  20
ATOM     19  C   UNL     1       3.760   2.876  17.494  0.00  0.00    +0.000 C 
ATOM     20  C   UNL     1       4.525   3.765  18.462  0.00  0.00    +0.000 C 
ENDBRANCH   1  20
BRANCH   1  21
ATOM     21  C   UNL     1       4.960   6.179  17.765  0.00  0.00    +0.000 C 
BRANCH  21  22
ATOM     22  C   UNL     1       5.291   6.114  16.265  0.00  0.00    +0.000 C 
ATOM     23  O   UNL     1       4.882   6.938  15.452  0.00  0.00    +0.000 OA
ATOM     24  N   UNL     1       5.961   4.940  15.900  0.00  0.00    +0.000 N 
ATOM     25  H   UNL     1       5.732   4.105  16.432  0.00  0.00    +0.000 HD
BRANCH  24  26
ATOM     26  C   UNL     1       6.286   4.725  14.536  0.00  0.00    +0.000 A 
ATOM     27  C   UNL     1       5.493   3.934  13.699  0.00  0.00    +0.000 A 
ATOM     28  F   UNL     1       4.291   3.505  14.112  0.00  0.00    +0.000 F 
ATOM     29  C   UNL     1       5.903   3.616  12.406  0.00  0.00    +0.000 A 
ATOM     30  C   UNL     1       7.126   4.089  11.932  0.00  0.00    +0.000 A 
ATOM     31  C   UNL     1       7.902   4.928  12.734  0.00  0.00    +0.000 A 
ATOM     32  C   UNL     1       7.467   5.260  14.018  0.00  0.00    +0.000 A 
ATOM     33  F   UNL     1       8.235   6.047  14.787  0.00  0.00    +0.000 F 
ENDBRANCH  24  26
ENDBRANCH  21  22
ENDBRANCH   1  21
TORSDOF 7
ENDMDL
MODEL 6
REMARK VINA RESULT:      -7.7      3.504      8.527
REMARK  Name = 
REMARK  8 active torsions:
REMARK  status: ('A' for Active; 'I' for Inactive)
REMARK    1  A    between atoms: C_1  and  C_2
REMARK    2  A    between atoms: C_2  and  N_3
REMARK    3  A    between atoms: N_3  and  C_4
REMARK    4  A    between atoms: C_4  and  C_5
REMARK    5  A    between atoms: N_7  and  C_8
REMARK    6  A    between atoms: C_16  and  C_18
REMARK    7  A    between atoms: C_21  and  N_22
REMARK    8  A    between atoms: C_28  and  N_29
REMARK                            x       y       z     vdW  Elec       q    Type
REMARK                         _______ _______ _______ _____ _____    ______ ____
ROOT
ATOM      1  N   UNL     1       3.040   4.195  20.134  0.00  0.00    +0.000 N 
ATOM      2  C   UNL     1       1.814   4.870  19.975  0.00  0.00    +0.000 C 
ATOM      3  O   UNL     1       0.732   4.283  20.050  0.00  0.00    +0.000 OA
ENDROOT
BRANCH   2   4
ATOM      4  C   UNL     1       1.728   6.344  19.765  0.00  0.00    +0.000 A 
ATOM      5  C   UNL     1       1.966   6.838  18.480  0.00  0.00    +0.000 A 
ATOM      6  C   UNL     1       1.855   8.208  18.202  0.00  0.00    +0.000 A 
ATOM      7  C   UNL     1       1.456   9.157  19.165  0.00  0.00    +0.000 A 
ATOM      8  C   UNL     1       1.262   8.625  20.454  0.00  0.00    +0.000 A 
ATOM      9  C   UNL     1       1.455   7.262  20.765  0.00  0.00    +0.000 A 
BRANCH   7  10
ATOM     10  N   UNL     1       1.257  10.461  18.759  0.00  0.00    +0.000 N 
ATOM     11  C   UNL     1       2.289  11.353  18.198  0.00  0.00    +0.000 C 
ATOM     12  C   UNL     1       2.159  12.747  18.839  0.00  0.00    +0.000 C 
ATOM     13  O   UNL     1       0.837  13.290  18.690  0.00  0.00    +0.000 OA
ATOM     14  C   UNL     1      -0.135  12.413  19.283  0.00  0.00    +0.000 C 
ATOM     15  C   UNL     1      -0.105  11.026  18.626  0.00  0.00    +0.000 C 
ENDBRANCH   7  10
BRANCH   8  16
ATOM     16  N   UNL     1       0.820   9.426  21.582  0.00  0.00    +0.000 N 
ATOM     17  O   UNL     1       1.680   9.853  22.364  0.00  0.00    +0.000 OA
ATOM     18  O   UNL     1      -0.404   9.571  21.713  0.00  0.00    +0.000 OA
ENDBRANCH   8  16
ENDBRANCH   2   4
BRANCH   1  20
ATOM     19  C   UNL     1       2.463   2.400  21.806  0.00  0.00    +0.000 C 
ATOM     20  C   UNL     1       2.932   2.752  20.403  0.00  0.00    +0.000 C 
ENDBRANCH   1  20
BRANCH   1  21
ATOM     21  C   UNL     1       4.382   4.813  20.007  0.00  0.00    +0.000 C 
BRANCH  21  22
ATOM     22  C   UNL     1       5.029   5.154  18.655  0.00  0.00    +0.000 C 
ATOM     23  O   UNL     1       5.136   6.302  18.234  0.00  0.00    +0.000 OA
ATOM     24  N   UNL     1       5.333   4.022  17.890  0.00  0.00    +0.000 N 
ATOM     25  H   UNL     1       4.713   3.224  17.998  0.00  0.00    +0.000 HD
BRANCH  24  26
ATOM     26  C   UNL     1       5.892   4.191  16.597  0.00  0.00    +0.000 A 
ATOM     27  C   UNL     1       7.231   4.548  16.407  0.00  0.00    +0.000 A 
ATOM     28  F   UNL     1       8.083   4.556  17.443  0.00  0.00    +0.000 F 
ATOM     29  C   UNL     1       7.723   4.851  15.139  0.00  0.00    +0.000 A 
ATOM     30  C   UNL     1       6.872   4.802  14.036  0.00  0.00    +0.000 A 
ATOM     31  C   UNL     1       5.548   4.392  14.201  0.00  0.00    +0.000 A 
ATOM     32  C   UNL     1       5.074   4.065  15.473  0.00  0.00    +0.000 A 
ATOM     33  F   UNL     1       3.792   3.697  15.619  0.00  0.00    +0.000 F 
ENDBRANCH  24  26
ENDBRANCH  21  22
ENDBRANCH   1  21
TORSDOF 7
ENDMDL
MODEL 7
REMARK VINA RESULT:      -7.6      1.718      2.484
REMARK  Name = 
REMARK  8 active torsions:
REMARK  status: ('A' for Active; 'I' for Inactive)
REMARK    1  A    between atoms: C_1  and  C_2
REMARK    2  A    between atoms: C_2  and  N_3
REMARK    3  A    between atoms: N_3  and  C_4
REMARK    4  A    between atoms: C_4  and  C_5
REMARK    5  A    between atoms: N_7  and  C_8
REMARK    6  A    between atoms: C_16  and  C_18
REMARK    7  A    between atoms: C_21  and  N_22
REMARK    8  A    between atoms: C_28  and  N_29
REMARK                            x       y       z     vdW  Elec       q    Type
REMARK                         _______ _______ _______ _____ _____    ______ ____
ROOT
ATOM      1  N   UNL     1       0.075  10.691  21.674  0.00  0.00    +0.000 N 
ATOM      2  C   UNL     1       0.267   9.331  21.991  0.00  0.00    +0.000 C 
ATOM      3  O   UNL     1      -0.136   8.845  23.049  0.00  0.00    +0.000 OA
ENDROOT
BRANCH   2   4
ATOM      4  C   UNL     1       0.915   8.371  21.052  0.00  0.00    +0.000 A 
ATOM      5  C   UNL     1       1.550   8.887  19.920  0.00  0.00    +0.000 A 
ATOM      6  C   UNL     1       2.220   8.044  19.021  0.00  0.00    +0.000 A 
ATOM      7  C   UNL     1       2.341   6.653  19.217  0.00  0.00    +0.000 A 
ATOM      8  C   UNL     1       1.657   6.169  20.348  0.00  0.00    +0.000 A 
ATOM      9  C   UNL     1       0.907   6.995  21.211  0.00  0.00    +0.000 A 
BRANCH   7  10
ATOM     10  N   UNL     1       3.126   5.933  18.340  0.00  0.00    +0.000 N 
ATOM     11  C   UNL     1       2.739   4.673  17.676  0.00  0.00    +0.000 C 
ATOM     12  C   UNL     1       3.917   3.683  17.740  0.00  0.00    +0.000 C 
ATOM     13  O   UNL     1       5.121   4.238  17.185  0.00  0.00    +0.000 OA
ATOM     14  C   UNL     1       5.487   5.440  17.883  0.00  0.00    +0.000 C 
ATOM     15  C   UNL     1       4.378   6.497  17.785  0.00  0.00    +0.000 C 
ENDBRANCH   7  10
BRANCH   8  16
ATOM     16  N   UNL     1       1.679   4.772  20.746  0.00  0.00    +0.000 N 
ATOM     17  O   UNL     1       0.730   4.054  20.401  0.00  0.00    +0.000 OA
ATOM     18  O   UNL     1       2.625   4.414  21.462  0.00  0.00    +0.000 OA
ENDBRANCH   8  16
ENDBRANCH   2   4
BRANCH   1  20
ATOM     19  C   UNL     1      -0.989  12.895  22.270  0.00  0.00    +0.000 C 
ATOM     20  C   UNL     1      -0.645  11.475  22.690  0.00  0.00    +0.000 C 
ENDBRANCH   1  20
BRANCH   1  21
ATOM     21  C   UNL     1       0.573  11.365  20.452  0.00  0.00    +0.000 C 
BRANCH  21  22
ATOM     22  C   UNL     1      -0.285  11.569  19.192  0.00  0.00    +0.000 C 
ATOM     23  O   UNL     1      -0.124  12.508  18.417  0.00  0.00    +0.000 OA
ATOM     24  N   UNL     1      -1.360  10.677  19.108  0.00  0.00    +0.000 N 
ATOM     25  H   UNL     1      -1.770  10.380  19.989  0.00  0.00    +0.000 HD
BRANCH  24  26
ATOM     26  C   UNL     1      -2.263  10.784  18.019  0.00  0.00    +0.000 A 
ATOM     27  C   UNL     1      -3.423  11.562  18.090  0.00  0.00    +0.000 A 
ATOM     28  F   UNL     1      -3.622  12.389  19.128  0.00  0.00    +0.000 F 
ATOM     29  C   UNL     1      -4.370  11.539  17.067  0.00  0.00    +0.000 A 
ATOM     30  C   UNL     1      -4.165  10.727  15.953  0.00  0.00    +0.000 A 
ATOM     31  C   UNL     1      -2.986   9.989  15.841  0.00  0.00    +0.000 A 
ATOM     32  C   UNL     1      -2.033  10.041  16.860  0.00  0.00    +0.000 A 
ATOM     33  F   UNL     1      -0.916   9.307  16.750  0.00  0.00    +0.000 F 
ENDBRANCH  24  26
ENDBRANCH  21  22
ENDBRANCH   1  21
TORSDOF 7
ENDMDL
MODEL 8
REMARK VINA RESULT:      -7.6      1.949      2.939
REMARK  Name = 
REMARK  8 active torsions:
REMARK  status: ('A' for Active; 'I' for Inactive)
REMARK    1  A    between atoms: C_1  and  C_2
REMARK    2  A    between atoms: C_2  and  N_3
REMARK    3  A    between atoms: N_3  and  C_4
REMARK    4  A    between atoms: C_4  and  C_5
REMARK    5  A    between atoms: N_7  and  C_8
REMARK    6  A    between atoms: C_16  and  C_18
REMARK    7  A    between atoms: C_21  and  N_22
REMARK    8  A    between atoms: C_28  and  N_29
REMARK                            x       y       z     vdW  Elec       q    Type
REMARK                         _______ _______ _______ _____ _____    ______ ____
ROOT
ATOM      1  N   UNL     1       0.178  10.690  20.703  0.00  0.00    +0.000 N 
ATOM      2  C   UNL     1       1.019   9.680  21.210  0.00  0.00    +0.000 C 
ATOM      3  O   UNL     1       1.425   9.693  22.374  0.00  0.00    +0.000 OA
ENDROOT
BRANCH   2   4
ATOM      4  C   UNL     1       1.433   8.497  20.402  0.00  0.00    +0.000 A 
ATOM      5  C   UNL     1       1.966   8.725  19.131  0.00  0.00    +0.000 A 
ATOM      6  C   UNL     1       2.418   7.661  18.337  0.00  0.00    +0.000 A 
ATOM      7  C   UNL     1       2.415   6.320  18.775  0.00  0.00    +0.000 A 
ATOM      8  C   UNL     1       1.837   6.130  20.044  0.00  0.00    +0.000 A 
ATOM      9  C   UNL     1       1.298   7.182  20.815  0.00  0.00    +0.000 A 
BRANCH   7  10
ATOM     10  N   UNL     1       2.997   5.365  17.967  0.00  0.00    +0.000 N 
ATOM     11  C   UNL     1       2.356   4.115  17.516  0.00  0.00    +0.000 C 
ATOM     12  C   UNL     1       3.357   2.953  17.654  0.00  0.00    +0.000 C 
ATOM     13  O   UNL     1       4.586   3.212  16.956  0.00  0.00    +0.000 OA
ATOM     14  C   UNL     1       5.200   4.414  17.450  0.00  0.00    +0.000 C 
ATOM     15  C   UNL     1       4.275   5.625  17.265  0.00  0.00    +0.000 C 
ENDBRANCH   7  10
BRANCH   8  16
ATOM     16  N   UNL     1       1.762   4.832  20.691  0.00  0.00    +0.000 N 
ATOM     17  O   UNL     1       2.762   4.425  21.299  0.00  0.00    +0.000 OA
ATOM     18  O   UNL     1       0.712   4.193  20.532  0.00  0.00    +0.000 OA
ENDBRANCH   8  16
ENDBRANCH   2   4
BRANCH   1  20
ATOM     19  C   UNL     1      -1.324  11.387  22.602  0.00  0.00    +0.000 C 
ATOM     20  C   UNL     1      -0.184  11.746  21.663  0.00  0.00    +0.000 C 
ENDBRANCH   1  20
BRANCH   1  21
ATOM     21  C   UNL     1      -0.310  10.779  19.306  0.00  0.00    +0.000 C 
BRANCH  21  22
ATOM     22  C   UNL     1      -1.792  10.643  18.920  0.00  0.00    +0.000 C 
ATOM     23  O   UNL     1      -2.273   9.613  18.456  0.00  0.00    +0.000 OA
ATOM     24  N   UNL     1      -2.494  11.853  18.996  0.00  0.00    +0.000 N 
ATOM     25  H   UNL     1      -1.964  12.696  18.791  0.00  0.00    +0.000 HD
BRANCH  24  26
ATOM     26  C   UNL     1      -3.862  11.884  18.621  0.00  0.00    +0.000 A 
ATOM     27  C   UNL     1      -4.268  11.774  17.287  0.00  0.00    +0.000 A 
ATOM     28  F   UNL     1      -3.383  11.443  16.334  0.00  0.00    +0.000 F 
ATOM     29  C   UNL     1      -5.601  11.952  16.923  0.00  0.00    +0.000 A 
ATOM     30  C   UNL     1      -6.552  12.247  17.900  0.00  0.00    +0.000 A 
ATOM     31  C   UNL     1      -6.172  12.303  19.242  0.00  0.00    +0.000 A 
ATOM     32  C   UNL     1      -4.837  12.096  19.596  0.00  0.00    +0.000 A 
ATOM     33  F   UNL     1      -4.482  12.178  20.887  0.00  0.00    +0.000 F 
ENDBRANCH  24  26
ENDBRANCH  21  22
ENDBRANCH   1  21
TORSDOF 7
ENDMDL
MODEL 9
REMARK VINA RESULT:      -7.6      5.505     10.206
REMARK  Name = 
REMARK  8 active torsions:
REMARK  status: ('A' for Active; 'I' for Inactive)
REMARK    1  A    between atoms: C_1  and  C_2
REMARK    2  A    between atoms: C_2  and  N_3
REMARK    3  A    between atoms: N_3  and  C_4
REMARK    4  A    between atoms: C_4  and  C_5
REMARK    5  A    between atoms: N_7  and  C_8
REMARK    6  A    between atoms: C_16  and  C_18
REMARK    7  A    between atoms: C_21  and  N_22
REMARK    8  A    between atoms: C_28  and  N_29
REMARK                            x       y       z     vdW  Elec       q    Type
REMARK                         _______ _______ _______ _____ _____    ______ ____
ROOT
ATOM      1  N   UNL     1       0.096  11.305  21.672  0.00  0.00    +0.000 N 
ATOM      2  C   UNL     1      -0.858  11.304  22.709  0.00  0.00    +0.000 C 
ATOM      3  O   UNL     1      -0.903  10.406  23.553  0.00  0.00    +0.000 OA
ENDROOT
BRANCH   2   4
ATOM      4  C   UNL     1      -1.841  12.409  22.899  0.00  0.00    +0.000 A 
ATOM      5  C   UNL     1      -1.386  13.600  23.470  0.00  0.00    +0.000 A 
ATOM      6  C   UNL     1      -2.246  14.696  23.633  0.00  0.00    +0.000 A 
ATOM      7  C   UNL     1      -3.587  14.692  23.197  0.00  0.00    +0.000 A 
ATOM      8  C   UNL     1      -4.016  13.463  22.662  0.00  0.00    +0.000 A 
ATOM      9  C   UNL     1      -3.185  12.326  22.573  0.00  0.00    +0.000 A 
BRANCH   7  10
ATOM     10  N   UNL     1      -4.311  15.863  23.292  0.00  0.00    +0.000 N 
ATOM     11  C   UNL     1      -5.402  16.123  24.251  0.00  0.00    +0.000 C 
ATOM     12  C   UNL     1      -6.568  16.812  23.518  0.00  0.00    +0.000 C 
ATOM     13  O   UNL     1      -6.149  18.007  22.839  0.00  0.00    +0.000 OA
ATOM     14  C   UNL     1      -5.116  17.707  21.886  0.00  0.00    +0.000 C 
ATOM     15  C   UNL     1      -3.891  17.088  22.574  0.00  0.00    +0.000 C 
ENDBRANCH   7  10
BRANCH   8  16
ATOM     16  N   UNL     1      -5.351  13.256  22.129  0.00  0.00    +0.000 N 
ATOM     17  O   UNL     1      -6.065  12.397  22.664  0.00  0.00    +0.000 OA
ATOM     18  O   UNL     1      -5.656  13.918  21.127  0.00  0.00    +0.000 OA
ENDBRANCH   8  16
ENDBRANCH   2   4
BRANCH   1  20
ATOM     19  C   UNL     1       0.596   8.982  20.833  0.00  0.00    +0.000 C 
ATOM     20  C   UNL     1       1.031  10.169  21.679  0.00  0.00    +0.000 C 
ENDBRANCH   1  20
BRANCH   1  21
ATOM     21  C   UNL     1       0.185  12.314  20.590  0.00  0.00    +0.000 C 
BRANCH  21  22
ATOM     22  C   UNL     1      -0.566  12.187  19.254  0.00  0.00    +0.000 C 
ATOM     23  O   UNL     1      -0.412  12.970  18.321  0.00  0.00    +0.000 OA
ATOM     24  N   UNL     1      -1.553  11.194  19.270  0.00  0.00    +0.000 N 
ATOM     25  H   UNL     1      -2.017  11.032  20.160  0.00  0.00    +0.000 HD
BRANCH  24  26
ATOM     26  C   UNL     1      -2.357  11.000  18.117  0.00  0.00    +0.000 A 
ATOM     27  C   UNL     1      -3.626  11.573  17.992  0.00  0.00    +0.000 A 
ATOM     28  F   UNL     1      -4.048  12.486  18.880  0.00  0.00    +0.000 F 
ATOM     29  C   UNL     1      -4.459  11.255  16.921  0.00  0.00    +0.000 A 
ATOM     30  C   UNL     1      -4.027  10.348  15.954  0.00  0.00    +0.000 A 
ATOM     31  C   UNL     1      -2.741   9.811  16.034  0.00  0.00    +0.000 A 
ATOM     32  C   UNL     1      -1.907  10.159  17.098  0.00  0.00    +0.000 A 
ATOM     33  F   UNL     1      -0.682   9.615  17.175  0.00  0.00    +0.000 F 
ENDBRANCH  24  26
ENDBRANCH  21  22
ENDBRANCH   1  21
TORSDOF 7
ENDMDL
