MODEL 1
REMARK VINA RESULT:      -8.7      0.000      0.000
REMARK  Name = 
REMARK  4 active torsions:
REMARK  status: ('A' for Active; 'I' for Inactive)
REMARK    1  A    between atoms: C_2  and  C_3
REMARK    2  A    between atoms: C_3  and  C_4
REMARK    3  A    between atoms: C_6  and  N_7
REMARK    4  A    between atoms: C_21  and  N_22
REMARK                            x       y       z     vdW  Elec       q    Type
REMARK                         _______ _______ _______ _____ _____    ______ ____
ROOT
ATOM      1  O   UNL     1       1.951   7.631  20.512  0.00  0.00    +0.000 OA
ATOM      2  C   UNL     1       1.613   8.356  19.580  0.00  0.00    +0.000 C 
ATOM      3  N   UNL     1       0.780   9.454  19.717  0.00  0.00    +0.000 N 
ATOM      4  C   UNL     1       0.363  10.364  18.648  0.00  0.00    +0.000 C 
ATOM      5  C   UNL     1      -0.361  11.535  19.310  0.00  0.00    +0.000 C 
ATOM      6  C   UNL     1      -0.593  11.034  20.710  0.00  0.00    +0.000 A 
ATOM      7  C   UNL     1      -1.285  11.658  21.756  0.00  0.00    +0.000 A 
ATOM      8  C   UNL     1      -1.211  11.014  23.007  0.00  0.00    +0.000 A 
ATOM      9  C   UNL     1      -0.488   9.827  23.204  0.00  0.00    +0.000 A 
ATOM     10  C   UNL     1       0.195   9.240  22.148  0.00  0.00    +0.000 A 
ATOM     11  C   UNL     1       0.140   9.852  20.909  0.00  0.00    +0.000 A 
ENDROOT
BRANCH   7  12
ATOM     12  N   UNL     1      -1.978  12.843  21.604  0.00  0.00    +0.000 N 
ATOM     13  C   UNL     1      -1.532  14.111  22.207  0.00  0.00    +0.000 C 
ATOM     14  C   UNL     1      -2.598  14.661  23.166  0.00  0.00    +0.000 C 
ATOM     15  O   UNL     1      -3.875  14.783  22.519  0.00  0.00    +0.000 OA
ATOM     16  C   UNL     1      -4.317  13.495  22.067  0.00  0.00    +0.000 C 
ATOM     17  C   UNL     1      -3.340  12.874  21.058  0.00  0.00    +0.000 C 
ENDBRANCH   7  12
BRANCH   2  18
ATOM     18  C   UNL     1       2.161   8.114  18.192  0.00  0.00    +0.000 C 
BRANCH  18  19
ATOM     19  C   UNL     1       2.534   6.673  17.965  0.00  0.00    +0.000 A 
ATOM     20  N   UNL     1       3.762   6.329  17.738  0.00  0.00    +0.000 NA
ATOM     21  C   UNL     1       4.049   4.992  17.548  0.00  0.00    +0.000 A 
ATOM     22  C   UNL     1       3.074   4.066  17.562  0.00  0.00    +0.000 A 
ATOM     23  C   UNL     1       1.691   4.459  17.806  0.00  0.00    +0.000 A 
ATOM     24  O   UNL     1       0.775   3.646  17.788  0.00  0.00    +0.000 OA
ATOM     25  N   UNL     1       1.505   5.777  18.055  0.00  0.00    +0.000 N 
ATOM     26  H   UNL     1       0.544   6.083  18.108  0.00  0.00    +0.000 HD
BRANCH  21  27
ATOM     27  N   UNL     1       5.353   4.580  17.287  0.00  0.00    +0.000 N 
ATOM     28  C   UNL     1       6.337   4.334  18.357  0.00  0.00    +0.000 C 
ATOM     29  C   UNL     1       7.708   4.867  17.897  0.00  0.00    +0.000 C 
ATOM     30  O   UNL     1       8.123   4.290  16.645  0.00  0.00    +0.000 OA
ATOM     31  C   UNL     1       7.147   4.555  15.622  0.00  0.00    +0.000 C 
ATOM     32  C   UNL     1       5.777   3.986  16.008  0.00  0.00    +0.000 C 
ENDBRANCH  21  27
ENDBRANCH  18  19
ENDBRANCH   2  18
TORSDOF 4
ENDMDL
MODEL 2
REMARK VINA RESULT:      -8.6      2.236     10.039
REMARK  Name = 
REMARK  4 active torsions:
REMARK  status: ('A' for Active; 'I' for Inactive)
REMARK    1  A    between atoms: C_2  and  C_3
REMARK    2  A    between atoms: C_3  and  C_4
REMARK    3  A    between atoms: C_6  and  N_7
REMARK    4  A    between atoms: C_21  and  N_22
REMARK                            x       y       z     vdW  Elec       q    Type
REMARK                         _______ _______ _______ _____ _____    ______ ____
ROOT
ATOM      1  O   UNL     1       0.348   8.676  20.611  0.00  0.00    +0.000 OA
ATOM      2  C   UNL     1       1.077   9.008  19.679  0.00  0.00    +0.000 C 
ATOM      3  N   UNL     1       2.032   8.179  19.112  0.00  0.00    +0.000 N 
ATOM      4  C   UNL     1       2.912   8.513  17.990  0.00  0.00    +0.000 C 
ATOM      5  C   UNL     1       3.624   7.226  17.580  0.00  0.00    +0.000 C 
ATOM      6  C   UNL     1       3.337   6.303  18.733  0.00  0.00    +0.000 A 
ATOM      7  C   UNL     1       3.802   4.998  18.943  0.00  0.00    +0.000 A 
ATOM      8  C   UNL     1       3.242   4.321  20.044  0.00  0.00    +0.000 A 
ATOM      9  C   UNL     1       2.276   4.905  20.879  0.00  0.00    +0.000 A 
ATOM     10  C   UNL     1       1.829   6.196  20.637  0.00  0.00    +0.000 A 
ATOM     11  C   UNL     1       2.361   6.884  19.561  0.00  0.00    +0.000 A 
ENDROOT
BRANCH   7  12
ATOM     12  N   UNL     1       4.726   4.383  18.122  0.00  0.00    +0.000 N 
ATOM     13  C   UNL     1       6.180   4.561  18.284  0.00  0.00    +0.000 C 
ATOM     14  C   UNL     1       6.797   5.163  17.013  0.00  0.00    +0.000 C 
ATOM     15  O   UNL     1       6.468   4.387  15.850  0.00  0.00    +0.000 OA
ATOM     16  C   UNL     1       5.045   4.358  15.671  0.00  0.00    +0.000 C 
ATOM     17  C   UNL     1       4.329   3.724  16.872  0.00  0.00    +0.000 C 
ENDBRANCH   7  12
BRANCH   2  18
ATOM     18  C   UNL     1       0.921  10.368  19.040  0.00  0.00    +0.000 C 
BRANCH  18  19
ATOM     19  C   UNL     1      -0.501  10.654  18.636  0.00  0.00    +0.000 A 
ATOM     20  N   UNL     1      -1.278  11.368  19.387  0.00  0.00    +0.000 NA
ATOM     21  C   UNL     1      -2.569  11.609  18.962  0.00  0.00    +0.000 A 
ATOM     22  C   UNL     1      -3.027  11.087  17.811  0.00  0.00    +0.000 A 
ATOM     23  C   UNL     1      -2.153  10.274  16.974  0.00  0.00    +0.000 A 
ATOM     24  O   UNL     1      -2.550   9.753  15.938  0.00  0.00    +0.000 OA
ATOM     25  N   UNL     1      -0.882  10.146  17.425  0.00  0.00    +0.000 N 
ATOM     26  H   UNL     1      -0.301   9.493  16.922  0.00  0.00    +0.000 HD
BRANCH  21  27
ATOM     27  N   UNL     1      -3.441  12.360  19.745  0.00  0.00    +0.000 N 
ATOM     28  C   UNL     1      -2.976  13.420  20.658  0.00  0.00    +0.000 C 
ATOM     29  C   UNL     1      -3.806  13.351  21.956  0.00  0.00    +0.000 C 
ATOM     30  O   UNL     1      -5.220  13.445  21.701  0.00  0.00    +0.000 OA
ATOM     31  C   UNL     1      -5.642  12.394  20.815  0.00  0.00    +0.000 C 
ATOM     32  C   UNL     1      -4.887  12.460  19.483  0.00  0.00    +0.000 C 
ENDBRANCH  21  27
ENDBRANCH  18  19
ENDBRANCH   2  18
TORSDOF 4
ENDMDL
MODEL 3
REMARK VINA RESULT:      -8.5      0.782      1.168
REMARK  Name = 
REMARK  4 active torsions:
REMARK  status: ('A' for Active; 'I' for Inactive)
REMARK    1  A    between atoms: C_2  and  C_3
REMARK    2  A    between atoms: C_3  and  C_4
REMARK    3  A    between atoms: C_6  and  N_7
REMARK    4  A    between atoms: C_21  and  N_22
REMARK                            x       y       z     vdW  Elec       q    Type
REMARK                         _______ _______ _______ _____ _____    ______ ____
ROOT
ATOM      1  O   UNL     1       1.759   8.204  20.626  0.00  0.00    +0.000 OA
ATOM      2  C   UNL     1       1.390   8.899  19.682  0.00  0.00    +0.000 C 
ATOM      3  N   UNL     1       0.496   9.950  19.799  0.00  0.00    +0.000 N 
ATOM      4  C   UNL     1       0.038  10.823  18.715  0.00  0.00    +0.000 C 
ATOM      5  C   UNL     1      -0.755  11.959  19.357  0.00  0.00    +0.000 C 
ATOM      6  C   UNL     1      -0.972  11.462  20.761  0.00  0.00    +0.000 A 
ATOM      7  C   UNL     1      -1.707  12.059  21.794  0.00  0.00    +0.000 A 
ATOM      8  C   UNL     1      -1.608  11.435  23.053  0.00  0.00    +0.000 A 
ATOM      9  C   UNL     1      -0.822  10.292  23.270  0.00  0.00    +0.000 A 
ATOM     10  C   UNL     1      -0.098   9.732  22.228  0.00  0.00    +0.000 A 
ATOM     11  C   UNL     1      -0.176  10.325  20.980  0.00  0.00    +0.000 A 
ENDROOT
BRANCH   7  12
ATOM     12  N   UNL     1      -2.463  13.201  21.622  0.00  0.00    +0.000 N 
ATOM     13  C   UNL     1      -1.912  14.557  21.794  0.00  0.00    +0.000 C 
ATOM     14  C   UNL     1      -2.666  15.313  22.898  0.00  0.00    +0.000 C 
ATOM     15  O   UNL     1      -4.081  15.326  22.654  0.00  0.00    +0.000 OA
ATOM     16  C   UNL     1      -4.583  13.983  22.625  0.00  0.00    +0.000 C 
ATOM     17  C   UNL     1      -3.926  13.149  21.516  0.00  0.00    +0.000 C 
ENDBRANCH   7  12
BRANCH   2  18
ATOM     18  C   UNL     1       1.962   8.671  18.302  0.00  0.00    +0.000 C 
BRANCH  18  19
ATOM     19  C   UNL     1       2.526   7.285  18.134  0.00  0.00    +0.000 A 
ATOM     20  N   UNL     1       3.708   7.100  17.637  0.00  0.00    +0.000 NA
ATOM     21  C   UNL     1       4.179   5.808  17.517  0.00  0.00    +0.000 A 
ATOM     22  C   UNL     1       3.419   4.758  17.875  0.00  0.00    +0.000 A 
ATOM     23  C   UNL     1       2.085   4.970  18.423  0.00  0.00    +0.000 A 
ATOM     24  O   UNL     1       1.353   4.035  18.724  0.00  0.00    +0.000 OA
ATOM     25  N   UNL     1       1.727   6.267  18.576  0.00  0.00    +0.000 N 
ATOM     26  H   UNL     1       0.767   6.430  18.842  0.00  0.00    +0.000 HD
BRANCH  21  27
ATOM     27  N   UNL     1       5.438   5.563  16.974  0.00  0.00    +0.000 N 
ATOM     28  C   UNL     1       5.690   5.567  15.522  0.00  0.00    +0.000 C 
ATOM     29  C   UNL     1       6.665   4.420  15.189  0.00  0.00    +0.000 C 
ATOM     30  O   UNL     1       7.888   4.511  15.946  0.00  0.00    +0.000 OA
ATOM     31  C   UNL     1       7.607   4.496  17.357  0.00  0.00    +0.000 C 
ATOM     32  C   UNL     1       6.688   5.659  17.747  0.00  0.00    +0.000 C 
ENDBRANCH  21  27
ENDBRANCH  18  19
ENDBRANCH   2  18
TORSDOF 4
ENDMDL
MODEL 4
REMARK VINA RESULT:      -8.5      1.143      2.238
REMARK  Name = 
REMARK  4 active torsions:
REMARK  status: ('A' for Active; 'I' for Inactive)
REMARK    1  A    between atoms: C_2  and  C_3
REMARK    2  A    between atoms: C_3  and  C_4
REMARK    3  A    between atoms: C_6  and  N_7
REMARK    4  A    between atoms: C_21  and  N_22
REMARK                            x       y       z     vdW  Elec       q    Type
REMARK                         _______ _______ _______ _____ _____    ______ ____
ROOT
ATOM      1  O   UNL     1       1.441   8.610  18.717  0.00  0.00    +0.000 OA
ATOM      2  C   UNL     1       1.474   8.403  19.928  0.00  0.00    +0.000 C 
ATOM      3  N   UNL     1       0.845   9.205  20.866  0.00  0.00    +0.000 N 
ATOM      4  C   UNL     1       0.834   8.995  22.316  0.00  0.00    +0.000 C 
ATOM      5  C   UNL     1      -0.160   9.993  22.906  0.00  0.00    +0.000 C 
ATOM      6  C   UNL     1      -0.404  10.938  21.761  0.00  0.00    +0.000 A 
ATOM      7  C   UNL     1      -1.179  12.105  21.743  0.00  0.00    +0.000 A 
ATOM      8  C   UNL     1      -1.345  12.708  20.481  0.00  0.00    +0.000 A 
ATOM      9  C   UNL     1      -0.779  12.179  19.310  0.00  0.00    +0.000 A 
ATOM     10  C   UNL     1      -0.024  11.016  19.362  0.00  0.00    +0.000 A 
ATOM     11  C   UNL     1       0.153  10.401  20.588  0.00  0.00    +0.000 A 
ENDROOT
BRANCH   7  12
ATOM     12  N   UNL     1      -1.777  12.633  22.870  0.00  0.00    +0.000 N 
ATOM     13  C   UNL     1      -3.082  12.170  23.373  0.00  0.00    +0.000 C 
ATOM     14  C   UNL     1      -4.095  13.323  23.398  0.00  0.00    +0.000 C 
ATOM     15  O   UNL     1      -3.594  14.448  24.138  0.00  0.00    +0.000 OA
ATOM     16  C   UNL     1      -2.392  14.936  23.526  0.00  0.00    +0.000 C 
ATOM     17  C   UNL     1      -1.289  13.869  23.494  0.00  0.00    +0.000 C 
ENDBRANCH   7  12
BRANCH   2  18
ATOM     18  C   UNL     1       2.178   7.181  20.470  0.00  0.00    +0.000 C 
BRANCH  18  19
ATOM     19  C   UNL     1       2.562   6.209  19.386  0.00  0.00    +0.000 A 
ATOM     20  N   UNL     1       3.729   6.258  18.827  0.00  0.00    +0.000 NA
ATOM     21  C   UNL     1       4.032   5.334  17.847  0.00  0.00    +0.000 A 
ATOM     22  C   UNL     1       3.125   4.424  17.450  0.00  0.00    +0.000 A 
ATOM     23  C   UNL     1       1.808   4.380  18.073  0.00  0.00    +0.000 A 
ATOM     24  O   UNL     1       0.946   3.588  17.710  0.00  0.00    +0.000 OA
ATOM     25  N   UNL     1       1.617   5.271  19.076  0.00  0.00    +0.000 N 
ATOM     26  H   UNL     1       0.675   5.333  19.435  0.00  0.00    +0.000 HD
BRANCH  21  27
ATOM     27  N   UNL     1       5.270   5.360  17.211  0.00  0.00    +0.000 N 
ATOM     28  C   UNL     1       5.418   5.651  15.773  0.00  0.00    +0.000 C 
ATOM     29  C   UNL     1       6.502   4.722  15.192  0.00  0.00    +0.000 C 
ATOM     30  O   UNL     1       7.754   4.842  15.895  0.00  0.00    +0.000 OA
ATOM     31  C   UNL     1       7.576   4.544  17.291  0.00  0.00    +0.000 C 
ATOM     32  C   UNL     1       6.549   5.487  17.929  0.00  0.00    +0.000 C 
ENDBRANCH  21  27
ENDBRANCH  18  19
ENDBRANCH   2  18
TORSDOF 4
ENDMDL
MODEL 5
REMARK VINA RESULT:      -8.4      2.921      9.935
REMARK  Name = 
REMARK  4 active torsions:
REMARK  status: ('A' for Active; 'I' for Inactive)
REMARK    1  A    between atoms: C_2  and  C_3
REMARK    2  A    between atoms: C_3  and  C_4
REMARK    3  A    between atoms: C_6  and  N_7
REMARK    4  A    between atoms: C_21  and  N_22
REMARK                            x       y       z     vdW  Elec       q    Type
REMARK                         _______ _______ _______ _____ _____    ______ ____
ROOT
ATOM      1  O   UNL     1      -0.443   9.289  20.481  0.00  0.00    +0.000 OA
ATOM      2  C   UNL     1       0.258   9.723  19.571  0.00  0.00    +0.000 C 
ATOM      3  N   UNL     1       1.336   9.038  19.033  0.00  0.00    +0.000 N 
ATOM      4  C   UNL     1       2.192   9.496  17.936  0.00  0.00    +0.000 C 
ATOM      5  C   UNL     1       3.091   8.323  17.548  0.00  0.00    +0.000 C 
ATOM      6  C   UNL     1       2.903   7.366  18.694  0.00  0.00    +0.000 A 
ATOM      7  C   UNL     1       3.542   6.140  18.920  0.00  0.00    +0.000 A 
ATOM      8  C   UNL     1       3.052   5.388  20.006  0.00  0.00    +0.000 A 
ATOM      9  C   UNL     1       1.990   5.827  20.812  0.00  0.00    +0.000 A 
ATOM     10  C   UNL     1       1.372   7.043  20.554  0.00  0.00    +0.000 A 
ATOM     11  C   UNL     1       1.832   7.802  19.493  0.00  0.00    +0.000 A 
ENDROOT
BRANCH   7  12
ATOM     12  N   UNL     1       4.567   5.663  18.127  0.00  0.00    +0.000 N 
ATOM     13  C   UNL     1       5.989   5.831  18.475  0.00  0.00    +0.000 C 
ATOM     14  C   UNL     1       6.725   6.621  17.383  0.00  0.00    +0.000 C 
ATOM     15  O   UNL     1       6.546   6.023  16.089  0.00  0.00    +0.000 OA
ATOM     16  C   UNL     1       5.153   6.004  15.750  0.00  0.00    +0.000 C 
ATOM     17  C   UNL     1       4.327   5.192  16.758  0.00  0.00    +0.000 C 
ENDBRANCH   7  12
BRANCH   2  18
ATOM     18  C   UNL     1      -0.070  11.049  18.924  0.00  0.00    +0.000 C 
BRANCH  18  19
ATOM     19  C   UNL     1      -1.421  11.046  18.260  0.00  0.00    +0.000 A 
ATOM     20  N   UNL     1      -2.491  11.357  18.922  0.00  0.00    +0.000 NA
ATOM     21  C   UNL     1      -3.702  11.350  18.260  0.00  0.00    +0.000 A 
ATOM     22  C   UNL     1      -3.781  10.995  16.965  0.00  0.00    +0.000 A 
ATOM     23  C   UNL     1      -2.577  10.634  16.228  0.00  0.00    +0.000 A 
ATOM     24  O   UNL     1      -2.619  10.270  15.058  0.00  0.00    +0.000 OA
ATOM     25  N   UNL     1      -1.422  10.737  16.928  0.00  0.00    +0.000 N 
ATOM     26  H   UNL     1      -0.597  10.379  16.471  0.00  0.00    +0.000 HD
BRANCH  21  27
ATOM     27  N   UNL     1      -4.878  11.664  18.936  0.00  0.00    +0.000 N 
ATOM     28  C   UNL     1      -4.999  12.844  19.811  0.00  0.00    +0.000 C 
ATOM     29  C   UNL     1      -5.826  12.454  21.053  0.00  0.00    +0.000 C 
ATOM     30  O   UNL     1      -7.113  11.913  20.699  0.00  0.00    +0.000 OA
ATOM     31  C   UNL     1      -6.959  10.760  19.854  0.00  0.00    +0.000 C 
ATOM     32  C   UNL     1      -6.195  11.115  18.573  0.00  0.00    +0.000 C 
ENDBRANCH  21  27
ENDBRANCH  18  19
ENDBRANCH   2  18
TORSDOF 4
ENDMDL
MODEL 6
REMARK VINA RESULT:      -8.4      2.889     10.094
REMARK  Name = 
REMARK  4 active torsions:
REMARK  status: ('A' for Active; 'I' for Inactive)
REMARK    1  A    between atoms: C_2  and  C_3
REMARK    2  A    between atoms: C_3  and  C_4
REMARK    3  A    between atoms: C_6  and  N_7
REMARK    4  A    between atoms: C_21  and  N_22
REMARK                            x       y       z     vdW  Elec       q    Type
REMARK                         _______ _______ _______ _____ _____    ______ ____
ROOT
ATOM      1  O   UNL     1      -0.503   9.840  20.936  0.00  0.00    +0.000 OA
ATOM      2  C   UNL     1       0.045  10.224  19.905  0.00  0.00    +0.000 C 
ATOM      3  N   UNL     1       0.983   9.482  19.207  0.00  0.00    +0.000 N 
ATOM      4  C   UNL     1       1.651   9.878  17.965  0.00  0.00    +0.000 C 
ATOM      5  C   UNL     1       2.420   8.660  17.459  0.00  0.00    +0.000 C 
ATOM      6  C   UNL     1       2.398   7.735  18.646  0.00  0.00    +0.000 A 
ATOM      7  C   UNL     1       3.016   6.486  18.790  0.00  0.00    +0.000 A 
ATOM      8  C   UNL     1       2.694   5.778  19.965  0.00  0.00    +0.000 A 
ATOM      9  C   UNL     1       1.808   6.281  20.932  0.00  0.00    +0.000 A 
ATOM     10  C   UNL     1       1.205   7.517  20.752  0.00  0.00    +0.000 A 
ATOM     11  C   UNL     1       1.502   8.233  19.607  0.00  0.00    +0.000 A 
ENDROOT
BRANCH   7  12
ATOM     12  N   UNL     1       3.866   5.949  17.844  0.00  0.00    +0.000 N 
ATOM     13  C   UNL     1       3.697   4.590  17.300  0.00  0.00    +0.000 C 
ATOM     14  C   UNL     1       4.938   3.733  17.587  0.00  0.00    +0.000 C 
ATOM     15  O   UNL     1       6.137   4.367  17.112  0.00  0.00    +0.000 OA
ATOM     16  C   UNL     1       6.315   5.627  17.771  0.00  0.00    +0.000 C 
ATOM     17  C   UNL     1       5.145   6.585  17.507  0.00  0.00    +0.000 C 
ENDBRANCH   7  12
BRANCH   2  18
ATOM     18  C   UNL     1      -0.338  11.550  19.290  0.00  0.00    +0.000 C 
BRANCH  18  19
ATOM     19  C   UNL     1      -1.652  11.487  18.559  0.00  0.00    +0.000 A 
ATOM     20  N   UNL     1      -2.772  11.684  19.179  0.00  0.00    +0.000 NA
ATOM     21  C   UNL     1      -3.947  11.626  18.456  0.00  0.00    +0.000 A 
ATOM     22  C   UNL     1      -3.938  11.337  17.143  0.00  0.00    +0.000 A 
ATOM     23  C   UNL     1      -2.676  11.104  16.451  0.00  0.00    +0.000 A 
ATOM     24  O   UNL     1      -2.635  10.802  15.264  0.00  0.00    +0.000 OA
ATOM     25  N   UNL     1      -1.567  11.251  17.215  0.00  0.00    +0.000 N 
ATOM     26  H   UNL     1      -0.697  10.978  16.782  0.00  0.00    +0.000 HD
BRANCH  21  27
ATOM     27  N   UNL     1      -5.174  11.818  19.087  0.00  0.00    +0.000 N 
ATOM     28  C   UNL     1      -5.467  13.008  19.906  0.00  0.00    +0.000 C 
ATOM     29  C   UNL     1      -6.279  12.567  21.141  0.00  0.00    +0.000 C 
ATOM     30  O   UNL     1      -7.478  11.857  20.776  0.00  0.00    +0.000 OA
ATOM     31  C   UNL     1      -7.156  10.700  19.986  0.00  0.00    +0.000 C 
ATOM     32  C   UNL     1      -6.401  11.096  18.712  0.00  0.00    +0.000 C 
ENDBRANCH  21  27
ENDBRANCH  18  19
ENDBRANCH   2  18
TORSDOF 4
ENDMDL
MODEL 7
REMARK VINA RESULT:      -8.3      1.015      1.485
REMARK  Name = 
REMARK  4 active torsions:
REMARK  status: ('A' for Active; 'I' for Inactive)
REMARK    1  A    between atoms: C_2  and  C_3
REMARK    2  A    between atoms: C_3  and  C_4
REMARK    3  A    between atoms: C_6  and  N_7
REMARK    4  A    between atoms: C_21  and  N_22
REMARK                            x       y       z     vdW  Elec       q    Type
REMARK                         _______ _______ _______ _____ _____    ______ ____
ROOT
ATOM      1  O   UNL     1       1.553   7.465  20.443  0.00  0.00    +0.000 OA
ATOM      2  C   UNL     1       1.568   8.377  19.620  0.00  0.00    +0.000 C 
ATOM      3  N   UNL     1       1.028   9.632  19.848  0.00  0.00    +0.000 N 
ATOM      4  C   UNL     1       1.035  10.761  18.914  0.00  0.00    +0.000 C 
ATOM      5  C   UNL     1       0.531  11.982  19.681  0.00  0.00    +0.000 C 
ATOM      6  C   UNL     1      -0.047  11.376  20.931  0.00  0.00    +0.000 A 
ATOM      7  C   UNL     1      -0.722  12.015  21.979  0.00  0.00    +0.000 A 
ATOM      8  C   UNL     1      -1.019  11.209  23.095  0.00  0.00    +0.000 A 
ATOM      9  C   UNL     1      -0.662   9.853  23.164  0.00  0.00    +0.000 A 
ATOM     10  C   UNL     1       0.015   9.253  22.113  0.00  0.00    +0.000 A 
ATOM     11  C   UNL     1       0.322  10.022  21.004  0.00  0.00    +0.000 A 
ENDROOT
BRANCH   7  12
ATOM     12  N   UNL     1      -1.059  13.354  21.956  0.00  0.00    +0.000 N 
ATOM     13  C   UNL     1      -2.186  13.880  21.166  0.00  0.00    +0.000 C 
ATOM     14  C   UNL     1      -1.695  14.915  20.143  0.00  0.00    +0.000 C 
ATOM     15  O   UNL     1      -0.936  15.959  20.774  0.00  0.00    +0.000 OA
ATOM     16  C   UNL     1       0.217  15.401  21.418  0.00  0.00    +0.000 C 
ATOM     17  C   UNL     1      -0.166  14.383  22.501  0.00  0.00    +0.000 C 
ENDBRANCH   7  12
BRANCH   2  18
ATOM     18  C   UNL     1       2.258   8.188  18.289  0.00  0.00    +0.000 C 
BRANCH  18  19
ATOM     19  C   UNL     1       2.602   6.747  18.019  0.00  0.00    +0.000 A 
ATOM     20  N   UNL     1       3.826   6.382  17.802  0.00  0.00    +0.000 NA
ATOM     21  C   UNL     1       4.085   5.046  17.572  0.00  0.00    +0.000 A 
ATOM     22  C   UNL     1       3.089   4.143  17.537  0.00  0.00    +0.000 A 
ATOM     23  C   UNL     1       1.712   4.560  17.770  0.00  0.00    +0.000 A 
ATOM     24  O   UNL     1       0.778   3.770  17.709  0.00  0.00    +0.000 OA
ATOM     25  N   UNL     1       1.551   5.873  18.061  0.00  0.00    +0.000 N 
ATOM     26  H   UNL     1       0.597   6.200  18.107  0.00  0.00    +0.000 HD
BRANCH  21  27
ATOM     27  N   UNL     1       5.384   4.612  17.321  0.00  0.00    +0.000 N 
ATOM     28  C   UNL     1       6.365   4.378  18.396  0.00  0.00    +0.000 C 
ATOM     29  C   UNL     1       7.743   4.884  17.925  0.00  0.00    +0.000 C 
ATOM     30  O   UNL     1       8.150   4.274  16.685  0.00  0.00    +0.000 OA
ATOM     31  C   UNL     1       7.177   4.529  15.657  0.00  0.00    +0.000 C 
ATOM     32  C   UNL     1       5.801   3.985  16.055  0.00  0.00    +0.000 C 
ENDBRANCH  21  27
ENDBRANCH  18  19
ENDBRANCH   2  18
TORSDOF 4
ENDMDL
MODEL 8
REMARK VINA RESULT:      -8.2      0.767      1.488
REMARK  Name = 
REMARK  4 active torsions:
REMARK  status: ('A' for Active; 'I' for Inactive)
REMARK    1  A    between atoms: C_2  and  C_3
REMARK    2  A    between atoms: C_3  and  C_4
REMARK    3  A    between atoms: C_6  and  N_7
REMARK    4  A    between atoms: C_21  and  N_22
REMARK                            x       y       z     vdW  Elec       q    Type
REMARK                         _______ _______ _______ _____ _____    ______ ____
ROOT
ATOM      1  O   UNL     1       1.845   7.830  20.486  0.00  0.00    +0.000 OA
ATOM      2  C   UNL     1       1.429   8.591  19.616  0.00  0.00    +0.000 C 
ATOM      3  N   UNL     1       0.561   9.642  19.859  0.00  0.00    +0.000 N 
ATOM      4  C   UNL     1       0.050  10.591  18.867  0.00  0.00    +0.000 C 
ATOM      5  C   UNL     1      -0.684  11.691  19.633  0.00  0.00    +0.000 C 
ATOM      6  C   UNL     1      -0.820  11.103  21.011  0.00  0.00    +0.000 A 
ATOM      7  C   UNL     1      -1.480  11.637  22.126  0.00  0.00    +0.000 A 
ATOM      8  C   UNL     1      -1.312  10.928  23.332  0.00  0.00    +0.000 A 
ATOM      9  C   UNL     1      -0.533   9.764  23.422  0.00  0.00    +0.000 A 
ATOM     10  C   UNL     1       0.116   9.267  22.301  0.00  0.00    +0.000 A 
ATOM     11  C   UNL     1      -0.030   9.945  21.103  0.00  0.00    +0.000 A 
ENDROOT
BRANCH   7  12
ATOM     12  N   UNL     1      -2.227  12.797  22.079  0.00  0.00    +0.000 N 
ATOM     13  C   UNL     1      -3.642  12.818  21.669  0.00  0.00    +0.000 C 
ATOM     14  C   UNL     1      -3.837  13.715  20.438  0.00  0.00    +0.000 C 
ATOM     15  O   UNL     1      -3.313  15.034  20.659  0.00  0.00    +0.000 OA
ATOM     16  C   UNL     1      -1.906  14.959  20.926  0.00  0.00    +0.000 C 
ATOM     17  C   UNL     1      -1.602  14.121  22.175  0.00  0.00    +0.000 C 
ENDBRANCH   7  12
BRANCH   2  18
ATOM     18  C   UNL     1       1.911   8.450  18.190  0.00  0.00    +0.000 C 
BRANCH  18  19
ATOM     19  C   UNL     1       2.477   7.084  17.906  0.00  0.00    +0.000 A 
ATOM     20  N   UNL     1       3.703   6.938  17.515  0.00  0.00    +0.000 NA
ATOM     21  C   UNL     1       4.173   5.661  17.280  0.00  0.00    +0.000 A 
ATOM     22  C   UNL     1       3.370   4.591  17.419  0.00  0.00    +0.000 A 
ATOM     23  C   UNL     1       1.988   4.762  17.849  0.00  0.00    +0.000 A 
ATOM     24  O   UNL     1       1.220   3.812  17.950  0.00  0.00    +0.000 OA
ATOM     25  N   UNL     1       1.627   6.037  18.129  0.00  0.00    +0.000 N 
ATOM     26  H   UNL     1       0.645   6.186  18.312  0.00  0.00    +0.000 HD
BRANCH  21  27
ATOM     27  N   UNL     1       5.480   5.459  16.844  0.00  0.00    +0.000 N 
ATOM     28  C   UNL     1       5.850   5.461  15.418  0.00  0.00    +0.000 C 
ATOM     29  C   UNL     1       6.890   4.348  15.178  0.00  0.00    +0.000 C 
ATOM     30  O   UNL     1       8.042   4.490  16.031  0.00  0.00    +0.000 OA
ATOM     31  C   UNL     1       7.648   4.478  17.414  0.00  0.00    +0.000 C 
ATOM     32  C   UNL     1       6.658   5.608  17.715  0.00  0.00    +0.000 C 
ENDBRANCH  21  27
ENDBRANCH  18  19
ENDBRANCH   2  18
TORSDOF 4
ENDMDL
MODEL 9
REMARK VINA RESULT:      -8.2      1.485      2.871
REMARK  Name = 
REMARK  4 active torsions:
REMARK  status: ('A' for Active; 'I' for Inactive)
REMARK    1  A    between atoms: C_2  and  C_3
REMARK    2  A    between atoms: C_3  and  C_4
REMARK    3  A    between atoms: C_6  and  N_7
REMARK    4  A    between atoms: C_21  and  N_22
REMARK                            x       y       z     vdW  Elec       q    Type
REMARK                         _______ _______ _______ _____ _____    ______ ____
ROOT
ATOM      1  O   UNL     1       2.035   7.978  20.232  0.00  0.00    +0.000 OA
ATOM      2  C   UNL     1       1.628   8.777  19.392  0.00  0.00    +0.000 C 
ATOM      3  N   UNL     1       0.738   9.802  19.669  0.00  0.00    +0.000 N 
ATOM      4  C   UNL     1       0.236  10.794  18.715  0.00  0.00    +0.000 C 
ATOM      5  C   UNL     1      -0.533  11.841  19.518  0.00  0.00    +0.000 C 
ATOM      6  C   UNL     1      -0.693  11.180  20.860  0.00  0.00    +0.000 A 
ATOM      7  C   UNL     1      -1.388  11.645  21.985  0.00  0.00    +0.000 A 
ATOM      8  C   UNL     1      -1.238  10.877  23.156  0.00  0.00    +0.000 A 
ATOM      9  C   UNL     1      -0.442   9.721  23.205  0.00  0.00    +0.000 A 
ATOM     10  C   UNL     1       0.241   9.294  22.075  0.00  0.00    +0.000 A 
ATOM     11  C   UNL     1       0.113  10.030  20.912  0.00  0.00    +0.000 A 
ENDROOT
BRANCH   7  12
ATOM     12  N   UNL     1      -2.152  12.796  21.979  0.00  0.00    +0.000 N 
ATOM     13  C   UNL     1      -1.626  14.106  22.400  0.00  0.00    +0.000 C 
ATOM     14  C   UNL     1      -2.430  14.658  23.586  0.00  0.00    +0.000 C 
ATOM     15  O   UNL     1      -3.836  14.703  23.292  0.00  0.00    +0.000 OA
ATOM     16  C   UNL     1      -4.318  13.381  23.016  0.00  0.00    +0.000 C 
ATOM     17  C   UNL     1      -3.609  12.752  21.808  0.00  0.00    +0.000 C 
ENDBRANCH   7  12
BRANCH   2  18
ATOM     18  C   UNL     1       2.146   8.719  17.974  0.00  0.00    +0.000 C 
BRANCH  18  19
ATOM     19  C   UNL     1       2.954   7.477  17.708  0.00  0.00    +0.000 A 
ATOM     20  N   UNL     1       2.482   6.301  17.976  0.00  0.00    +0.000 NA
ATOM     21  C   UNL     1       3.262   5.196  17.701  0.00  0.00    +0.000 A 
ATOM     22  C   UNL     1       4.501   5.333  17.197  0.00  0.00    +0.000 A 
ATOM     23  C   UNL     1       5.034   6.658  16.906  0.00  0.00    +0.000 A 
ATOM     24  O   UNL     1       6.172   6.819  16.482  0.00  0.00    +0.000 OA
ATOM     25  N   UNL     1       4.179   7.683  17.136  0.00  0.00    +0.000 N 
ATOM     26  H   UNL     1       4.572   8.610  17.053  0.00  0.00    +0.000 HD
BRANCH  21  27
ATOM     27  N   UNL     1       2.798   3.915  17.988  0.00  0.00    +0.000 N 
ATOM     28  C   UNL     1       1.374   3.624  18.235  0.00  0.00    +0.000 C 
ATOM     29  C   UNL     1       1.274   2.599  19.382  0.00  0.00    +0.000 C 
ATOM     30  O   UNL     1       2.027   1.402  19.108  0.00  0.00    +0.000 OA
ATOM     31  C   UNL     1       3.410   1.720  18.879  0.00  0.00    +0.000 C 
ATOM     32  C   UNL     1       3.565   2.691  17.703  0.00  0.00    +0.000 C 
ENDBRANCH  21  27
ENDBRANCH  18  19
ENDBRANCH   2  18
TORSDOF 4
ENDMDL
