MODEL 1
REMARK VINA RESULT:      -6.5      0.000      0.000
REMARK  Name = 
REMARK  2 active torsions:
REMARK  status: ('A' for Active; 'I' for Inactive)
REMARK    1  A    between atoms: O_1  and  C_2
REMARK    2  A    between atoms: C_14  and  O_15
REMARK                            x       y       z     vdW  Elec       q    Type
REMARK                         _______ _______ _______ _____ _____    ______ ____
ROOT
ATOM      1  C   UNL     1       6.912   4.696  17.622  0.00  0.00    +0.000 A 
ATOM      2  N   UNL     1       6.243   3.884  18.456  0.00  0.00    +0.000 NA
ATOM      3  C   UNL     1       5.064   4.319  18.908  0.00  0.00    +0.000 A 
ATOM      4  N   UNL     1       4.407   3.509  19.733  0.00  0.00    +0.000 NA
ATOM      5  C   UNL     1       3.212   3.906  20.216  0.00  0.00    +0.000 A 
ATOM      6 CL   UNL     1       2.511   2.732  21.264  0.00  0.00    +0.000 Cl
ATOM      7  C   UNL     1       2.609   5.111  19.912  0.00  0.00    +0.000 A 
ATOM      8 CL   UNL     1       1.072   5.546  20.573  0.00  0.00    +0.000 Cl
ATOM      9  C   UNL     1       3.310   5.950  19.045  0.00  0.00    +0.000 A 
ATOM     10 CL   UNL     1       2.644   7.497  18.592  0.00  0.00    +0.000 Cl
ATOM     11  C   UNL     1       4.556   5.585  18.515  0.00  0.00    +0.000 A 
ATOM     12  N   UNL     1       5.249   6.396  17.667  0.00  0.00    +0.000 NA
ATOM     13  C   UNL     1       6.427   5.928  17.235  0.00  0.00    +0.000 A 
ENDROOT
BRANCH   1  14
ATOM     14  O   UNL     1       8.102   4.204  17.198  0.00  0.00    +0.000 OA
ATOM     15  H   UNL     1       8.727   4.692  17.764  0.00  0.00    +0.000 HD
ENDBRANCH   1  14
BRANCH  13  16
ATOM     16  O   UNL     1       7.083   6.763  16.396  0.00  0.00    +0.000 OA
ATOM     17  H   UNL     1       8.011   6.545  16.596  0.00  0.00    +0.000 HD
ENDBRANCH  13  16
TORSDOF 2
ENDMDL
MODEL 2
REMARK VINA RESULT:      -6.3      1.824      2.053
REMARK  Name = 
REMARK  2 active torsions:
REMARK  status: ('A' for Active; 'I' for Inactive)
REMARK    1  A    between atoms: O_1  and  C_2
REMARK    2  A    between atoms: C_14  and  O_15
REMARK                            x       y       z     vdW  Elec       q    Type
REMARK                         _______ _______ _______ _____ _____    ______ ____
ROOT
ATOM      1  C   UNL     1       6.437   5.802  16.908  0.00  0.00    +0.000 A 
ATOM      2  N   UNL     1       6.537   4.897  17.896  0.00  0.00    +0.000 NA
ATOM      3  C   UNL     1       5.401   4.335  18.317  0.00  0.00    +0.000 A 
ATOM      4  N   UNL     1       5.506   3.441  19.295  0.00  0.00    +0.000 NA
ATOM      5  C   UNL     1       4.386   2.846  19.754  0.00  0.00    +0.000 A 
ATOM      6 CL   UNL     1       4.716   1.720  21.016  0.00  0.00    +0.000 Cl
ATOM      7  C   UNL     1       3.116   3.102  19.277  0.00  0.00    +0.000 A 
ATOM      8 CL   UNL     1       1.727   2.297  19.920  0.00  0.00    +0.000 Cl
ATOM      9  C   UNL     1       3.020   4.043  18.250  0.00  0.00    +0.000 A 
ATOM     10 CL   UNL     1       1.465   4.445  17.570  0.00  0.00    +0.000 Cl
ATOM     11  C   UNL     1       4.154   4.689  17.737  0.00  0.00    +0.000 A 
ATOM     12  N   UNL     1       4.074   5.609  16.735  0.00  0.00    +0.000 NA
ATOM     13  C   UNL     1       5.232   6.152  16.338  0.00  0.00    +0.000 A 
ENDROOT
BRANCH   1  14
ATOM     14  O   UNL     1       7.621   6.340  16.523  0.00  0.00    +0.000 OA
ATOM     15  H   UNL     1       7.914   6.773  17.345  0.00  0.00    +0.000 HD
ENDBRANCH   1  14
BRANCH  13  16
ATOM     16  O   UNL     1       5.107   7.060  15.343  0.00  0.00    +0.000 OA
ATOM     17  H   UNL     1       4.671   7.796  15.807  0.00  0.00    +0.000 HD
ENDBRANCH  13  16
TORSDOF 2
ENDMDL
MODEL 3
REMARK VINA RESULT:      -6.3      1.045      2.794
REMARK  Name = 
REMARK  2 active torsions:
REMARK  status: ('A' for Active; 'I' for Inactive)
REMARK    1  A    between atoms: O_1  and  C_2
REMARK    2  A    between atoms: C_14  and  O_15
REMARK                            x       y       z     vdW  Elec       q    Type
REMARK                         _______ _______ _______ _____ _____    ______ ____
ROOT
ATOM      1  C   UNL     1       6.727   6.021  17.206  0.00  0.00    +0.000 A 
ATOM      2  N   UNL     1       5.627   6.649  17.651  0.00  0.00    +0.000 NA
ATOM      3  C   UNL     1       4.806   5.946  18.437  0.00  0.00    +0.000 A 
ATOM      4  N   UNL     1       3.718   6.574  18.874  0.00  0.00    +0.000 NA
ATOM      5  C   UNL     1       2.860   5.906  19.670  0.00  0.00    +0.000 A 
ATOM      6 CL   UNL     1       1.515   6.875  20.137  0.00  0.00    +0.000 Cl
ATOM      7  C   UNL     1       3.028   4.595  20.073  0.00  0.00    +0.000 A 
ATOM      8 CL   UNL     1       1.879   3.807  21.097  0.00  0.00    +0.000 Cl
ATOM      9  C   UNL     1       4.174   3.949  19.606  0.00  0.00    +0.000 A 
ATOM     10 CL   UNL     1       4.489   2.292  20.050  0.00  0.00    +0.000 Cl
ATOM     11  C   UNL     1       5.099   4.599  18.776  0.00  0.00    +0.000 A 
ATOM     12  N   UNL     1       6.221   3.979  18.315  0.00  0.00    +0.000 NA
ATOM     13  C   UNL     1       7.020   4.713  17.530  0.00  0.00    +0.000 A 
ENDROOT
BRANCH   1  14
ATOM     14  O   UNL     1       7.521   6.781  16.412  0.00  0.00    +0.000 OA
ATOM     15  H   UNL     1       8.319   6.226  16.348  0.00  0.00    +0.000 HD
ENDBRANCH   1  14
BRANCH  13  16
ATOM     16  O   UNL     1       8.122   4.060  17.093  0.00  0.00    +0.000 OA
ATOM     17  H   UNL     1       8.302   4.526  16.257  0.00  0.00    +0.000 HD
ENDBRANCH  13  16
TORSDOF 2
ENDMDL
MODEL 4
REMARK VINA RESULT:      -6.3      3.702      4.517
REMARK  Name = 
REMARK  2 active torsions:
REMARK  status: ('A' for Active; 'I' for Inactive)
REMARK    1  A    between atoms: O_1  and  C_2
REMARK    2  A    between atoms: C_14  and  O_15
REMARK                            x       y       z     vdW  Elec       q    Type
REMARK                         _______ _______ _______ _____ _____    ______ ____
ROOT
ATOM      1  C   UNL     1       2.905   3.184  19.061  0.00  0.00    +0.000 A 
ATOM      2  N   UNL     1       4.098   3.412  19.634  0.00  0.00    +0.000 NA
ATOM      3  C   UNL     1       4.873   4.342  19.068  0.00  0.00    +0.000 A 
ATOM      4  N   UNL     1       6.053   4.562  19.640  0.00  0.00    +0.000 NA
ATOM      5  C   UNL     1       6.869   5.491  19.105  0.00  0.00    +0.000 A 
ATOM      6 CL   UNL     1       8.348   5.639  19.977  0.00  0.00    +0.000 Cl
ATOM      7  C   UNL     1       6.568   6.244  17.987  0.00  0.00    +0.000 A 
ATOM      8 CL   UNL     1       7.672   7.418  17.361  0.00  0.00    +0.000 Cl
ATOM      9  C   UNL     1       5.326   6.002  17.397  0.00  0.00    +0.000 A 
ATOM     10 CL   UNL     1       4.839   6.896  15.980  0.00  0.00    +0.000 Cl
ATOM     11  C   UNL     1       4.440   5.047  17.915  0.00  0.00    +0.000 A 
ATOM     12  N   UNL     1       3.225   4.803  17.348  0.00  0.00    +0.000 NA
ATOM     13  C   UNL     1       2.475   3.865  17.941  0.00  0.00    +0.000 A 
ENDROOT
BRANCH   1  14
ATOM     14  O   UNL     1       2.163   2.230  19.676  0.00  0.00    +0.000 OA
ATOM     15  H   UNL     1       1.260   2.575  19.548  0.00  0.00    +0.000 HD
ENDBRANCH   1  14
BRANCH  13  16
ATOM     16  O   UNL     1       1.278   3.652  17.347  0.00  0.00    +0.000 OA
ATOM     17  H   UNL     1       1.377   4.166  16.526  0.00  0.00    +0.000 HD
ENDBRANCH  13  16
TORSDOF 2
ENDMDL
MODEL 5
REMARK VINA RESULT:      -6.2      1.879      3.116
REMARK  Name = 
REMARK  2 active torsions:
REMARK  status: ('A' for Active; 'I' for Inactive)
REMARK    1  A    between atoms: O_1  and  C_2
REMARK    2  A    between atoms: C_14  and  O_15
REMARK                            x       y       z     vdW  Elec       q    Type
REMARK                         _______ _______ _______ _____ _____    ______ ____
ROOT
ATOM      1  C   UNL     1       5.130   5.663  16.086  0.00  0.00    +0.000 A 
ATOM      2  N   UNL     1       4.367   6.207  17.049  0.00  0.00    +0.000 NA
ATOM      3  C   UNL     1       3.767   5.364  17.893  0.00  0.00    +0.000 A 
ATOM      4  N   UNL     1       3.013   5.909  18.843  0.00  0.00    +0.000 NA
ATOM      5  C   UNL     1       2.387   5.098  19.720  0.00  0.00    +0.000 A 
ATOM      6 CL   UNL     1       1.461   5.978  20.875  0.00  0.00    +0.000 Cl
ATOM      7  C   UNL     1       2.471   3.719  19.703  0.00  0.00    +0.000 A 
ATOM      8 CL   UNL     1       1.635   2.747  20.864  0.00  0.00    +0.000 Cl
ATOM      9  C   UNL     1       3.265   3.161  18.701  0.00  0.00    +0.000 A 
ATOM     10 CL   UNL     1       3.444   1.429  18.584  0.00  0.00    +0.000 Cl
ATOM     11  C   UNL     1       3.938   3.960  17.765  0.00  0.00    +0.000 A 
ATOM     12  N   UNL     1       4.716   3.427  16.783  0.00  0.00    +0.000 NA
ATOM     13  C   UNL     1       5.302   4.301  15.954  0.00  0.00    +0.000 A 
ENDROOT
BRANCH   1  14
ATOM     14  O   UNL     1       5.712   6.565  15.258  0.00  0.00    +0.000 OA
ATOM     15  H   UNL     1       5.488   7.405  15.699  0.00  0.00    +0.000 HD
ENDBRANCH   1  14
BRANCH  13  16
ATOM     16  O   UNL     1       6.065   3.731  14.993  0.00  0.00    +0.000 OA
ATOM     17  H   UNL     1       6.117   4.450  14.338  0.00  0.00    +0.000 HD
ENDBRANCH  13  16
TORSDOF 2
ENDMDL
MODEL 6
REMARK VINA RESULT:      -6.2      1.776      2.724
REMARK  Name = 
REMARK  2 active torsions:
REMARK  status: ('A' for Active; 'I' for Inactive)
REMARK    1  A    between atoms: O_1  and  C_2
REMARK    2  A    between atoms: C_14  and  O_15
REMARK                            x       y       z     vdW  Elec       q    Type
REMARK                         _______ _______ _______ _____ _____    ______ ____
ROOT
ATOM      1  C   UNL     1       6.257   5.719  16.776  0.00  0.00    +0.000 A 
ATOM      2  N   UNL     1       5.487   6.308  17.706  0.00  0.00    +0.000 NA
ATOM      3  C   UNL     1       4.426   5.620  18.136  0.00  0.00    +0.000 A 
ATOM      4  N   UNL     1       3.668   6.208  19.056  0.00  0.00    +0.000 NA
ATOM      5  C   UNL     1       2.586   5.553  19.521  0.00  0.00    +0.000 A 
ATOM      6 CL   UNL     1       1.728   6.466  20.703  0.00  0.00    +0.000 Cl
ATOM      7  C   UNL     1       2.198   4.294  19.105  0.00  0.00    +0.000 A 
ATOM      8 CL   UNL     1       0.794   3.519  19.751  0.00  0.00    +0.000 Cl
ATOM      9  C   UNL     1       3.003   3.688  18.139  0.00  0.00    +0.000 A 
ATOM     10 CL   UNL     1       2.610   2.098  17.540  0.00  0.00    +0.000 Cl
ATOM     11  C   UNL     1       4.140   4.327  17.624  0.00  0.00    +0.000 A 
ATOM     12  N   UNL     1       4.934   3.746  16.681  0.00  0.00    +0.000 NA
ATOM     13  C   UNL     1       5.988   4.464  16.273  0.00  0.00    +0.000 A 
ENDROOT
BRANCH   1  14
ATOM     14  O   UNL     1       7.318   6.464  16.376  0.00  0.00    +0.000 OA
ATOM     15  H   UNL     1       7.817   6.553  17.209  0.00  0.00    +0.000 HD
ENDBRANCH   1  14
BRANCH  13  16
ATOM     16  O   UNL     1       6.749   3.851  15.337  0.00  0.00    +0.000 OA
ATOM     17  H   UNL     1       7.633   4.203  15.548  0.00  0.00    +0.000 HD
ENDBRANCH  13  16
TORSDOF 2
ENDMDL
MODEL 7
REMARK VINA RESULT:      -6.1      1.526      1.549
REMARK  Name = 
REMARK  2 active torsions:
REMARK  status: ('A' for Active; 'I' for Inactive)
REMARK    1  A    between atoms: O_1  and  C_2
REMARK    2  A    between atoms: C_14  and  O_15
REMARK                            x       y       z     vdW  Elec       q    Type
REMARK                         _______ _______ _______ _____ _____    ______ ____
ROOT
ATOM      1  C   UNL     1       5.439   4.117  16.375  0.00  0.00    +0.000 A 
ATOM      2  N   UNL     1       4.859   3.644  17.490  0.00  0.00    +0.000 NA
ATOM      3  C   UNL     1       4.097   4.495  18.183  0.00  0.00    +0.000 A 
ATOM      4  N   UNL     1       3.526   4.020  19.285  0.00  0.00    +0.000 NA
ATOM      5  C   UNL     1       2.747   4.841  20.018  0.00  0.00    +0.000 A 
ATOM      6 CL   UNL     1       2.094   4.055  21.405  0.00  0.00    +0.000 Cl
ATOM      7  C   UNL     1       2.494   6.162  19.704  0.00  0.00    +0.000 A 
ATOM      8 CL   UNL     1       1.482   7.152  20.697  0.00  0.00    +0.000 Cl
ATOM      9  C   UNL     1       3.100   6.647  18.543  0.00  0.00    +0.000 A 
ATOM     10 CL   UNL     1       2.850   8.301  18.049  0.00  0.00    +0.000 Cl
ATOM     11  C   UNL     1       3.918   5.833  17.746  0.00  0.00    +0.000 A 
ATOM     12  N   UNL     1       4.514   6.295  16.611  0.00  0.00    +0.000 NA
ATOM     13  C   UNL     1       5.271   5.416  15.943  0.00  0.00    +0.000 A 
ENDROOT
BRANCH   1  14
ATOM     14  O   UNL     1       6.201   3.211  15.714  0.00  0.00    +0.000 OA
ATOM     15  H   UNL     1       6.565   2.689  16.452  0.00  0.00    +0.000 HD
ENDBRANCH   1  14
BRANCH  13  16
ATOM     16  O   UNL     1       5.845   5.915  14.823  0.00  0.00    +0.000 OA
ATOM     17  H   UNL     1       5.472   6.814  14.800  0.00  0.00    +0.000 HD
ENDBRANCH  13  16
TORSDOF 2
ENDMDL
MODEL 8
REMARK VINA RESULT:      -6.1      1.380      1.388
REMARK  Name = 
REMARK  2 active torsions:
REMARK  status: ('A' for Active; 'I' for Inactive)
REMARK    1  A    between atoms: O_1  and  C_2
REMARK    2  A    between atoms: C_14  and  O_15
REMARK                            x       y       z     vdW  Elec       q    Type
REMARK                         _______ _______ _______ _____ _____    ______ ____
ROOT
ATOM      1  C   UNL     1       6.372   5.033  16.522  0.00  0.00    +0.000 A 
ATOM      2  N   UNL     1       5.644   3.942  16.812  0.00  0.00    +0.000 NA
ATOM      3  C   UNL     1       4.577   4.118  17.596  0.00  0.00    +0.000 A 
ATOM      4  N   UNL     1       3.862   3.033  17.879  0.00  0.00    +0.000 NA
ATOM      5  C   UNL     1       2.776   3.161  18.668  0.00  0.00    +0.000 A 
ATOM      6 CL   UNL     1       1.976   1.657  18.924  0.00  0.00    +0.000 Cl
ATOM      7  C   UNL     1       2.343   4.354  19.213  0.00  0.00    +0.000 A 
ATOM      8 CL   UNL     1       0.938   4.435  20.217  0.00  0.00    +0.000 Cl
ATOM      9  C   UNL     1       3.104   5.483  18.908  0.00  0.00    +0.000 A 
ATOM     10 CL   UNL     1       2.652   7.044  19.542  0.00  0.00    +0.000 Cl
ATOM     11  C   UNL     1       4.242   5.405  18.092  0.00  0.00    +0.000 A 
ATOM     12  N   UNL     1       4.992   6.501  17.786  0.00  0.00    +0.000 NA
ATOM     13  C   UNL     1       6.054   6.287  16.999  0.00  0.00    +0.000 A 
ENDROOT
BRANCH   1  14
ATOM     14  O   UNL     1       7.443   4.795  15.725  0.00  0.00    +0.000 OA
ATOM     15  H   UNL     1       7.573   3.838  15.856  0.00  0.00    +0.000 HD
ENDBRANCH   1  14
BRANCH  13  16
ATOM     16  O   UNL     1       6.772   7.400  16.720  0.00  0.00    +0.000 OA
ATOM     17  H   UNL     1       6.325   7.721  15.917  0.00  0.00    +0.000 HD
ENDBRANCH  13  16
TORSDOF 2
ENDMDL
MODEL 9
REMARK VINA RESULT:      -6.1      3.438      3.963
REMARK  Name = 
REMARK  2 active torsions:
REMARK  status: ('A' for Active; 'I' for Inactive)
REMARK    1  A    between atoms: O_1  and  C_2
REMARK    2  A    between atoms: C_14  and  O_15
REMARK                            x       y       z     vdW  Elec       q    Type
REMARK                         _______ _______ _______ _____ _____    ______ ____
ROOT
ATOM      1  C   UNL     1       6.792   4.316  13.290  0.00  0.00    +0.000 A 
ATOM      2  N   UNL     1       5.790   3.782  14.007  0.00  0.00    +0.000 NA
ATOM      3  C   UNL     1       5.678   4.178  15.278  0.00  0.00    +0.000 A 
ATOM      4  N   UNL     1       4.684   3.645  15.983  0.00  0.00    +0.000 NA
ATOM      5  C   UNL     1       4.532   4.014  17.270  0.00  0.00    +0.000 A 
ATOM      6 CL   UNL     1       3.196   3.226  18.020  0.00  0.00    +0.000 Cl
ATOM      7  C   UNL     1       5.345   4.919  17.924  0.00  0.00    +0.000 A 
ATOM      8 CL   UNL     1       5.083   5.341  19.581  0.00  0.00    +0.000 Cl
ATOM      9  C   UNL     1       6.384   5.470  17.173  0.00  0.00    +0.000 A 
ATOM     10 CL   UNL     1       7.474   6.624  17.896  0.00  0.00    +0.000 Cl
ATOM     11  C   UNL     1       6.586   5.120  15.830  0.00  0.00    +0.000 A 
ATOM     12  N   UNL     1       7.596   5.652  15.086  0.00  0.00    +0.000 NA
ATOM     13  C   UNL     1       7.678   5.232  13.817  0.00  0.00    +0.000 A 
ENDROOT
BRANCH   1  14
ATOM     14  O   UNL     1       6.857   3.877  12.009  0.00  0.00    +0.000 OA
ATOM     15  H   UNL     1       7.039   4.705  11.529  0.00  0.00    +0.000 HD
ENDBRANCH   1  14
BRANCH  13  16
ATOM     16  O   UNL     1       8.695   5.783  13.113  0.00  0.00    +0.000 OA
ATOM     17  H   UNL     1       9.384   5.855  13.797  0.00  0.00    +0.000 HD
ENDBRANCH  13  16
TORSDOF 2
ENDMDL
