MODEL 1
REMARK VINA RESULT:      -8.4      0.000      0.000
REMARK  Name = 
REMARK  6 active torsions:
REMARK  status: ('A' for Active; 'I' for Inactive)
REMARK    1  A    between atoms: C_1  and  C_2
REMARK    2  A    between atoms: C_6  and  N_7
REMARK    3  A    between atoms: C_8  and  C_10
REMARK    4  A    between atoms: C_10  and  N_11
REMARK    5  A    between atoms: C_15  and  C_16
REMARK    6  A    between atoms: C_24  and  C_25
REMARK                            x       y       z     vdW  Elec       q    Type
REMARK                         _______ _______ _______ _____ _____    ______ ____
ROOT
ATOM      1  N   UNL     1       4.246   4.232  18.596  0.00  0.00    +0.000 N 
ATOM      2  C   UNL     1       4.037   3.673  17.341  0.00  0.00    +0.000 A 
ATOM      3  N   UNL     1       4.753   3.850  16.270  0.00  0.00    +0.000 NA
ATOM      4  C   UNL     1       5.822   4.749  16.425  0.00  0.00    +0.000 A 
ATOM      5  C   UNL     1       6.777   5.166  15.433  0.00  0.00    +0.000 A 
ATOM      6  N   UNL     1       7.667   6.079  15.883  0.00  0.00    +0.000 NA
ATOM      7  S   UNL     1       7.374   6.391  17.489  0.00  0.00    +0.000 S 
ATOM      8  C   UNL     1       6.063   5.347  17.629  0.00  0.00    +0.000 A 
ATOM      9  C   UNL     1       5.308   5.106  18.816  0.00  0.00    +0.000 A 
ATOM     10  O   UNL     1       5.567   5.571  19.921  0.00  0.00    +0.000 OA
ENDROOT
BRANCH   5  11
ATOM     11  C   UNL     1       6.891   4.706  14.040  0.00  0.00    +0.000 C 
ATOM     12  N   UNL     1       6.211   3.544  13.762  0.00  0.00    +0.000 N 
ATOM     13  O   UNL     1       7.507   5.282  13.151  0.00  0.00    +0.000 OA
ATOM     14  H   UNL     1       5.666   3.100  14.490  0.00  0.00    +0.000 HD
ATOM     15  H   UNL     1       6.187   3.197  12.815  0.00  0.00    +0.000 HD
ENDBRANCH   5  11
BRANCH   1  16
ATOM     16  C   UNL     1       3.345   3.925  19.712  0.00  0.00    +0.000 C 
BRANCH  16  18
ATOM     17  N   UNL     1       2.647   6.268  20.049  0.00  0.00    +0.000 N 
ATOM     18  C   UNL     1       2.215   4.961  19.813  0.00  0.00    +0.000 C 
ATOM     19  O   UNL     1       1.047   4.583  19.769  0.00  0.00    +0.000 OA
ATOM     20  H   UNL     1       3.642   6.409  20.143  0.00  0.00    +0.000 HD
BRANCH  17  26
ATOM     21  C   UNL     1       0.719  10.667  18.438  0.00  0.00    +0.000 C 
ATOM     22  C   UNL     1       0.885   9.567  19.458  0.00  0.00    +0.000 A 
ATOM     23  C   UNL     1       0.220   9.712  20.681  0.00  0.00    +0.000 A 
ATOM     24  C   UNL     1       0.322   8.732  21.652  0.00  0.00    +0.000 A 
ATOM     25  C   UNL     1       1.109   7.603  21.424  0.00  0.00    +0.000 A 
ATOM     26  C   UNL     1       1.822   7.424  20.230  0.00  0.00    +0.000 A 
ATOM     27  C   UNL     1       1.695   8.415  19.215  0.00  0.00    +0.000 A 
ATOM     28  C   UNL     1       2.394   8.336  17.879  0.00  0.00    +0.000 C 
ENDBRANCH  17  26
ENDBRANCH  16  18
ENDBRANCH   1  16
TORSDOF 4
ENDMDL
MODEL 2
REMARK VINA RESULT:      -7.3      3.105      7.681
REMARK  Name = 
REMARK  6 active torsions:
REMARK  status: ('A' for Active; 'I' for Inactive)
REMARK    1  A    between atoms: C_1  and  C_2
REMARK    2  A    between atoms: C_6  and  N_7
REMARK    3  A    between atoms: C_8  and  C_10
REMARK    4  A    between atoms: C_10  and  N_11
REMARK    5  A    between atoms: C_15  and  C_16
REMARK    6  A    between atoms: C_24  and  C_25
REMARK                            x       y       z     vdW  Elec       q    Type
REMARK                         _______ _______ _______ _____ _____    ______ ____
ROOT
ATOM      1  N   UNL     1       5.031   5.790  18.372  0.00  0.00    +0.000 N 
ATOM      2  C   UNL     1       3.720   6.101  18.713  0.00  0.00    +0.000 A 
ATOM      3  N   UNL     1       2.892   5.375  19.404  0.00  0.00    +0.000 NA
ATOM      4  C   UNL     1       3.398   4.122  19.792  0.00  0.00    +0.000 A 
ATOM      5  C   UNL     1       2.729   3.092  20.541  0.00  0.00    +0.000 A 
ATOM      6  N   UNL     1       3.474   1.978  20.722  0.00  0.00    +0.000 NA
ATOM      7  S   UNL     1       4.970   2.196  20.032  0.00  0.00    +0.000 S 
ATOM      8  C   UNL     1       4.672   3.752  19.467  0.00  0.00    +0.000 A 
ATOM      9  C   UNL     1       5.596   4.577  18.757  0.00  0.00    +0.000 A 
ATOM     10  O   UNL     1       6.767   4.288  18.534  0.00  0.00    +0.000 OA
ENDROOT
BRANCH   5  11
ATOM     11  C   UNL     1       1.378   3.132  21.124  0.00  0.00    +0.000 C 
ATOM     12  N   UNL     1       0.432   3.745  20.336  0.00  0.00    +0.000 N 
ATOM     13  O   UNL     1       1.057   2.653  22.205  0.00  0.00    +0.000 OA
ATOM     14  H   UNL     1       0.695   4.096  19.424  0.00  0.00    +0.000 HD
ATOM     15  H   UNL     1      -0.531   3.757  20.636  0.00  0.00    +0.000 HD
ENDBRANCH   5  11
BRANCH   1  16
ATOM     16  C   UNL     1       5.843   6.727  17.588  0.00  0.00    +0.000 C 
BRANCH  16  18
ATOM     17  N   UNL     1       6.691   5.485  15.631  0.00  0.00    +0.000 N 
ATOM     18  C   UNL     1       5.753   6.415  16.086  0.00  0.00    +0.000 C 
ATOM     19  O   UNL     1       4.957   7.037  15.389  0.00  0.00    +0.000 OA
ATOM     20  H   UNL     1       7.338   5.119  16.313  0.00  0.00    +0.000 HD
BRANCH  17  26
ATOM     21  C   UNL     1       5.539   2.433  11.754  0.00  0.00    +0.000 C 
ATOM     22  C   UNL     1       6.322   3.554  12.395  0.00  0.00    +0.000 A 
ATOM     23  C   UNL     1       7.320   4.167  11.628  0.00  0.00    +0.000 A 
ATOM     24  C   UNL     1       8.063   5.209  12.154  0.00  0.00    +0.000 A 
ATOM     25  C   UNL     1       7.835   5.639  13.461  0.00  0.00    +0.000 A 
ATOM     26  C   UNL     1       6.870   5.038  14.283  0.00  0.00    +0.000 A 
ATOM     27  C   UNL     1       6.081   3.986  13.736  0.00  0.00    +0.000 A 
ATOM     28  C   UNL     1       4.999   3.267  14.505  0.00  0.00    +0.000 C 
ENDBRANCH  17  26
ENDBRANCH  16  18
ENDBRANCH   1  16
TORSDOF 4
ENDMDL
MODEL 3
REMARK VINA RESULT:      -7.1      4.857      6.869
REMARK  Name = 
REMARK  6 active torsions:
REMARK  status: ('A' for Active; 'I' for Inactive)
REMARK    1  A    between atoms: C_1  and  C_2
REMARK    2  A    between atoms: C_6  and  N_7
REMARK    3  A    between atoms: C_8  and  C_10
REMARK    4  A    between atoms: C_10  and  N_11
REMARK    5  A    between atoms: C_15  and  C_16
REMARK    6  A    between atoms: C_24  and  C_25
REMARK                            x       y       z     vdW  Elec       q    Type
REMARK                         _______ _______ _______ _____ _____    ______ ____
ROOT
ATOM      1  N   UNL     1       6.356   6.379  17.679  0.00  0.00    +0.000 N 
ATOM      2  C   UNL     1       6.874   5.402  18.521  0.00  0.00    +0.000 A 
ATOM      3  N   UNL     1       6.214   4.491  19.172  0.00  0.00    +0.000 NA
ATOM      4  C   UNL     1       4.818   4.562  19.020  0.00  0.00    +0.000 A 
ATOM      5  C   UNL     1       3.820   3.716  19.619  0.00  0.00    +0.000 A 
ATOM      6  N   UNL     1       2.552   4.065  19.307  0.00  0.00    +0.000 NA
ATOM      7  S   UNL     1       2.575   5.368  18.276  0.00  0.00    +0.000 S 
ATOM      8  C   UNL     1       4.249   5.514  18.224  0.00  0.00    +0.000 A 
ATOM      9  C   UNL     1       4.983   6.477  17.466  0.00  0.00    +0.000 A 
ATOM     10  O   UNL     1       4.488   7.280  16.683  0.00  0.00    +0.000 OA
ENDROOT
BRANCH   5  11
ATOM     11  C   UNL     1       4.030   2.546  20.486  0.00  0.00    +0.000 C 
ATOM     12  N   UNL     1       5.055   1.718  20.094  0.00  0.00    +0.000 N 
ATOM     13  O   UNL     1       3.392   2.291  21.501  0.00  0.00    +0.000 OA
ATOM     14  H   UNL     1       5.608   1.961  19.282  0.00  0.00    +0.000 HD
ATOM     15  H   UNL     1       5.304   0.928  20.671  0.00  0.00    +0.000 HD
ENDBRANCH   5  11
BRANCH   1  16
ATOM     16  C   UNL     1       7.241   7.336  17.008  0.00  0.00    +0.000 C 
BRANCH  16  18
ATOM     17  N   UNL     1       8.051   9.547  17.748  0.00  0.00    +0.000 N 
ATOM     18  C   UNL     1       8.021   8.180  18.029  0.00  0.00    +0.000 C 
ATOM     19  O   UNL     1       8.618   7.617  18.943  0.00  0.00    +0.000 OA
ATOM     20  H   UNL     1       7.578   9.850  16.909  0.00  0.00    +0.000 HD
BRANCH  17  26
ATOM     21  C   UNL     1       9.271  14.388  18.612  0.00  0.00    +0.000 C 
ATOM     22  C   UNL     1       9.336  12.911  18.917  0.00  0.00    +0.000 A 
ATOM     23  C   UNL     1      10.155  12.506  19.979  0.00  0.00    +0.000 A 
ATOM     24  C   UNL     1      10.247  11.167  20.317  0.00  0.00    +0.000 A 
ATOM     25  C   UNL     1       9.540  10.213  19.586  0.00  0.00    +0.000 A 
ATOM     26  C   UNL     1       8.732  10.561  18.494  0.00  0.00    +0.000 A 
ATOM     27  C   UNL     1       8.609  11.940  18.161  0.00  0.00    +0.000 A 
ATOM     28  C   UNL     1       7.761  12.453  17.022  0.00  0.00    +0.000 C 
ENDBRANCH  17  26
ENDBRANCH  16  18
ENDBRANCH   1  16
TORSDOF 4
ENDMDL
MODEL 4
REMARK VINA RESULT:      -7.1      3.231      5.580
REMARK  Name = 
REMARK  6 active torsions:
REMARK  status: ('A' for Active; 'I' for Inactive)
REMARK    1  A    between atoms: C_1  and  C_2
REMARK    2  A    between atoms: C_6  and  N_7
REMARK    3  A    between atoms: C_8  and  C_10
REMARK    4  A    between atoms: C_10  and  N_11
REMARK    5  A    between atoms: C_15  and  C_16
REMARK    6  A    between atoms: C_24  and  C_25
REMARK                            x       y       z     vdW  Elec       q    Type
REMARK                         _______ _______ _______ _____ _____    ______ ____
ROOT
ATOM      1  N   UNL     1       2.480   7.589  18.716  0.00  0.00    +0.000 N 
ATOM      2  C   UNL     1       1.780   7.148  19.834  0.00  0.00    +0.000 A 
ATOM      3  N   UNL     1       1.816   5.965  20.370  0.00  0.00    +0.000 NA
ATOM      4  C   UNL     1       2.628   5.041  19.689  0.00  0.00    +0.000 A 
ATOM      5  C   UNL     1       2.860   3.659  20.017  0.00  0.00    +0.000 A 
ATOM      6  N   UNL     1       3.666   3.019  19.140  0.00  0.00    +0.000 NA
ATOM      7  S   UNL     1       4.162   4.085  17.966  0.00  0.00    +0.000 S 
ATOM      8  C   UNL     1       3.322   5.409  18.573  0.00  0.00    +0.000 A 
ATOM      9  C   UNL     1       3.323   6.726  18.021  0.00  0.00    +0.000 A 
ATOM     10  O   UNL     1       4.008   7.089  17.070  0.00  0.00    +0.000 OA
ENDROOT
BRANCH   5  11
ATOM     11  C   UNL     1       2.346   2.906  21.173  0.00  0.00    +0.000 C 
ATOM     12  N   UNL     1       0.977   2.910  21.296  0.00  0.00    +0.000 N 
ATOM     13  O   UNL     1       3.032   2.287  21.978  0.00  0.00    +0.000 OA
ATOM     14  H   UNL     1       0.415   3.384  20.600  0.00  0.00    +0.000 HD
ATOM     15  H   UNL     1       0.543   2.364  22.026  0.00  0.00    +0.000 HD
ENDBRANCH   5  11
BRANCH   1  16
ATOM     16  C   UNL     1       2.335   8.968  18.238  0.00  0.00    +0.000 C 
BRANCH  16  18
ATOM     17  N   UNL     1       0.096   9.975  17.988  0.00  0.00    +0.000 N 
ATOM     18  C   UNL     1       1.119   9.653  18.881  0.00  0.00    +0.000 C 
ATOM     19  O   UNL     1       1.154   9.943  20.074  0.00  0.00    +0.000 OA
ATOM     20  H   UNL     1       0.249   9.744  17.017  0.00  0.00    +0.000 HD
BRANCH  17  26
ATOM     21  C   UNL     1      -4.687  11.248  16.904  0.00  0.00    +0.000 C 
ATOM     22  C   UNL     1      -3.452  11.280  17.772  0.00  0.00    +0.000 A 
ATOM     23  C   UNL     1      -3.497  12.061  18.933  0.00  0.00    +0.000 A 
ATOM     24  C   UNL     1      -2.402  12.122  19.776  0.00  0.00    +0.000 A 
ATOM     25  C   UNL     1      -1.238  11.421  19.460  0.00  0.00    +0.000 A 
ATOM     26  C   UNL     1      -1.129  10.650  18.293  0.00  0.00    +0.000 A 
ATOM     27  C   UNL     1      -2.263  10.560  17.438  0.00  0.00    +0.000 A 
ATOM     28  C   UNL     1      -2.286   9.752  16.162  0.00  0.00    +0.000 C 
ENDBRANCH  17  26
ENDBRANCH  16  18
ENDBRANCH   1  16
TORSDOF 4
ENDMDL
MODEL 5
REMARK VINA RESULT:      -7.1      3.801      8.057
REMARK  Name = 
REMARK  6 active torsions:
REMARK  status: ('A' for Active; 'I' for Inactive)
REMARK    1  A    between atoms: C_1  and  C_2
REMARK    2  A    between atoms: C_6  and  N_7
REMARK    3  A    between atoms: C_8  and  C_10
REMARK    4  A    between atoms: C_10  and  N_11
REMARK    5  A    between atoms: C_15  and  C_16
REMARK    6  A    between atoms: C_24  and  C_25
REMARK                            x       y       z     vdW  Elec       q    Type
REMARK                         _______ _______ _______ _____ _____    ______ ____
ROOT
ATOM      1  N   UNL     1       2.072   8.964  18.617  0.00  0.00    +0.000 N 
ATOM      2  C   UNL     1       1.646   8.321  19.774  0.00  0.00    +0.000 A 
ATOM      3  N   UNL     1       0.956   8.831  20.751  0.00  0.00    +0.000 NA
ATOM      4  C   UNL     1       0.667  10.199  20.609  0.00  0.00    +0.000 A 
ATOM      5  C   UNL     1      -0.056  11.049  21.517  0.00  0.00    +0.000 A 
ATOM      6  N   UNL     1      -0.134  12.337  21.114  0.00  0.00    +0.000 NA
ATOM      7  S   UNL     1       0.620  12.502  19.642  0.00  0.00    +0.000 S 
ATOM      8  C   UNL     1       1.078  10.890  19.505  0.00  0.00    +0.000 A 
ATOM      9  C   UNL     1       1.787  10.311  18.408  0.00  0.00    +0.000 A 
ATOM     10  O   UNL     1       2.086  10.901  17.375  0.00  0.00    +0.000 OA
ENDROOT
BRANCH   5  11
ATOM     11  C   UNL     1      -0.708  10.671  22.782  0.00  0.00    +0.000 C 
ATOM     12  N   UNL     1      -0.536   9.357  23.145  0.00  0.00    +0.000 N 
ATOM     13  O   UNL     1      -1.345  11.429  23.505  0.00  0.00    +0.000 OA
ATOM     14  H   UNL     1       0.031   8.750  22.566  0.00  0.00    +0.000 HD
ATOM     15  H   UNL     1      -0.899   9.035  24.030  0.00  0.00    +0.000 HD
ENDBRANCH   5  11
BRANCH   1  16
ATOM     16  C   UNL     1       2.841   8.242  17.599  0.00  0.00    +0.000 C 
BRANCH  16  18
ATOM     17  N   UNL     1       2.069   5.938  18.027  0.00  0.00    +0.000 N 
ATOM     18  C   UNL     1       3.159   6.810  18.057  0.00  0.00    +0.000 C 
ATOM     19  O   UNL     1       4.280   6.550  18.487  0.00  0.00    +0.000 OA
ATOM     20  H   UNL     1       1.186   6.322  17.725  0.00  0.00    +0.000 HD
BRANCH  17  26
ATOM     21  C   UNL     1       1.659   2.342  21.573  0.00  0.00    +0.000 C 
ATOM     22  C   UNL     1       1.866   2.811  20.153  0.00  0.00    +0.000 A 
ATOM     23  C   UNL     1       2.105   1.835  19.178  0.00  0.00    +0.000 A 
ATOM     24  C   UNL     1       2.290   2.200  17.857  0.00  0.00    +0.000 A 
ATOM     25  C   UNL     1       2.261   3.546  17.494  0.00  0.00    +0.000 A 
ATOM     26  C   UNL     1       2.057   4.565  18.435  0.00  0.00    +0.000 A 
ATOM     27  C   UNL     1       1.835   4.193  19.792  0.00  0.00    +0.000 A 
ATOM     28  C   UNL     1       1.587   5.188  20.901  0.00  0.00    +0.000 C 
ENDBRANCH  17  26
ENDBRANCH  16  18
ENDBRANCH   1  16
TORSDOF 4
ENDMDL
MODEL 6
REMARK VINA RESULT:      -7.0      3.050      5.326
REMARK  Name = 
REMARK  6 active torsions:
REMARK  status: ('A' for Active; 'I' for Inactive)
REMARK    1  A    between atoms: C_1  and  C_2
REMARK    2  A    between atoms: C_6  and  N_7
REMARK    3  A    between atoms: C_8  and  C_10
REMARK    4  A    between atoms: C_10  and  N_11
REMARK    5  A    between atoms: C_15  and  C_16
REMARK    6  A    between atoms: C_24  and  C_25
REMARK                            x       y       z     vdW  Elec       q    Type
REMARK                         _______ _______ _______ _____ _____    ______ ____
ROOT
ATOM      1  N   UNL     1       2.814   7.401  18.389  0.00  0.00    +0.000 N 
ATOM      2  C   UNL     1       2.063   7.077  19.513  0.00  0.00    +0.000 A 
ATOM      3  N   UNL     1       2.015   5.932  20.126  0.00  0.00    +0.000 NA
ATOM      4  C   UNL     1       2.786   4.919  19.529  0.00  0.00    +0.000 A 
ATOM      5  C   UNL     1       2.927   3.551  19.952  0.00  0.00    +0.000 A 
ATOM      6  N   UNL     1       3.713   2.807  19.141  0.00  0.00    +0.000 NA
ATOM      7  S   UNL     1       4.300   3.762  17.914  0.00  0.00    +0.000 S 
ATOM      8  C   UNL     1       3.526   5.171  18.410  0.00  0.00    +0.000 A 
ATOM      9  C   UNL     1       3.620   6.446  17.774  0.00  0.00    +0.000 A 
ATOM     10  O   UNL     1       4.347   6.704  16.821  0.00  0.00    +0.000 OA
ENDROOT
BRANCH   5  11
ATOM     11  C   UNL     1       2.341   2.908  21.140  0.00  0.00    +0.000 C 
ATOM     12  N   UNL     1       0.968   2.939  21.191  0.00  0.00    +0.000 N 
ATOM     13  O   UNL     1       2.975   2.353  22.031  0.00  0.00    +0.000 OA
ATOM     14  H   UNL     1       0.451   3.357  20.428  0.00  0.00    +0.000 HD
ATOM     15  H   UNL     1       0.488   2.465  21.941  0.00  0.00    +0.000 HD
ENDBRANCH   5  11
BRANCH   1  16
ATOM     16  C   UNL     1       2.764   8.751  17.818  0.00  0.00    +0.000 C 
BRANCH  16  18
ATOM     17  N   UNL     1       1.574  10.362  19.260  0.00  0.00    +0.000 N 
ATOM     18  C   UNL     1       1.456   9.465  18.197  0.00  0.00    +0.000 C 
ATOM     19  O   UNL     1       0.414   9.153  17.628  0.00  0.00    +0.000 OA
ATOM     20  H   UNL     1       2.487  10.451  19.683  0.00  0.00    +0.000 HD
BRANCH  17  26
ATOM     21  C   UNL     1      -1.627  11.355  23.060  0.00  0.00    +0.000 C 
ATOM     22  C   UNL     1      -1.041  11.617  21.693  0.00  0.00    +0.000 A 
ATOM     23  C   UNL     1      -1.597  12.658  20.940  0.00  0.00    +0.000 A 
ATOM     24  C   UNL     1      -1.097  12.957  19.685  0.00  0.00    +0.000 A 
ATOM     25  C   UNL     1      -0.048  12.205  19.156  0.00  0.00    +0.000 A 
ATOM     26  C   UNL     1       0.523  11.131  19.854  0.00  0.00    +0.000 A 
ATOM     27  C   UNL     1       0.032  10.840  21.158  0.00  0.00    +0.000 A 
ATOM     28  C   UNL     1       0.569   9.724  22.023  0.00  0.00    +0.000 C 
ENDBRANCH  17  26
ENDBRANCH  16  18
ENDBRANCH   1  16
TORSDOF 4
ENDMDL
MODEL 7
REMARK VINA RESULT:      -7.0      3.889      5.808
REMARK  Name = 
REMARK  6 active torsions:
REMARK  status: ('A' for Active; 'I' for Inactive)
REMARK    1  A    between atoms: C_1  and  C_2
REMARK    2  A    between atoms: C_6  and  N_7
REMARK    3  A    between atoms: C_8  and  C_10
REMARK    4  A    between atoms: C_10  and  N_11
REMARK    5  A    between atoms: C_15  and  C_16
REMARK    6  A    between atoms: C_24  and  C_25
REMARK                            x       y       z     vdW  Elec       q    Type
REMARK                         _______ _______ _______ _____ _____    ______ ____
ROOT
ATOM      1  N   UNL     1       1.504   9.123  19.586  0.00  0.00    +0.000 N 
ATOM      2  C   UNL     1       2.177   9.121  18.369  0.00  0.00    +0.000 A 
ATOM      3  N   UNL     1       2.809   8.127  17.820  0.00  0.00    +0.000 NA
ATOM      4  C   UNL     1       2.833   6.953  18.592  0.00  0.00    +0.000 A 
ATOM      5  C   UNL     1       3.460   5.698  18.273  0.00  0.00    +0.000 A 
ATOM      6  N   UNL     1       3.339   4.765  19.244  0.00  0.00    +0.000 NA
ATOM      7  S   UNL     1       2.446   5.388  20.499  0.00  0.00    +0.000 S 
ATOM      8  C   UNL     1       2.208   6.901  19.805  0.00  0.00    +0.000 A 
ATOM      9  C   UNL     1       1.467   7.979  20.378  0.00  0.00    +0.000 A 
ATOM     10  O   UNL     1       0.833   7.916  21.425  0.00  0.00    +0.000 OA
ENDROOT
BRANCH   5  11
ATOM     11  C   UNL     1       4.176   5.334  17.039  0.00  0.00    +0.000 C 
ATOM     12  N   UNL     1       4.876   6.365  16.457  0.00  0.00    +0.000 N 
ATOM     13  O   UNL     1       4.203   4.215  16.539  0.00  0.00    +0.000 OA
ATOM     14  H   UNL     1       4.887   7.273  16.903  0.00  0.00    +0.000 HD
ATOM     15  H   UNL     1       5.444   6.181  15.644  0.00  0.00    +0.000 HD
ENDBRANCH   5  11
BRANCH   1  16
ATOM     16  C   UNL     1       0.830  10.334  20.066  0.00  0.00    +0.000 C 
BRANCH  16  18
ATOM     17  N   UNL     1      -1.224  10.165  18.709  0.00  0.00    +0.000 N 
ATOM     18  C   UNL     1      -0.085  10.925  18.982  0.00  0.00    +0.000 C 
ATOM     19  O   UNL     1       0.267  11.940  18.386  0.00  0.00    +0.000 OA
ATOM     20  H   UNL     1      -1.335   9.307  19.228  0.00  0.00    +0.000 HD
BRANCH  17  26
ATOM     21  C   UNL     1      -5.536  12.384  17.240  0.00  0.00    +0.000 C 
ATOM     22  C   UNL     1      -4.325  11.514  17.005  0.00  0.00    +0.000 A 
ATOM     23  C   UNL     1      -4.198  10.907  15.749  0.00  0.00    +0.000 A 
ATOM     24  C   UNL     1      -3.104  10.109  15.467  0.00  0.00    +0.000 A 
ATOM     25  C   UNL     1      -2.132   9.888  16.441  0.00  0.00    +0.000 A 
ATOM     26  C   UNL     1      -2.226  10.446  17.725  0.00  0.00    +0.000 A 
ATOM     27  C   UNL     1      -3.334  11.293  18.011  0.00  0.00    +0.000 A 
ATOM     28  C   UNL     1      -3.547  11.969  19.344  0.00  0.00    +0.000 C 
ENDBRANCH  17  26
ENDBRANCH  16  18
ENDBRANCH   1  16
TORSDOF 4
ENDMDL
MODEL 8
REMARK VINA RESULT:      -6.9      5.109      9.532
REMARK  Name = 
REMARK  6 active torsions:
REMARK  status: ('A' for Active; 'I' for Inactive)
REMARK    1  A    between atoms: C_1  and  C_2
REMARK    2  A    between atoms: C_6  and  N_7
REMARK    3  A    between atoms: C_8  and  C_10
REMARK    4  A    between atoms: C_10  and  N_11
REMARK    5  A    between atoms: C_15  and  C_16
REMARK    6  A    between atoms: C_24  and  C_25
REMARK                            x       y       z     vdW  Elec       q    Type
REMARK                         _______ _______ _______ _____ _____    ______ ____
ROOT
ATOM      1  N   UNL     1       0.505  10.010  21.887  0.00  0.00    +0.000 N 
ATOM      2  C   UNL     1      -0.203  10.104  23.079  0.00  0.00    +0.000 A 
ATOM      3  N   UNL     1      -1.197  10.898  23.344  0.00  0.00    +0.000 NA
ATOM      4  C   UNL     1      -1.536  11.778  22.302  0.00  0.00    +0.000 A 
ATOM      5  C   UNL     1      -2.567  12.781  22.291  0.00  0.00    +0.000 A 
ATOM      6  N   UNL     1      -2.619  13.498  21.146  0.00  0.00    +0.000 NA
ATOM      7  S   UNL     1      -1.465  12.937  20.091  0.00  0.00    +0.000 S 
ATOM      8  C   UNL     1      -0.861  11.748  21.115  0.00  0.00    +0.000 A 
ATOM      9  C   UNL     1       0.193  10.835  20.809  0.00  0.00    +0.000 A 
ATOM     10  O   UNL     1       0.748  10.742  19.719  0.00  0.00    +0.000 OA
ENDROOT
BRANCH   5  11
ATOM     11  C   UNL     1      -3.545  13.082  23.350  0.00  0.00    +0.000 C 
ATOM     12  N   UNL     1      -4.065  11.977  23.981  0.00  0.00    +0.000 N 
ATOM     13  O   UNL     1      -3.887  14.206  23.700  0.00  0.00    +0.000 OA
ATOM     14  H   UNL     1      -3.741  11.055  23.718  0.00  0.00    +0.000 HD
ATOM     15  H   UNL     1      -4.694  12.101  24.761  0.00  0.00    +0.000 HD
ENDBRANCH   5  11
BRANCH   1  16
ATOM     16  C   UNL     1       1.605   9.050  21.742  0.00  0.00    +0.000 C 
BRANCH  16  18
ATOM     17  N   UNL     1       2.105   6.865  20.711  0.00  0.00    +0.000 N 
ATOM     18  C   UNL     1       1.100   7.710  21.185  0.00  0.00    +0.000 C 
ATOM     19  O   UNL     1      -0.109   7.506  21.112  0.00  0.00    +0.000 OA
ATOM     20  H   UNL     1       3.053   7.209  20.765  0.00  0.00    +0.000 HD
BRANCH  17  26
ATOM     21  C   UNL     1       2.790   3.610  16.889  0.00  0.00    +0.000 C 
ATOM     22  C   UNL     1       2.252   3.994  18.246  0.00  0.00    +0.000 A 
ATOM     23  C   UNL     1       1.493   3.040  18.935  0.00  0.00    +0.000 A 
ATOM     24  C   UNL     1       0.983   3.327  20.189  0.00  0.00    +0.000 A 
ATOM     25  C   UNL     1       1.205   4.579  20.763  0.00  0.00    +0.000 A 
ATOM     26  C   UNL     1       1.930   5.581  20.102  0.00  0.00    +0.000 A 
ATOM     27  C   UNL     1       2.484   5.280  18.825  0.00  0.00    +0.000 A 
ATOM     28  C   UNL     1       3.298   6.261  18.016  0.00  0.00    +0.000 C 
ENDBRANCH  17  26
ENDBRANCH  16  18
ENDBRANCH   1  16
TORSDOF 4
ENDMDL
MODEL 9
REMARK VINA RESULT:      -6.9      0.623      1.600
REMARK  Name = 
REMARK  6 active torsions:
REMARK  status: ('A' for Active; 'I' for Inactive)
REMARK    1  A    between atoms: C_1  and  C_2
REMARK    2  A    between atoms: C_6  and  N_7
REMARK    3  A    between atoms: C_8  and  C_10
REMARK    4  A    between atoms: C_10  and  N_11
REMARK    5  A    between atoms: C_15  and  C_16
REMARK    6  A    between atoms: C_24  and  C_25
REMARK                            x       y       z     vdW  Elec       q    Type
REMARK                         _______ _______ _______ _____ _____    ______ ____
ROOT
ATOM      1  N   UNL     1       4.173   4.542  18.546  0.00  0.00    +0.000 N 
ATOM      2  C   UNL     1       3.876   3.914  17.342  0.00  0.00    +0.000 A 
ATOM      3  N   UNL     1       4.575   3.939  16.246  0.00  0.00    +0.000 NA
ATOM      4  C   UNL     1       5.729   4.740  16.309  0.00  0.00    +0.000 A 
ATOM      5  C   UNL     1       6.691   4.986  15.269  0.00  0.00    +0.000 A 
ATOM      6  N   UNL     1       7.677   5.839  15.628  0.00  0.00    +0.000 NA
ATOM      7  S   UNL     1       7.460   6.298  17.211  0.00  0.00    +0.000 S 
ATOM      8  C   UNL     1       6.061   5.399  17.458  0.00  0.00    +0.000 A 
ATOM      9  C   UNL     1       5.319   5.322  18.676  0.00  0.00    +0.000 A 
ATOM     10  O   UNL     1       5.653   5.841  19.736  0.00  0.00    +0.000 OA
ENDROOT
BRANCH   5  11
ATOM     11  C   UNL     1       6.721   4.414  13.913  0.00  0.00    +0.000 C 
ATOM     12  N   UNL     1       5.969   3.275  13.754  0.00  0.00    +0.000 N 
ATOM     13  O   UNL     1       7.330   4.885  12.958  0.00  0.00    +0.000 OA
ATOM     14  H   UNL     1       5.432   2.920  14.535  0.00  0.00    +0.000 HD
ATOM     15  H   UNL     1       5.887   2.858  12.839  0.00  0.00    +0.000 HD
ENDBRANCH   5  11
BRANCH   1  16
ATOM     16  C   UNL     1       3.278   4.408  19.701  0.00  0.00    +0.000 C 
BRANCH  16  18
ATOM     17  N   UNL     1       2.624   6.757  19.320  0.00  0.00    +0.000 N 
ATOM     18  C   UNL     1       2.180   5.483  19.678  0.00  0.00    +0.000 C 
ATOM     19  O   UNL     1       1.045   5.191  20.045  0.00  0.00    +0.000 OA
ATOM     20  H   UNL     1       3.610   6.858  19.124  0.00  0.00    +0.000 HD
BRANCH  17  26
ATOM     21  C   UNL     1      -0.064  10.451  21.510  0.00  0.00    +0.000 C 
ATOM     22  C   UNL     1       0.525   9.748  20.311  0.00  0.00    +0.000 A 
ATOM     23  C   UNL     1       0.246  10.282  19.047  0.00  0.00    +0.000 A 
ATOM     24  C   UNL     1       0.768   9.692  17.909  0.00  0.00    +0.000 A 
ATOM     25  C   UNL     1       1.557   8.547  18.017  0.00  0.00    +0.000 A 
ATOM     26  C   UNL     1       1.839   7.953  19.256  0.00  0.00    +0.000 A 
ATOM     27  C   UNL     1       1.331   8.574  20.431  0.00  0.00    +0.000 A 
ATOM     28  C   UNL     1       1.575   8.050  21.826  0.00  0.00    +0.000 C 
ENDBRANCH  17  26
ENDBRANCH  16  18
ENDBRANCH   1  16
TORSDOF 4
ENDMDL
