MODEL 1
REMARK VINA RESULT:      -7.9      0.000      0.000
REMARK  Name = 
REMARK  11 active torsions:
REMARK  status: ('A' for Active; 'I' for Inactive)
REMARK    1  A    between atoms: C_1  and  C_2
REMARK    2  A    between atoms: C_2  and  C_3
REMARK    3  A    between atoms: C_2  and  C_4
REMARK    4  A    between atoms: C_4  and  C_5
REMARK    5  A    between atoms: C_5  and  C_6
REMARK    6  A    between atoms: C_6  and  O_8
REMARK    7  A    between atoms: O_8  and  C_9
REMARK    8  A    between atoms: C_9  and  C_10
REMARK    9  A    between atoms: C_15  and  C_16
REMARK   10  A    between atoms: C_16  and  N_17
REMARK   11  A    between atoms: N_20  and  C_21
REMARK                            x       y       z     vdW  Elec       q    Type
REMARK                         _______ _______ _______ _____ _____    ______ ____
ROOT
ATOM      1  C   UNL     1       6.135   5.449  16.029  0.00  0.00    +0.000 C 
ATOM      2  O   UNL     1       6.264   5.326  14.601  0.00  0.00    +0.000 OA
ATOM      3  C   UNL     1       6.309   4.000  14.274  0.00  0.00    +0.000 C 
ATOM      4  O   UNL     1       6.434   3.569  13.142  0.00  0.00    +0.000 OA
ATOM      5  N   UNL     1       6.175   3.240  15.396  0.00  0.00    +0.000 N 
ATOM      6  C   UNL     1       5.782   4.047  16.507  0.00  0.00    +0.000 C 
ATOM      7  H   UNL     1       5.937   2.261  15.306  0.00  0.00    +0.000 HD
ENDROOT
BRANCH   1   8
ATOM      8  C   UNL     1       7.467   5.916  16.630  0.00  0.00    +0.000 C 
BRANCH   8   9
ATOM      9  O   UNL     1       7.538   7.352  16.710  0.00  0.00    +0.000 OA
BRANCH   9  10
ATOM     10  C   UNL     1       7.989   7.854  17.891  0.00  0.00    +0.000 C 
ATOM     11  O   UNL     1       8.359   7.178  18.840  0.00  0.00    +0.000 OA
BRANCH  10  12
ATOM     12  C   UNL     1       8.032   9.361  17.854  0.00  0.00    +0.000 C 
BRANCH  12  13
ATOM     13  C   UNL     1       9.068   9.953  18.810  0.00  0.00    +0.000 C 
BRANCH  13  15
ATOM     14  C   UNL     1       9.387  12.271  19.826  0.00  0.00    +0.000 C 
ATOM     15  C   UNL     1       9.411  11.434  18.547  0.00  0.00    +0.000 C 
ATOM     16  C   UNL     1      10.786  11.542  17.884  0.00  0.00    +0.000 C 
ENDBRANCH  13  15
ENDBRANCH  12  13
ENDBRANCH  10  12
ENDBRANCH   9  10
ENDBRANCH   8   9
ENDBRANCH   1   8
BRANCH   6  17
ATOM     17  C   UNL     1       4.284   3.870  16.846  0.00  0.00    +0.000 C 
BRANCH  17  18
ATOM     18  N   UNL     1       4.002   4.015  18.298  0.00  0.00    +0.000 NA
ATOM     19  C   UNL     1       4.573   5.256  18.881  0.00  0.00    +0.000 C 
ATOM     20  C   UNL     1       4.004   6.539  18.248  0.00  0.00    +0.000 C 
ATOM     21  N   UNL     1       2.550   6.579  18.421  0.00  0.00    +0.000 N 
ATOM     22  C   UNL     1       1.803   5.355  18.065  0.00  0.00    +0.000 C 
ATOM     23  C   UNL     1       2.535   4.068  18.549  0.00  0.00    +0.000 C 
BRANCH  21  24
ATOM     24  C   UNL     1       1.958   7.571  19.183  0.00  0.00    +0.000 A 
ATOM     25  C   UNL     1       1.600   8.801  18.612  0.00  0.00    +0.000 A 
ATOM     26  C   UNL     1       1.072   9.841  19.386  0.00  0.00    +0.000 A 
ATOM     27  C   UNL     1       0.883   9.667  20.753  0.00  0.00    +0.000 A 
ATOM     28  C   UNL     1       1.202   8.452  21.342  0.00  0.00    +0.000 A 
ATOM     29  C   UNL     1       1.731   7.418  20.560  0.00  0.00    +0.000 A 
ENDBRANCH  21  24
ENDBRANCH  17  18
ENDBRANCH   6  17
TORSDOF 9
ENDMDL
MODEL 2
REMARK VINA RESULT:      -7.8      3.609      5.773
REMARK  Name = 
REMARK  11 active torsions:
REMARK  status: ('A' for Active; 'I' for Inactive)
REMARK    1  A    between atoms: C_1  and  C_2
REMARK    2  A    between atoms: C_2  and  C_3
REMARK    3  A    between atoms: C_2  and  C_4
REMARK    4  A    between atoms: C_4  and  C_5
REMARK    5  A    between atoms: C_5  and  C_6
REMARK    6  A    between atoms: C_6  and  O_8
REMARK    7  A    between atoms: O_8  and  C_9
REMARK    8  A    between atoms: C_9  and  C_10
REMARK    9  A    between atoms: C_15  and  C_16
REMARK   10  A    between atoms: C_16  and  N_17
REMARK   11  A    between atoms: N_20  and  C_21
REMARK                            x       y       z     vdW  Elec       q    Type
REMARK                         _______ _______ _______ _____ _____    ______ ____
ROOT
ATOM      1  C   UNL     1       3.974   4.105  17.704  0.00  0.00    +0.000 C 
ATOM      2  O   UNL     1       3.877   2.863  18.426  0.00  0.00    +0.000 OA
ATOM      3  C   UNL     1       4.769   2.883  19.461  0.00  0.00    +0.000 C 
ATOM      4  O   UNL     1       4.940   1.969  20.247  0.00  0.00    +0.000 OA
ATOM      5  N   UNL     1       5.418   4.080  19.492  0.00  0.00    +0.000 N 
ATOM      6  C   UNL     1       4.796   5.013  18.608  0.00  0.00    +0.000 C 
ATOM      7  H   UNL     1       5.918   4.352  20.329  0.00  0.00    +0.000 HD
ENDROOT
BRANCH   1   8
ATOM      8  C   UNL     1       4.686   3.870  16.366  0.00  0.00    +0.000 C 
BRANCH   8   9
ATOM      9  O   UNL     1       5.334   5.067  15.894  0.00  0.00    +0.000 OA
BRANCH   9  10
ATOM     10  C   UNL     1       6.408   4.874  15.082  0.00  0.00    +0.000 C 
ATOM     11  O   UNL     1       7.413   5.570  15.078  0.00  0.00    +0.000 OA
BRANCH  10  12
ATOM     12  C   UNL     1       6.222   3.647  14.225  0.00  0.00    +0.000 C 
BRANCH  12  13
ATOM     13  C   UNL     1       5.814   3.975  12.789  0.00  0.00    +0.000 C 
BRANCH  13  15
ATOM     14  C   UNL     1       4.062   3.395  11.029  0.00  0.00    +0.000 C 
ATOM     15  C   UNL     1       5.043   2.851  12.069  0.00  0.00    +0.000 C 
ATOM     16  C   UNL     1       6.026   1.890  11.397  0.00  0.00    +0.000 C 
ENDBRANCH  13  15
ENDBRANCH  12  13
ENDBRANCH  10  12
ENDBRANCH   9  10
ENDBRANCH   8   9
ENDBRANCH   1   8
BRANCH   6  17
ATOM     17  C   UNL     1       3.946   6.054  19.374  0.00  0.00    +0.000 C 
BRANCH  17  18
ATOM     18  N   UNL     1       2.509   6.009  19.002  0.00  0.00    +0.000 NA
ATOM     19  C   UNL     1       1.605   6.368  20.126  0.00  0.00    +0.000 C 
ATOM     20  C   UNL     1       1.824   7.801  20.644  0.00  0.00    +0.000 C 
ATOM     21  N   UNL     1       1.611   8.763  19.558  0.00  0.00    +0.000 N 
ATOM     22  C   UNL     1       2.287   8.480  18.277  0.00  0.00    +0.000 C 
ATOM     23  C   UNL     1       2.216   6.970  17.903  0.00  0.00    +0.000 C 
BRANCH  21  24
ATOM     24  C   UNL     1       0.578   9.682  19.626  0.00  0.00    +0.000 A 
ATOM     25  C   UNL     1      -0.082  10.111  18.465  0.00  0.00    +0.000 A 
ATOM     26  C   UNL     1      -1.075  11.096  18.510  0.00  0.00    +0.000 A 
ATOM     27  C   UNL     1      -1.437  11.668  19.725  0.00  0.00    +0.000 A 
ATOM     28  C   UNL     1      -0.821  11.245  20.894  0.00  0.00    +0.000 A 
ATOM     29  C   UNL     1       0.173  10.261  20.839  0.00  0.00    +0.000 A 
ENDBRANCH  21  24
ENDBRANCH  17  18
ENDBRANCH   6  17
TORSDOF 9
ENDMDL
MODEL 3
REMARK VINA RESULT:      -7.6      3.669      5.803
REMARK  Name = 
REMARK  11 active torsions:
REMARK  status: ('A' for Active; 'I' for Inactive)
REMARK    1  A    between atoms: C_1  and  C_2
REMARK    2  A    between atoms: C_2  and  C_3
REMARK    3  A    between atoms: C_2  and  C_4
REMARK    4  A    between atoms: C_4  and  C_5
REMARK    5  A    between atoms: C_5  and  C_6
REMARK    6  A    between atoms: C_6  and  O_8
REMARK    7  A    between atoms: O_8  and  C_9
REMARK    8  A    between atoms: C_9  and  C_10
REMARK    9  A    between atoms: C_15  and  C_16
REMARK   10  A    between atoms: C_16  and  N_17
REMARK   11  A    between atoms: N_20  and  C_21
REMARK                            x       y       z     vdW  Elec       q    Type
REMARK                         _______ _______ _______ _____ _____    ______ ____
ROOT
ATOM      1  C   UNL     1       4.242   4.283  17.372  0.00  0.00    +0.000 C 
ATOM      2  O   UNL     1       3.299   3.196  17.412  0.00  0.00    +0.000 OA
ATOM      3  C   UNL     1       3.304   2.653  18.667  0.00  0.00    +0.000 C 
ATOM      4  O   UNL     1       2.626   1.704  19.014  0.00  0.00    +0.000 OA
ATOM      5  N   UNL     1       4.162   3.344  19.468  0.00  0.00    +0.000 N 
ATOM      6  C   UNL     1       4.586   4.549  18.831  0.00  0.00    +0.000 C 
ATOM      7  H   UNL     1       4.098   3.236  20.472  0.00  0.00    +0.000 HD
ENDROOT
BRANCH   1   8
ATOM      8  C   UNL     1       5.486   3.859  16.582  0.00  0.00    +0.000 C 
BRANCH   8   9
ATOM      9  O   UNL     1       6.204   5.000  16.073  0.00  0.00    +0.000 OA
BRANCH   9  10
ATOM     10  C   UNL     1       6.765   4.841  14.844  0.00  0.00    +0.000 C 
ATOM     11  O   UNL     1       7.597   5.592  14.356  0.00  0.00    +0.000 OA
BRANCH  10  12
ATOM     12  C   UNL     1       6.271   3.578  14.185  0.00  0.00    +0.000 C 
BRANCH  12  13
ATOM     13  C   UNL     1       6.257   3.666  12.659  0.00  0.00    +0.000 C 
BRANCH  13  15
ATOM     14  C   UNL     1       4.263   3.212  11.136  0.00  0.00    +0.000 C 
ATOM     15  C   UNL     1       5.392   2.596  11.963  0.00  0.00    +0.000 C 
ATOM     16  C   UNL     1       6.268   1.717  11.067  0.00  0.00    +0.000 C 
ENDBRANCH  13  15
ENDBRANCH  12  13
ENDBRANCH  10  12
ENDBRANCH   9  10
ENDBRANCH   8   9
ENDBRANCH   1   8
BRANCH   6  17
ATOM     17  C   UNL     1       3.875   5.792  19.417  0.00  0.00    +0.000 C 
BRANCH  17  18
ATOM     18  N   UNL     1       2.407   5.774  19.191  0.00  0.00    +0.000 NA
ATOM     19  C   UNL     1       1.635   6.334  20.331  0.00  0.00    +0.000 C 
ATOM     20  C   UNL     1       1.963   7.810  20.616  0.00  0.00    +0.000 C 
ATOM     21  N   UNL     1       1.682   8.623  19.429  0.00  0.00    +0.000 N 
ATOM     22  C   UNL     1       2.215   8.130  18.143  0.00  0.00    +0.000 C 
ATOM     23  C   UNL     1       2.046   6.588  17.998  0.00  0.00    +0.000 C 
BRANCH  21  24
ATOM     24  C   UNL     1       0.700   9.598  19.460  0.00  0.00    +0.000 A 
ATOM     25  C   UNL     1       0.365  10.244  20.659  0.00  0.00    +0.000 A 
ATOM     26  C   UNL     1      -0.677  11.176  20.721  0.00  0.00    +0.000 A 
ATOM     27  C   UNL     1      -1.403  11.489  19.577  0.00  0.00    +0.000 A 
ATOM     28  C   UNL     1      -1.076  10.887  18.369  0.00  0.00    +0.000 A 
ATOM     29  C   UNL     1      -0.034   9.954  18.318  0.00  0.00    +0.000 A 
ENDBRANCH  21  24
ENDBRANCH  17  18
ENDBRANCH   6  17
TORSDOF 9
ENDMDL
MODEL 4
REMARK VINA RESULT:      -7.5      3.048      5.796
REMARK  Name = 
REMARK  11 active torsions:
REMARK  status: ('A' for Active; 'I' for Inactive)
REMARK    1  A    between atoms: C_1  and  C_2
REMARK    2  A    between atoms: C_2  and  C_3
REMARK    3  A    between atoms: C_2  and  C_4
REMARK    4  A    between atoms: C_4  and  C_5
REMARK    5  A    between atoms: C_5  and  C_6
REMARK    6  A    between atoms: C_6  and  O_8
REMARK    7  A    between atoms: O_8  and  C_9
REMARK    8  A    between atoms: C_9  and  C_10
REMARK    9  A    between atoms: C_15  and  C_16
REMARK   10  A    between atoms: C_16  and  N_17
REMARK   11  A    between atoms: N_20  and  C_21
REMARK                            x       y       z     vdW  Elec       q    Type
REMARK                         _______ _______ _______ _____ _____    ______ ____
ROOT
ATOM      1  C   UNL     1       5.217   4.107  18.509  0.00  0.00    +0.000 C 
ATOM      2  O   UNL     1       6.589   4.269  18.914  0.00  0.00    +0.000 OA
ATOM      3  C   UNL     1       6.926   5.590  18.812  0.00  0.00    +0.000 C 
ATOM      4  O   UNL     1       8.026   6.045  19.066  0.00  0.00    +0.000 OA
ATOM      5  N   UNL     1       5.847   6.315  18.405  0.00  0.00    +0.000 N 
ATOM      6  C   UNL     1       4.660   5.523  18.457  0.00  0.00    +0.000 C 
ATOM      7  H   UNL     1       5.853   7.320  18.522  0.00  0.00    +0.000 HD
ENDROOT
BRANCH   1   8
ATOM      8  C   UNL     1       5.161   3.443  17.127  0.00  0.00    +0.000 C 
BRANCH   8   9
ATOM      9  O   UNL     1       5.021   4.419  16.077  0.00  0.00    +0.000 OA
BRANCH   9  10
ATOM     10  C   UNL     1       6.026   4.446  15.161  0.00  0.00    +0.000 C 
ATOM     11  O   UNL     1       7.214   4.548  15.432  0.00  0.00    +0.000 OA
BRANCH  10  12
ATOM     12  C   UNL     1       5.487   4.272  13.763  0.00  0.00    +0.000 C 
BRANCH  12  13
ATOM     13  C   UNL     1       6.495   3.631  12.809  0.00  0.00    +0.000 C 
BRANCH  13  15
ATOM     14  C   UNL     1       6.178   1.511  11.427  0.00  0.00    +0.000 C 
ATOM     15  C   UNL     1       5.872   3.004  11.545  0.00  0.00    +0.000 C 
ATOM     16  C   UNL     1       4.357   3.222  11.545  0.00  0.00    +0.000 C 
ENDBRANCH  13  15
ENDBRANCH  12  13
ENDBRANCH  10  12
ENDBRANCH   9  10
ENDBRANCH   8   9
ENDBRANCH   1   8
BRANCH   6  17
ATOM     17  C   UNL     1       3.779   5.884  19.676  0.00  0.00    +0.000 C 
BRANCH  17  18
ATOM     18  N   UNL     1       2.327   5.861  19.363  0.00  0.00    +0.000 NA
ATOM     19  C   UNL     1       1.487   6.422  20.452  0.00  0.00    +0.000 C 
ATOM     20  C   UNL     1       1.792   7.901  20.750  0.00  0.00    +0.000 C 
ATOM     21  N   UNL     1       1.580   8.708  19.545  0.00  0.00    +0.000 N 
ATOM     22  C   UNL     1       2.190   8.212  18.296  0.00  0.00    +0.000 C 
ATOM     23  C   UNL     1       2.035   6.669  18.147  0.00  0.00    +0.000 C 
BRANCH  21  24
ATOM     24  C   UNL     1       0.595   9.680  19.514  0.00  0.00    +0.000 A 
ATOM     25  C   UNL     1       0.213  10.356  20.682  0.00  0.00    +0.000 A 
ATOM     26  C   UNL     1      -0.833  11.285  20.680  0.00  0.00    +0.000 A 
ATOM     27  C   UNL     1      -1.516  11.566  19.501  0.00  0.00    +0.000 A 
ATOM     28  C   UNL     1      -1.143  10.934  18.323  0.00  0.00    +0.000 A 
ATOM     29  C   UNL     1      -0.096  10.003  18.336  0.00  0.00    +0.000 A 
ENDBRANCH  21  24
ENDBRANCH  17  18
ENDBRANCH   6  17
TORSDOF 9
ENDMDL
MODEL 5
REMARK VINA RESULT:      -7.4      2.463      5.686
REMARK  Name = 
REMARK  11 active torsions:
REMARK  status: ('A' for Active; 'I' for Inactive)
REMARK    1  A    between atoms: C_1  and  C_2
REMARK    2  A    between atoms: C_2  and  C_3
REMARK    3  A    between atoms: C_2  and  C_4
REMARK    4  A    between atoms: C_4  and  C_5
REMARK    5  A    between atoms: C_5  and  C_6
REMARK    6  A    between atoms: C_6  and  O_8
REMARK    7  A    between atoms: O_8  and  C_9
REMARK    8  A    between atoms: C_9  and  C_10
REMARK    9  A    between atoms: C_15  and  C_16
REMARK   10  A    between atoms: C_16  and  N_17
REMARK   11  A    between atoms: N_20  and  C_21
REMARK                            x       y       z     vdW  Elec       q    Type
REMARK                         _______ _______ _______ _____ _____    ______ ____
ROOT
ATOM      1  C   UNL     1       6.882   5.278  18.182  0.00  0.00    +0.000 C 
ATOM      2  O   UNL     1       7.775   6.407  18.179  0.00  0.00    +0.000 OA
ATOM      3  C   UNL     1       7.156   7.459  17.565  0.00  0.00    +0.000 C 
ATOM      4  O   UNL     1       7.660   8.553  17.388  0.00  0.00    +0.000 OA
ATOM      5  N   UNL     1       5.892   7.105  17.200  0.00  0.00    +0.000 N 
ATOM      6  C   UNL     1       5.529   5.856  17.789  0.00  0.00    +0.000 C 
ATOM      7  H   UNL     1       5.223   7.828  16.967  0.00  0.00    +0.000 HD
ENDROOT
BRANCH   1   8
ATOM      8  C   UNL     1       7.356   4.241  17.157  0.00  0.00    +0.000 C 
BRANCH   8   9
ATOM      9  O   UNL     1       6.389   4.054  16.106  0.00  0.00    +0.000 OA
BRANCH   9  10
ATOM     10  C   UNL     1       6.757   4.513  14.879  0.00  0.00    +0.000 C 
ATOM     11  O   UNL     1       7.353   5.560  14.676  0.00  0.00    +0.000 OA
BRANCH  10  12
ATOM     12  C   UNL     1       6.388   3.524  13.802  0.00  0.00    +0.000 C 
BRANCH  12  13
ATOM     13  C   UNL     1       5.195   3.975  12.959  0.00  0.00    +0.000 C 
BRANCH  13  15
ATOM     14  C   UNL     1       5.783   1.962  11.508  0.00  0.00    +0.000 C 
ATOM     15  C   UNL     1       5.127   3.342  11.555  0.00  0.00    +0.000 C 
ATOM     16  C   UNL     1       3.669   3.236  11.100  0.00  0.00    +0.000 C 
ENDBRANCH  13  15
ENDBRANCH  12  13
ENDBRANCH  10  12
ENDBRANCH   9  10
ENDBRANCH   8   9
ENDBRANCH   1   8
BRANCH   6  17
ATOM     17  C   UNL     1       4.565   6.040  18.984  0.00  0.00    +0.000 C 
BRANCH  17  18
ATOM     18  N   UNL     1       3.140   5.856  18.607  0.00  0.00    +0.000 NA
ATOM     19  C   UNL     1       2.200   6.157  19.718  0.00  0.00    +0.000 C 
ATOM     20  C   UNL     1       2.284   7.616  20.202  0.00  0.00    +0.000 C 
ATOM     21  N   UNL     1       1.992   8.528  19.093  0.00  0.00    +0.000 N 
ATOM     22  C   UNL     1       2.699   8.279  17.821  0.00  0.00    +0.000 C 
ATOM     23  C   UNL     1       2.769   6.760  17.484  0.00  0.00    +0.000 C 
BRANCH  21  24
ATOM     24  C   UNL     1       0.880   9.351  19.134  0.00  0.00    +0.000 A 
ATOM     25  C   UNL     1       0.438   9.906  20.344  0.00  0.00    +0.000 A 
ATOM     26  C   UNL     1      -0.728  10.677  20.414  0.00  0.00    +0.000 A 
ATOM     27  C   UNL     1      -1.474  10.918  19.265  0.00  0.00    +0.000 A 
ATOM     28  C   UNL     1      -1.047  10.407  18.048  0.00  0.00    +0.000 A 
ATOM     29  C   UNL     1       0.119   9.635  17.989  0.00  0.00    +0.000 A 
ENDBRANCH  21  24
ENDBRANCH  17  18
ENDBRANCH   6  17
TORSDOF 9
ENDMDL
MODEL 6
REMARK VINA RESULT:      -7.4      3.127      5.581
REMARK  Name = 
REMARK  11 active torsions:
REMARK  status: ('A' for Active; 'I' for Inactive)
REMARK    1  A    between atoms: C_1  and  C_2
REMARK    2  A    between atoms: C_2  and  C_3
REMARK    3  A    between atoms: C_2  and  C_4
REMARK    4  A    between atoms: C_4  and  C_5
REMARK    5  A    between atoms: C_5  and  C_6
REMARK    6  A    between atoms: C_6  and  O_8
REMARK    7  A    between atoms: O_8  and  C_9
REMARK    8  A    between atoms: C_9  and  C_10
REMARK    9  A    between atoms: C_15  and  C_16
REMARK   10  A    between atoms: C_16  and  N_17
REMARK   11  A    between atoms: N_20  and  C_21
REMARK                            x       y       z     vdW  Elec       q    Type
REMARK                         _______ _______ _______ _____ _____    ______ ____
ROOT
ATOM      1  C   UNL     1       5.862   4.701  17.092  0.00  0.00    +0.000 C 
ATOM      2  O   UNL     1       7.188   4.570  17.635  0.00  0.00    +0.000 OA
ATOM      3  C   UNL     1       7.205   5.106  18.893  0.00  0.00    +0.000 C 
ATOM      4  O   UNL     1       8.188   5.165  19.608  0.00  0.00    +0.000 OA
ATOM      5  N   UNL     1       5.960   5.545  19.227  0.00  0.00    +0.000 N 
ATOM      6  C   UNL     1       4.993   5.086  18.281  0.00  0.00    +0.000 C 
ATOM      7  H   UNL     1       5.745   5.734  20.198  0.00  0.00    +0.000 HD
ENDROOT
BRANCH   1   8
ATOM      8  C   UNL     1       5.849   5.800  16.022  0.00  0.00    +0.000 C 
BRANCH   8   9
ATOM      9  O   UNL     1       5.746   5.248  14.696  0.00  0.00    +0.000 OA
BRANCH   9  10
ATOM     10  C   UNL     1       6.926   4.938  14.094  0.00  0.00    +0.000 C 
ATOM     11  O   UNL     1       8.000   5.461  14.355  0.00  0.00    +0.000 OA
BRANCH  10  12
ATOM     12  C   UNL     1       6.747   3.817  13.102  0.00  0.00    +0.000 C 
BRANCH  12  13
ATOM     13  C   UNL     1       5.285   3.578  12.726  0.00  0.00    +0.000 C 
BRANCH  13  15
ATOM     14  C   UNL     1       5.644   1.568  11.197  0.00  0.00    +0.000 C 
ATOM     15  C   UNL     1       5.073   2.982  11.320  0.00  0.00    +0.000 C 
ATOM     16  C   UNL     1       3.582   2.968  10.976  0.00  0.00    +0.000 C 
ENDBRANCH  13  15
ENDBRANCH  12  13
ENDBRANCH  10  12
ENDBRANCH   9  10
ENDBRANCH   8   9
ENDBRANCH   1   8
BRANCH   6  17
ATOM     17  C   UNL     1       4.154   3.913  18.838  0.00  0.00    +0.000 C 
BRANCH  17  18
ATOM     18  N   UNL     1       2.691   4.141  18.712  0.00  0.00    +0.000 NA
ATOM     19  C   UNL     1       2.035   4.448  20.009  0.00  0.00    +0.000 C 
ATOM     20  C   UNL     1       2.570   5.733  20.668  0.00  0.00    +0.000 C 
ATOM     21  N   UNL     1       2.370   6.875  19.772  0.00  0.00    +0.000 N 
ATOM     22  C   UNL     1       2.794   6.701  18.368  0.00  0.00    +0.000 C 
ATOM     23  C   UNL     1       2.411   5.297  17.815  0.00  0.00    +0.000 C 
BRANCH  21  24
ATOM     24  C   UNL     1       1.531   7.915  20.134  0.00  0.00    +0.000 A 
ATOM     25  C   UNL     1       1.378   9.038  19.308  0.00  0.00    +0.000 A 
ATOM     26  C   UNL     1       0.594  10.130  19.696  0.00  0.00    +0.000 A 
ATOM     27  C   UNL     1      -0.063  10.118  20.922  0.00  0.00    +0.000 A 
ATOM     28  C   UNL     1       0.047   9.009  21.749  0.00  0.00    +0.000 A 
ATOM     29  C   UNL     1       0.835   7.922  21.353  0.00  0.00    +0.000 A 
ENDBRANCH  21  24
ENDBRANCH  17  18
ENDBRANCH   6  17
TORSDOF 9
ENDMDL
MODEL 7
REMARK VINA RESULT:      -7.4      3.079      6.042
REMARK  Name = 
REMARK  11 active torsions:
REMARK  status: ('A' for Active; 'I' for Inactive)
REMARK    1  A    between atoms: C_1  and  C_2
REMARK    2  A    between atoms: C_2  and  C_3
REMARK    3  A    between atoms: C_2  and  C_4
REMARK    4  A    between atoms: C_4  and  C_5
REMARK    5  A    between atoms: C_5  and  C_6
REMARK    6  A    between atoms: C_6  and  O_8
REMARK    7  A    between atoms: O_8  and  C_9
REMARK    8  A    between atoms: C_9  and  C_10
REMARK    9  A    between atoms: C_15  and  C_16
REMARK   10  A    between atoms: C_16  and  N_17
REMARK   11  A    between atoms: N_20  and  C_21
REMARK                            x       y       z     vdW  Elec       q    Type
REMARK                         _______ _______ _______ _____ _____    ______ ____
ROOT
ATOM      1  C   UNL     1       5.091   5.722  18.369  0.00  0.00    +0.000 C 
ATOM      2  O   UNL     1       6.483   6.036  18.176  0.00  0.00    +0.000 OA
ATOM      3  C   UNL     1       6.646   6.575  16.931  0.00  0.00    +0.000 C 
ATOM      4  O   UNL     1       7.713   6.926  16.462  0.00  0.00    +0.000 OA
ATOM      5  N   UNL     1       5.440   6.674  16.306  0.00  0.00    +0.000 N 
ATOM      6  C   UNL     1       4.375   6.428  17.225  0.00  0.00    +0.000 C 
ATOM      7  H   UNL     1       5.350   7.273  15.495  0.00  0.00    +0.000 HD
ENDROOT
BRANCH   1   8
ATOM      8  C   UNL     1       4.888   4.204  18.292  0.00  0.00    +0.000 C 
BRANCH   8   9
ATOM      9  O   UNL     1       5.119   3.574  19.566  0.00  0.00    +0.000 OA
BRANCH   9  10
ATOM     10  C   UNL     1       4.643   2.305  19.690  0.00  0.00    +0.000 C 
ATOM     11  O   UNL     1       5.055   1.481  20.493  0.00  0.00    +0.000 OA
BRANCH  10  12
ATOM     12  C   UNL     1       3.492   2.067  18.745  0.00  0.00    +0.000 C 
BRANCH  12  13
ATOM     13  C   UNL     1       2.142   1.982  19.456  0.00  0.00    +0.000 C 
BRANCH  13  15
ATOM     14  C   UNL     1       0.660   3.952  20.112  0.00  0.00    +0.000 C 
ATOM     15  C   UNL     1       1.883   3.108  20.477  0.00  0.00    +0.000 C 
ATOM     16  C   UNL     1       1.702   2.515  21.876  0.00  0.00    +0.000 C 
ENDBRANCH  13  15
ENDBRANCH  12  13
ENDBRANCH  10  12
ENDBRANCH   9  10
ENDBRANCH   8   9
ENDBRANCH   1   8
BRANCH   6  17
ATOM     17  C   UNL     1       3.668   7.735  17.652  0.00  0.00    +0.000 C 
BRANCH  17  18
ATOM     18  N   UNL     1       2.197   7.575  17.790  0.00  0.00    +0.000 NA
ATOM     19  C   UNL     1       1.791   7.045  19.117  0.00  0.00    +0.000 C 
ATOM     20  C   UNL     1       2.189   7.966  20.284  0.00  0.00    +0.000 C 
ATOM     21  N   UNL     1       1.576   9.285  20.111  0.00  0.00    +0.000 N 
ATOM     22  C   UNL     1       1.711   9.913  18.781  0.00  0.00    +0.000 C 
ATOM     23  C   UNL     1       1.505   8.884  17.630  0.00  0.00    +0.000 C 
BRANCH  21  24
ATOM     24  C   UNL     1       0.646   9.755  21.022  0.00  0.00    +0.000 A 
ATOM     25  C   UNL     1      -0.119  10.898  20.748  0.00  0.00    +0.000 A 
ATOM     26  C   UNL     1      -1.007  11.427  21.691  0.00  0.00    +0.000 A 
ATOM     27  C   UNL     1      -1.155  10.816  22.931  0.00  0.00    +0.000 A 
ATOM     28  C   UNL     1      -0.433   9.667  23.222  0.00  0.00    +0.000 A 
ATOM     29  C   UNL     1       0.455   9.146  22.273  0.00  0.00    +0.000 A 
ENDBRANCH  21  24
ENDBRANCH  17  18
ENDBRANCH   6  17
TORSDOF 9
ENDMDL
MODEL 8
REMARK VINA RESULT:      -7.4      3.589      5.553
REMARK  Name = 
REMARK  11 active torsions:
REMARK  status: ('A' for Active; 'I' for Inactive)
REMARK    1  A    between atoms: C_1  and  C_2
REMARK    2  A    between atoms: C_2  and  C_3
REMARK    3  A    between atoms: C_2  and  C_4
REMARK    4  A    between atoms: C_4  and  C_5
REMARK    5  A    between atoms: C_5  and  C_6
REMARK    6  A    between atoms: C_6  and  O_8
REMARK    7  A    between atoms: O_8  and  C_9
REMARK    8  A    between atoms: C_9  and  C_10
REMARK    9  A    between atoms: C_15  and  C_16
REMARK   10  A    between atoms: C_16  and  N_17
REMARK   11  A    between atoms: N_20  and  C_21
REMARK                            x       y       z     vdW  Elec       q    Type
REMARK                         _______ _______ _______ _____ _____    ______ ____
ROOT
ATOM      1  C   UNL     1       4.937   4.405  17.550  0.00  0.00    +0.000 C 
ATOM      2  O   UNL     1       4.018   3.339  17.250  0.00  0.00    +0.000 OA
ATOM      3  C   UNL     1       3.731   2.665  18.404  0.00  0.00    +0.000 C 
ATOM      4  O   UNL     1       2.996   1.697  18.478  0.00  0.00    +0.000 OA
ATOM      5  N   UNL     1       4.372   3.249  19.455  0.00  0.00    +0.000 N 
ATOM      6  C   UNL     1       4.926   4.508  19.069  0.00  0.00    +0.000 C 
ATOM      7  H   UNL     1       4.073   3.037  20.398  0.00  0.00    +0.000 HD
ENDROOT
BRANCH   1   8
ATOM      8  C   UNL     1       6.335   4.044  17.033  0.00  0.00    +0.000 C 
BRANCH   8   9
ATOM      9  O   UNL     1       6.883   5.092  16.212  0.00  0.00    +0.000 OA
BRANCH   9  10
ATOM     10  C   UNL     1       6.243   5.311  15.032  0.00  0.00    +0.000 C 
ATOM     11  O   UNL     1       5.647   6.338  14.742  0.00  0.00    +0.000 OA
BRANCH  10  12
ATOM     12  C   UNL     1       6.417   4.139  14.099  0.00  0.00    +0.000 C 
BRANCH  12  13
ATOM     13  C   UNL     1       5.142   3.790  13.332  0.00  0.00    +0.000 C 
BRANCH  13  15
ATOM     14  C   UNL     1       6.168   2.067  11.756  0.00  0.00    +0.000 C 
ATOM     15  C   UNL     1       5.370   3.367  11.867  0.00  0.00    +0.000 C 
ATOM     16  C   UNL     1       4.026   3.210  11.152  0.00  0.00    +0.000 C 
ENDBRANCH  13  15
ENDBRANCH  12  13
ENDBRANCH  10  12
ENDBRANCH   9  10
ENDBRANCH   8   9
ENDBRANCH   1   8
BRANCH   6  17
ATOM     17  C   UNL     1       4.090   5.694  19.602  0.00  0.00    +0.000 C 
BRANCH  17  18
ATOM     18  N   UNL     1       2.662   5.618  19.199  0.00  0.00    +0.000 NA
ATOM     19  C   UNL     1       1.730   6.057  20.270  0.00  0.00    +0.000 C 
ATOM     20  C   UNL     1       1.935   7.525  20.685  0.00  0.00    +0.000 C 
ATOM     21  N   UNL     1       1.749   8.403  19.527  0.00  0.00    +0.000 N 
ATOM     22  C   UNL     1       2.457   8.028  18.287  0.00  0.00    +0.000 C 
ATOM     23  C   UNL     1       2.397   6.494  18.025  0.00  0.00    +0.000 C 
BRANCH  21  24
ATOM     24  C   UNL     1       0.715   9.323  19.500  0.00  0.00    +0.000 A 
ATOM     25  C   UNL     1       0.099   9.680  18.291  0.00  0.00    +0.000 A 
ATOM     26  C   UNL     1      -0.895  10.663  18.239  0.00  0.00    +0.000 A 
ATOM     27  C   UNL     1      -1.302  11.307  19.403  0.00  0.00    +0.000 A 
ATOM     28  C   UNL     1      -0.731  10.956  20.618  0.00  0.00    +0.000 A 
ATOM     29  C   UNL     1       0.264   9.973  20.660  0.00  0.00    +0.000 A 
ENDBRANCH  21  24
ENDBRANCH  17  18
ENDBRANCH   6  17
TORSDOF 9
ENDMDL
MODEL 9
REMARK VINA RESULT:      -7.4      2.756      5.665
REMARK  Name = 
REMARK  11 active torsions:
REMARK  status: ('A' for Active; 'I' for Inactive)
REMARK    1  A    between atoms: C_1  and  C_2
REMARK    2  A    between atoms: C_2  and  C_3
REMARK    3  A    between atoms: C_2  and  C_4
REMARK    4  A    between atoms: C_4  and  C_5
REMARK    5  A    between atoms: C_5  and  C_6
REMARK    6  A    between atoms: C_6  and  O_8
REMARK    7  A    between atoms: O_8  and  C_9
REMARK    8  A    between atoms: C_9  and  C_10
REMARK    9  A    between atoms: C_15  and  C_16
REMARK   10  A    between atoms: C_16  and  N_17
REMARK   11  A    between atoms: N_20  and  C_21
REMARK                            x       y       z     vdW  Elec       q    Type
REMARK                         _______ _______ _______ _____ _____    ______ ____
ROOT
ATOM      1  C   UNL     1       6.236   4.255  17.214  0.00  0.00    +0.000 C 
ATOM      2  O   UNL     1       7.456   4.774  17.775  0.00  0.00    +0.000 OA
ATOM      3  C   UNL     1       7.269   6.088  18.100  0.00  0.00    +0.000 C 
ATOM      4  O   UNL     1       8.122   6.812  18.578  0.00  0.00    +0.000 OA
ATOM      5  N   UNL     1       5.986   6.456  17.826  0.00  0.00    +0.000 N 
ATOM      6  C   UNL     1       5.186   5.310  17.531  0.00  0.00    +0.000 C 
ATOM      7  H   UNL     1       5.616   7.305  18.234  0.00  0.00    +0.000 HD
ENDROOT
BRANCH   1   8
ATOM      8  C   UNL     1       6.398   4.077  15.699  0.00  0.00    +0.000 C 
BRANCH   8   9
ATOM      9  O   UNL     1       7.430   4.933  15.173  0.00  0.00    +0.000 OA
BRANCH   9  10
ATOM     10  C   UNL     1       7.468   5.044  13.818  0.00  0.00    +0.000 C 
ATOM     11  O   UNL     1       8.281   5.712  13.196  0.00  0.00    +0.000 OA
BRANCH  10  12
ATOM     12  C   UNL     1       6.410   4.181  13.176  0.00  0.00    +0.000 C 
BRANCH  12  13
ATOM     13  C   UNL     1       6.965   3.267  12.085  0.00  0.00    +0.000 C 
BRANCH  13  15
ATOM     14  C   UNL     1       5.926   1.090  11.255  0.00  0.00    +0.000 C 
ATOM     15  C   UNL     1       5.893   2.618  11.186  0.00  0.00    +0.000 C 
ATOM     16  C   UNL     1       4.504   3.122  11.582  0.00  0.00    +0.000 C 
ENDBRANCH  13  15
ENDBRANCH  12  13
ENDBRANCH  10  12
ENDBRANCH   9  10
ENDBRANCH   8   9
ENDBRANCH   1   8
BRANCH   6  17
ATOM     17  C   UNL     1       4.265   4.930  18.714  0.00  0.00    +0.000 C 
BRANCH  17  18
ATOM     18  N   UNL     1       2.825   5.139  18.413  0.00  0.00    +0.000 NA
ATOM     19  C   UNL     1       1.975   5.175  19.630  0.00  0.00    +0.000 C 
ATOM     20  C   UNL     1       2.338   6.324  20.588  0.00  0.00    +0.000 C 
ATOM     21  N   UNL     1       2.206   7.610  19.898  0.00  0.00    +0.000 N 
ATOM     22  C   UNL     1       2.836   7.720  18.568  0.00  0.00    +0.000 C 
ATOM     23  C   UNL     1       2.614   6.436  17.713  0.00  0.00    +0.000 C 
BRANCH  21  24
ATOM     24  C   UNL     1       1.269   8.539  20.316  0.00  0.00    +0.000 A 
ATOM     25  C   UNL     1       0.696   8.461  21.594  0.00  0.00    +0.000 A 
ATOM     26  C   UNL     1      -0.308   9.346  22.001  0.00  0.00    +0.000 A 
ATOM     27  C   UNL     1      -0.755  10.341  21.137  0.00  0.00    +0.000 A 
ATOM     28  C   UNL     1      -0.187  10.462  19.877  0.00  0.00    +0.000 A 
ATOM     29  C   UNL     1       0.815   9.569  19.477  0.00  0.00    +0.000 A 
ENDBRANCH  21  24
ENDBRANCH  17  18
ENDBRANCH   6  17
TORSDOF 9
ENDMDL
