MODEL 1
REMARK VINA RESULT:      -7.2      0.000      0.000
REMARK  Name = 
REMARK  7 active torsions:
REMARK  status: ('A' for Active; 'I' for Inactive)
REMARK    1  A    between atoms: C_1  and  C_2
REMARK    2  A    between atoms: C_2  and  N_3
REMARK    3  A    between atoms: N_11  and  C_12
REMARK    4  A    between atoms: C_12  and  C_13
REMARK    5  A    between atoms: C_13  and  O_14
REMARK    6  A    between atoms: O_14  and  C_15
REMARK    7  A    between atoms: C_18  and  C_19
REMARK                            x       y       z     vdW  Elec       q    Type
REMARK                         _______ _______ _______ _____ _____    ______ ____
ROOT
ATOM      1  N   UNL     1       1.227   8.656  20.243  0.00  0.00    +0.000 N 
ATOM      2  N   UNL     1       1.422   7.425  20.831  0.00  0.00    +0.000 NA
ATOM      3  C   UNL     1       2.036   6.514  20.140  0.00  0.00    +0.000 A 
ATOM      4  C   UNL     1       2.527   6.708  18.761  0.00  0.00    +0.000 A 
ATOM      5  C   UNL     1       2.341   7.917  18.223  0.00  0.00    +0.000 A 
ATOM      6  C   UNL     1       1.637   8.981  18.959  0.00  0.00    +0.000 A 
ATOM      7  O   UNL     1       1.439  10.055  18.397  0.00  0.00    +0.000 OA
ATOM      8  C   UNL     1       3.172   5.577  18.035  0.00  0.00    +0.000 C 
ATOM      9  N   UNL     1       3.669   4.499  18.902  0.00  0.00    +0.000 NA
ATOM     10  C   UNL     1       2.598   4.073  19.814  0.00  0.00    +0.000 C 
ATOM     11  C   UNL     1       2.295   5.183  20.811  0.00  0.00    +0.000 C 
ENDROOT
BRANCH   1  13
ATOM     12  C   UNL     1      -0.384   8.901  22.077  0.00  0.00    +0.000 C 
ATOM     13  C   UNL     1       0.426   9.607  21.001  0.00  0.00    +0.000 C 
ENDBRANCH   1  13
BRANCH   9  14
ATOM     14  C   UNL     1       4.164   3.352  18.105  0.00  0.00    +0.000 C 
BRANCH  14  15
ATOM     15  C   UNL     1       4.656   3.759  16.705  0.00  0.00    +0.000 C 
BRANCH  15  16
ATOM     16  O   UNL     1       6.086   3.774  16.661  0.00  0.00    +0.000 OA
BRANCH  16  17
ATOM     17  C   UNL     1       6.659   4.932  17.123  0.00  0.00    +0.000 A 
ATOM     18  C   UNL     1       6.380   6.078  16.376  0.00  0.00    +0.000 A 
ATOM     19  C   UNL     1       6.916   7.316  16.747  0.00  0.00    +0.000 A 
ATOM     20  C   UNL     1       7.726   7.417  17.882  0.00  0.00    +0.000 A 
ATOM     21  C   UNL     1       7.984   6.277  18.649  0.00  0.00    +0.000 A 
ATOM     22  C   UNL     1       7.450   5.039  18.271  0.00  0.00    +0.000 A 
BRANCH  20  23
ATOM     23  C   UNL     1       8.282   8.681  18.267  0.00  0.00    +0.000 C 
ATOM     24  N   UNL     1       8.727   9.703  18.583  0.00  0.00    +0.000 NA
ENDBRANCH  20  23
ENDBRANCH  16  17
ENDBRANCH  15  16
ENDBRANCH  14  15
ENDBRANCH   9  14
TORSDOF 6
ENDMDL
MODEL 2
REMARK VINA RESULT:      -6.9      0.476      1.093
REMARK  Name = 
REMARK  7 active torsions:
REMARK  status: ('A' for Active; 'I' for Inactive)
REMARK    1  A    between atoms: C_1  and  C_2
REMARK    2  A    between atoms: C_2  and  N_3
REMARK    3  A    between atoms: N_11  and  C_12
REMARK    4  A    between atoms: C_12  and  C_13
REMARK    5  A    between atoms: C_13  and  O_14
REMARK    6  A    between atoms: O_14  and  C_15
REMARK    7  A    between atoms: C_18  and  C_19
REMARK                            x       y       z     vdW  Elec       q    Type
REMARK                         _______ _______ _______ _____ _____    ______ ____
ROOT
ATOM      1  N   UNL     1       1.009   8.845  20.530  0.00  0.00    +0.000 N 
ATOM      2  N   UNL     1       1.208   7.582  21.042  0.00  0.00    +0.000 NA
ATOM      3  C   UNL     1       1.810   6.712  20.290  0.00  0.00    +0.000 A 
ATOM      4  C   UNL     1       2.285   6.986  18.919  0.00  0.00    +0.000 A 
ATOM      5  C   UNL     1       2.095   8.225  18.456  0.00  0.00    +0.000 A 
ATOM      6  C   UNL     1       1.403   9.245  19.262  0.00  0.00    +0.000 A 
ATOM      7  O   UNL     1       1.201  10.351  18.768  0.00  0.00    +0.000 OA
ATOM      8  C   UNL     1       2.917   5.899  18.119  0.00  0.00    +0.000 C 
ATOM      9  N   UNL     1       3.422   4.770  18.914  0.00  0.00    +0.000 NA
ATOM     10  C   UNL     1       2.361   4.293  19.813  0.00  0.00    +0.000 C 
ATOM     11  C   UNL     1       2.074   5.343  20.878  0.00  0.00    +0.000 C 
ENDROOT
BRANCH   1  13
ATOM     12  C   UNL     1       0.319   9.376  22.824  0.00  0.00    +0.000 C 
ATOM     13  C   UNL     1       0.220   9.752  21.353  0.00  0.00    +0.000 C 
ENDBRANCH   1  13
BRANCH   9  14
ATOM     14  C   UNL     1       3.904   3.672  18.045  0.00  0.00    +0.000 C 
BRANCH  14  15
ATOM     15  C   UNL     1       4.648   4.175  16.795  0.00  0.00    +0.000 C 
BRANCH  15  16
ATOM     16  O   UNL     1       6.063   4.125  17.001  0.00  0.00    +0.000 OA
BRANCH  16  17
ATOM     17  C   UNL     1       6.635   5.330  17.322  0.00  0.00    +0.000 A 
ATOM     18  C   UNL     1       7.509   5.307  18.411  0.00  0.00    +0.000 A 
ATOM     19  C   UNL     1       8.145   6.478  18.836  0.00  0.00    +0.000 A 
ATOM     20  C   UNL     1       7.921   7.682  18.162  0.00  0.00    +0.000 A 
ATOM     21  C   UNL     1       7.069   7.704  17.054  0.00  0.00    +0.000 A 
ATOM     22  C   UNL     1       6.431   6.531  16.635  0.00  0.00    +0.000 A 
BRANCH  20  23
ATOM     23  C   UNL     1       8.566   8.887  18.594  0.00  0.00    +0.000 C 
ATOM     24  N   UNL     1       9.088   9.863  18.937  0.00  0.00    +0.000 NA
ENDBRANCH  20  23
ENDBRANCH  16  17
ENDBRANCH  15  16
ENDBRANCH  14  15
ENDBRANCH   9  14
TORSDOF 6
ENDMDL
MODEL 3
REMARK VINA RESULT:      -6.6      2.405      3.906
REMARK  Name = 
REMARK  7 active torsions:
REMARK  status: ('A' for Active; 'I' for Inactive)
REMARK    1  A    between atoms: C_1  and  C_2
REMARK    2  A    between atoms: C_2  and  N_3
REMARK    3  A    between atoms: N_11  and  C_12
REMARK    4  A    between atoms: C_12  and  C_13
REMARK    5  A    between atoms: C_13  and  O_14
REMARK    6  A    between atoms: O_14  and  C_15
REMARK    7  A    between atoms: C_18  and  C_19
REMARK                            x       y       z     vdW  Elec       q    Type
REMARK                         _______ _______ _______ _____ _____    ______ ____
ROOT
ATOM      1  N   UNL     1       0.648  11.313  19.350  0.00  0.00    +0.000 N 
ATOM      2  N   UNL     1       1.299  10.366  18.590  0.00  0.00    +0.000 NA
ATOM      3  C   UNL     1       1.512   9.203  19.124  0.00  0.00    +0.000 A 
ATOM      4  C   UNL     1       1.111   8.833  20.496  0.00  0.00    +0.000 A 
ATOM      5  C   UNL     1       0.464   9.764  21.203  0.00  0.00    +0.000 A 
ATOM      6  C   UNL     1       0.211  11.105  20.649  0.00  0.00    +0.000 A 
ATOM      7  O   UNL     1      -0.335  11.944  21.361  0.00  0.00    +0.000 OA
ATOM      8  C   UNL     1       1.452   7.485  21.033  0.00  0.00    +0.000 C 
ATOM      9  N   UNL     1       1.762   6.479  20.007  0.00  0.00    +0.000 NA
ATOM     10  C   UNL     1       2.775   7.015  19.087  0.00  0.00    +0.000 C 
ATOM     11  C   UNL     1       2.179   8.151  18.265  0.00  0.00    +0.000 C 
ENDROOT
BRANCH   1  13
ATOM     12  C   UNL     1       1.886  13.115  18.236  0.00  0.00    +0.000 C 
ATOM     13  C   UNL     1       0.540  12.641  18.762  0.00  0.00    +0.000 C 
ENDBRANCH   1  13
BRANCH   9  14
ATOM     14  C   UNL     1       2.228   5.212  20.618  0.00  0.00    +0.000 C 
BRANCH  14  15
ATOM     15  C   UNL     1       2.051   3.996  19.691  0.00  0.00    +0.000 C 
BRANCH  15  16
ATOM     16  O   UNL     1       3.274   3.259  19.593  0.00  0.00    +0.000 OA
BRANCH  16  17
ATOM     17  C   UNL     1       4.098   3.656  18.570  0.00  0.00    +0.000 A 
ATOM     18  C   UNL     1       5.340   4.157  18.962  0.00  0.00    +0.000 A 
ATOM     19  C   UNL     1       6.261   4.601  18.006  0.00  0.00    +0.000 A 
ATOM     20  C   UNL     1       5.948   4.531  16.646  0.00  0.00    +0.000 A 
ATOM     21  C   UNL     1       4.716   4.004  16.248  0.00  0.00    +0.000 A 
ATOM     22  C   UNL     1       3.795   3.566  17.207  0.00  0.00    +0.000 A 
BRANCH  20  23
ATOM     23  C   UNL     1       6.884   4.987  15.661  0.00  0.00    +0.000 C 
ATOM     24  N   UNL     1       7.645   5.354  14.868  0.00  0.00    +0.000 NA
ENDBRANCH  20  23
ENDBRANCH  16  17
ENDBRANCH  15  16
ENDBRANCH  14  15
ENDBRANCH   9  14
TORSDOF 6
ENDMDL
MODEL 4
REMARK VINA RESULT:      -6.6      3.639      6.273
REMARK  Name = 
REMARK  7 active torsions:
REMARK  status: ('A' for Active; 'I' for Inactive)
REMARK    1  A    between atoms: C_1  and  C_2
REMARK    2  A    between atoms: C_2  and  N_3
REMARK    3  A    between atoms: N_11  and  C_12
REMARK    4  A    between atoms: C_12  and  C_13
REMARK    5  A    between atoms: C_13  and  O_14
REMARK    6  A    between atoms: O_14  and  C_15
REMARK    7  A    between atoms: C_18  and  C_19
REMARK                            x       y       z     vdW  Elec       q    Type
REMARK                         _______ _______ _______ _____ _____    ______ ____
ROOT
ATOM      1  N   UNL     1       3.775   3.739  18.871  0.00  0.00    +0.000 N 
ATOM      2  N   UNL     1       5.039   3.998  19.354  0.00  0.00    +0.000 NA
ATOM      3  C   UNL     1       5.693   4.992  18.836  0.00  0.00    +0.000 A 
ATOM      4  C   UNL     1       5.175   5.855  17.756  0.00  0.00    +0.000 A 
ATOM      5  C   UNL     1       3.939   5.592  17.321  0.00  0.00    +0.000 A 
ATOM      6  C   UNL     1       3.160   4.467  17.864  0.00  0.00    +0.000 A 
ATOM      7  O   UNL     1       2.052   4.231  17.389  0.00  0.00    +0.000 OA
ATOM      8  C   UNL     1       6.030   6.937  17.193  0.00  0.00    +0.000 C 
ATOM      9  N   UNL     1       7.146   7.347  18.059  0.00  0.00    +0.000 NA
ATOM     10  C   UNL     1       7.905   6.158  18.473  0.00  0.00    +0.000 C 
ATOM     11  C   UNL     1       7.059   5.304  19.408  0.00  0.00    +0.000 C 
ENDROOT
BRANCH   1  13
ATOM     12  C   UNL     1       3.637   1.296  18.683  0.00  0.00    +0.000 C 
ATOM     13  C   UNL     1       3.126   2.542  19.389  0.00  0.00    +0.000 C 
ENDBRANCH   1  13
BRANCH   9  14
ATOM     14  C   UNL     1       8.029   8.320  17.375  0.00  0.00    +0.000 C 
BRANCH  14  15
ATOM     15  C   UNL     1       8.091   9.683  18.087  0.00  0.00    +0.000 C 
BRANCH  15  16
ATOM     16  O   UNL     1       9.147   9.697  19.052  0.00  0.00    +0.000 OA
BRANCH  16  17
ATOM     17  C   UNL     1       9.814  10.892  19.149  0.00  0.00    +0.000 A 
ATOM     18  C   UNL     1       9.835  11.465  20.422  0.00  0.00    +0.000 A 
ATOM     19  C   UNL     1      10.479  12.688  20.640  0.00  0.00    +0.000 A 
ATOM     20  C   UNL     1      11.122  13.340  19.584  0.00  0.00    +0.000 A 
ATOM     21  C   UNL     1      11.128  12.755  18.314  0.00  0.00    +0.000 A 
ATOM     22  C   UNL     1      10.477  11.534  18.099  0.00  0.00    +0.000 A 
BRANCH  20  23
ATOM     23  C   UNL     1      11.781  14.594  19.798  0.00  0.00    +0.000 C 
ATOM     24  N   UNL     1      12.315  15.609  19.966  0.00  0.00    +0.000 NA
ENDBRANCH  20  23
ENDBRANCH  16  17
ENDBRANCH  15  16
ENDBRANCH  14  15
ENDBRANCH   9  14
TORSDOF 6
ENDMDL
MODEL 5
REMARK VINA RESULT:      -6.6      2.372      3.746
REMARK  Name = 
REMARK  7 active torsions:
REMARK  status: ('A' for Active; 'I' for Inactive)
REMARK    1  A    between atoms: C_1  and  C_2
REMARK    2  A    between atoms: C_2  and  N_3
REMARK    3  A    between atoms: N_11  and  C_12
REMARK    4  A    between atoms: C_12  and  C_13
REMARK    5  A    between atoms: C_13  and  O_14
REMARK    6  A    between atoms: O_14  and  C_15
REMARK    7  A    between atoms: C_18  and  C_19
REMARK                            x       y       z     vdW  Elec       q    Type
REMARK                         _______ _______ _______ _____ _____    ______ ____
ROOT
ATOM      1  N   UNL     1       0.688  11.338  19.447  0.00  0.00    +0.000 N 
ATOM      2  N   UNL     1       1.282  10.386  18.647  0.00  0.00    +0.000 NA
ATOM      3  C   UNL     1       1.488   9.211  19.157  0.00  0.00    +0.000 A 
ATOM      4  C   UNL     1       1.138   8.832  20.541  0.00  0.00    +0.000 A 
ATOM      5  C   UNL     1       0.546   9.770  21.286  0.00  0.00    +0.000 A 
ATOM      6  C   UNL     1       0.303  11.124  20.761  0.00  0.00    +0.000 A 
ATOM      7  O   UNL     1      -0.190  11.967  21.507  0.00  0.00    +0.000 OA
ATOM      8  C   UNL     1       1.468   7.470  21.045  0.00  0.00    +0.000 C 
ATOM      9  N   UNL     1       1.708   6.470  19.994  0.00  0.00    +0.000 NA
ATOM     10  C   UNL     1       2.693   6.993  19.038  0.00  0.00    +0.000 C 
ATOM     11  C   UNL     1       2.091   8.154  18.257  0.00  0.00    +0.000 C 
ENDROOT
BRANCH   1  13
ATOM     12  C   UNL     1      -0.722  12.854  18.129  0.00  0.00    +0.000 C 
ATOM     13  C   UNL     1       0.588  12.677  18.880  0.00  0.00    +0.000 C 
ENDBRANCH   1  13
BRANCH   9  14
ATOM     14  C   UNL     1       2.168   5.184  20.568  0.00  0.00    +0.000 C 
BRANCH  14  15
ATOM     15  C   UNL     1       2.214   4.045  19.535  0.00  0.00    +0.000 C 
BRANCH  15  16
ATOM     16  O   UNL     1       3.480   3.380  19.577  0.00  0.00    +0.000 OA
BRANCH  16  17
ATOM     17  C   UNL     1       4.380   3.809  18.634  0.00  0.00    +0.000 A 
ATOM     18  C   UNL     1       4.008   3.591  17.307  0.00  0.00    +0.000 A 
ATOM     19  C   UNL     1       4.851   3.979  16.260  0.00  0.00    +0.000 A 
ATOM     20  C   UNL     1       6.069   4.604  16.536  0.00  0.00    +0.000 A 
ATOM     21  C   UNL     1       6.433   4.851  17.863  0.00  0.00    +0.000 A 
ATOM     22  C   UNL     1       5.590   4.456  18.908  0.00  0.00    +0.000 A 
BRANCH  20  23
ATOM     23  C   UNL     1       6.940   5.002  15.469  0.00  0.00    +0.000 C 
ATOM     24  N   UNL     1       7.640   5.323  14.602  0.00  0.00    +0.000 NA
ENDBRANCH  20  23
ENDBRANCH  16  17
ENDBRANCH  15  16
ENDBRANCH  14  15
ENDBRANCH   9  14
TORSDOF 6
ENDMDL
MODEL 6
REMARK VINA RESULT:      -6.6      2.441      7.694
REMARK  Name = 
REMARK  7 active torsions:
REMARK  status: ('A' for Active; 'I' for Inactive)
REMARK    1  A    between atoms: C_1  and  C_2
REMARK    2  A    between atoms: C_2  and  N_3
REMARK    3  A    between atoms: N_11  and  C_12
REMARK    4  A    between atoms: C_12  and  C_13
REMARK    5  A    between atoms: C_13  and  O_14
REMARK    6  A    between atoms: O_14  and  C_15
REMARK    7  A    between atoms: C_18  and  C_19
REMARK                            x       y       z     vdW  Elec       q    Type
REMARK                         _______ _______ _______ _____ _____    ______ ____
ROOT
ATOM      1  N   UNL     1       5.829   4.665  15.848  0.00  0.00    +0.000 N 
ATOM      2  N   UNL     1       4.633   4.070  16.186  0.00  0.00    +0.000 NA
ATOM      3  C   UNL     1       4.000   4.528  17.222  0.00  0.00    +0.000 A 
ATOM      4  C   UNL     1       4.484   5.638  18.067  0.00  0.00    +0.000 A 
ATOM      5  C   UNL     1       5.636   6.209  17.704  0.00  0.00    +0.000 A 
ATOM      6  C   UNL     1       6.402   5.717  16.547  0.00  0.00    +0.000 A 
ATOM      7  O   UNL     1       7.484   6.237  16.290  0.00  0.00    +0.000 OA
ATOM      8  C   UNL     1       3.705   6.052  19.268  0.00  0.00    +0.000 C 
ATOM      9  N   UNL     1       2.299   5.624  19.262  0.00  0.00    +0.000 NA
ATOM     10  C   UNL     1       2.228   4.182  18.989  0.00  0.00    +0.000 C 
ATOM     11  C   UNL     1       2.662   3.905  17.555  0.00  0.00    +0.000 C 
ENDROOT
BRANCH   1  13
ATOM     12  C   UNL     1       5.699   3.912  13.516  0.00  0.00    +0.000 C 
ATOM     13  C   UNL     1       6.568   4.042  14.758  0.00  0.00    +0.000 C 
ENDBRANCH   1  13
BRANCH   9  14
ATOM     14  C   UNL     1       1.632   5.947  20.546  0.00  0.00    +0.000 C 
BRANCH  14  15
ATOM     15  C   UNL     1       1.830   7.411  20.976  0.00  0.00    +0.000 C 
BRANCH  15  16
ATOM     16  O   UNL     1       1.097   8.289  20.117  0.00  0.00    +0.000 OA
BRANCH  16  17
ATOM     17  C   UNL     1       0.557   9.383  20.746  0.00  0.00    +0.000 A 
ATOM     18  C   UNL     1       0.009   9.138  22.007  0.00  0.00    +0.000 A 
ATOM     19  C   UNL     1      -0.578  10.176  22.739  0.00  0.00    +0.000 A 
ATOM     20  C   UNL     1      -0.606  11.473  22.220  0.00  0.00    +0.000 A 
ATOM     21  C   UNL     1      -0.032  11.727  20.970  0.00  0.00    +0.000 A 
ATOM     22  C   UNL     1       0.549  10.685  20.238  0.00  0.00    +0.000 A 
BRANCH  20  23
ATOM     23  C   UNL     1      -1.208  12.540  22.963  0.00  0.00    +0.000 C 
ATOM     24  N   UNL     1      -1.691  13.407  23.561  0.00  0.00    +0.000 NA
ENDBRANCH  20  23
ENDBRANCH  16  17
ENDBRANCH  15  16
ENDBRANCH  14  15
ENDBRANCH   9  14
TORSDOF 6
ENDMDL
MODEL 7
REMARK VINA RESULT:      -6.5      2.466      7.136
REMARK  Name = 
REMARK  7 active torsions:
REMARK  status: ('A' for Active; 'I' for Inactive)
REMARK    1  A    between atoms: C_1  and  C_2
REMARK    2  A    between atoms: C_2  and  N_3
REMARK    3  A    between atoms: N_11  and  C_12
REMARK    4  A    between atoms: C_12  and  C_13
REMARK    5  A    between atoms: C_13  and  O_14
REMARK    6  A    between atoms: O_14  and  C_15
REMARK    7  A    between atoms: C_18  and  C_19
REMARK                            x       y       z     vdW  Elec       q    Type
REMARK                         _______ _______ _______ _____ _____    ______ ____
ROOT
ATOM      1  N   UNL     1       6.134   4.819  15.408  0.00  0.00    +0.000 N 
ATOM      2  N   UNL     1       5.015   4.075  15.712  0.00  0.00    +0.000 NA
ATOM      3  C   UNL     1       4.470   4.250  16.877  0.00  0.00    +0.000 A 
ATOM      4  C   UNL     1       4.978   5.186  17.900  0.00  0.00    +0.000 A 
ATOM      5  C   UNL     1       6.052   5.909  17.570  0.00  0.00    +0.000 A 
ATOM      6  C   UNL     1       6.718   5.737  16.268  0.00  0.00    +0.000 A 
ATOM      7  O   UNL     1       7.738   6.383  16.036  0.00  0.00    +0.000 OA
ATOM      8  C   UNL     1       4.308   5.271  19.228  0.00  0.00    +0.000 C 
ATOM      9  N   UNL     1       2.934   4.748  19.255  0.00  0.00    +0.000 NA
ATOM     10  C   UNL     1       2.915   3.397  18.676  0.00  0.00    +0.000 C 
ATOM     11  C   UNL     1       3.211   3.469  17.184  0.00  0.00    +0.000 C 
ENDROOT
BRANCH   1  13
ATOM     12  C   UNL     1       5.871   3.690  13.246  0.00  0.00    +0.000 C 
ATOM     13  C   UNL     1       6.788   4.504  14.145  0.00  0.00    +0.000 C 
ENDBRANCH   1  13
BRANCH   9  14
ATOM     14  C   UNL     1       2.389   4.736  20.632  0.00  0.00    +0.000 C 
BRANCH  14  15
ATOM     15  C   UNL     1       1.707   6.059  21.023  0.00  0.00    +0.000 C 
BRANCH  15  16
ATOM     16  O   UNL     1       1.892   7.039  19.998  0.00  0.00    +0.000 OA
BRANCH  16  17
ATOM     17  C   UNL     1       1.398   8.283  20.303  0.00  0.00    +0.000 A 
ATOM     18  C   UNL     1       1.101   8.495  21.650  0.00  0.00    +0.000 A 
ATOM     19  C   UNL     1       0.583   9.722  22.079  0.00  0.00    +0.000 A 
ATOM     20  C   UNL     1       0.374  10.754  21.160  0.00  0.00    +0.000 A 
ATOM     21  C   UNL     1       0.697  10.555  19.814  0.00  0.00    +0.000 A 
ATOM     22  C   UNL     1       1.209   9.324  19.389  0.00  0.00    +0.000 A 
BRANCH  20  23
ATOM     23  C   UNL     1      -0.159  12.013  21.590  0.00  0.00    +0.000 C 
ATOM     24  N   UNL     1      -0.586  13.032  21.942  0.00  0.00    +0.000 NA
ENDBRANCH  20  23
ENDBRANCH  16  17
ENDBRANCH  15  16
ENDBRANCH  14  15
ENDBRANCH   9  14
TORSDOF 6
ENDMDL
MODEL 8
REMARK VINA RESULT:      -6.4      3.906      8.795
REMARK  Name = 
REMARK  7 active torsions:
REMARK  status: ('A' for Active; 'I' for Inactive)
REMARK    1  A    between atoms: C_1  and  C_2
REMARK    2  A    between atoms: C_2  and  N_3
REMARK    3  A    between atoms: N_11  and  C_12
REMARK    4  A    between atoms: C_12  and  C_13
REMARK    5  A    between atoms: C_13  and  O_14
REMARK    6  A    between atoms: O_14  and  C_15
REMARK    7  A    between atoms: C_18  and  C_19
REMARK                            x       y       z     vdW  Elec       q    Type
REMARK                         _______ _______ _______ _____ _____    ______ ____
ROOT
ATOM      1  N   UNL     1       3.812   3.927  18.886  0.00  0.00    +0.000 N 
ATOM      2  N   UNL     1       2.994   4.556  19.799  0.00  0.00    +0.000 NA
ATOM      3  C   UNL     1       2.643   5.781  19.554  0.00  0.00    +0.000 A 
ATOM      4  C   UNL     1       3.074   6.547  18.367  0.00  0.00    +0.000 A 
ATOM      5  C   UNL     1       3.851   5.905  17.490  0.00  0.00    +0.000 A 
ATOM      6  C   UNL     1       4.290   4.520  17.728  0.00  0.00    +0.000 A 
ATOM      7  O   UNL     1       5.053   3.995  16.920  0.00  0.00    +0.000 OA
ATOM      8  C   UNL     1       2.657   7.969  18.208  0.00  0.00    +0.000 C 
ATOM      9  N   UNL     1       1.490   8.358  19.013  0.00  0.00    +0.000 NA
ATOM     10  C   UNL     1       1.709   7.966  20.412  0.00  0.00    +0.000 C 
ATOM     11  C   UNL     1       1.701   6.448  20.532  0.00  0.00    +0.000 C 
ENDROOT
BRANCH   1  13
ATOM     12  C   UNL     1       3.502   1.519  18.529  0.00  0.00    +0.000 C 
ATOM     13  C   UNL     1       4.284   2.600  19.259  0.00  0.00    +0.000 C 
ENDBRANCH   1  13
BRANCH   9  14
ATOM     14  C   UNL     1       1.226   9.812  18.911  0.00  0.00    +0.000 C 
BRANCH  14  15
ATOM     15  C   UNL     1      -0.275  10.153  18.909  0.00  0.00    +0.000 C 
BRANCH  15  16
ATOM     16  O   UNL     1      -0.805  10.073  17.582  0.00  0.00    +0.000 OA
BRANCH  16  17
ATOM     17  C   UNL     1      -2.077  10.569  17.446  0.00  0.00    +0.000 A 
ATOM     18  C   UNL     1      -2.568  11.271  18.549  0.00  0.00    +0.000 A 
ATOM     19  C   UNL     1      -3.856  11.815  18.528  0.00  0.00    +0.000 A 
ATOM     20  C   UNL     1      -4.659  11.674  17.393  0.00  0.00    +0.000 A 
ATOM     21  C   UNL     1      -4.161  10.997  16.276  0.00  0.00    +0.000 A 
ATOM     22  C   UNL     1      -2.873  10.449  16.303  0.00  0.00    +0.000 A 
BRANCH  20  23
ATOM     23  C   UNL     1      -5.981  12.226  17.365  0.00  0.00    +0.000 C 
ATOM     24  N   UNL     1      -7.051  12.672  17.348  0.00  0.00    +0.000 NA
ENDBRANCH  20  23
ENDBRANCH  16  17
ENDBRANCH  15  16
ENDBRANCH  14  15
ENDBRANCH   9  14
TORSDOF 6
ENDMDL
MODEL 9
REMARK VINA RESULT:      -6.4      1.038      1.519
REMARK  Name = 
REMARK  7 active torsions:
REMARK  status: ('A' for Active; 'I' for Inactive)
REMARK    1  A    between atoms: C_1  and  C_2
REMARK    2  A    between atoms: C_2  and  N_3
REMARK    3  A    between atoms: N_11  and  C_12
REMARK    4  A    between atoms: C_12  and  C_13
REMARK    5  A    between atoms: C_13  and  O_14
REMARK    6  A    between atoms: O_14  and  C_15
REMARK    7  A    between atoms: C_18  and  C_19
REMARK                            x       y       z     vdW  Elec       q    Type
REMARK                         _______ _______ _______ _____ _____    ______ ____
ROOT
ATOM      1  N   UNL     1       1.463   9.246  19.708  0.00  0.00    +0.000 N 
ATOM      2  N   UNL     1       1.351   8.109  20.478  0.00  0.00    +0.000 NA
ATOM      3  C   UNL     1       1.698   6.979  19.943  0.00  0.00    +0.000 A 
ATOM      4  C   UNL     1       2.194   6.832  18.560  0.00  0.00    +0.000 A 
ATOM      5  C   UNL     1       2.312   7.954  17.844  0.00  0.00    +0.000 A 
ATOM      6  C   UNL     1       1.916   9.260  18.398  0.00  0.00    +0.000 A 
ATOM      7  O   UNL     1       1.987  10.253  17.678  0.00  0.00    +0.000 OA
ATOM      8  C   UNL     1       2.515   5.479  18.024  0.00  0.00    +0.000 C 
ATOM      9  N   UNL     1       2.738   4.452  19.052  0.00  0.00    +0.000 NA
ATOM     10  C   UNL     1       1.613   4.454  19.997  0.00  0.00    +0.000 C 
ATOM     11  C   UNL     1       1.623   5.742  20.811  0.00  0.00    +0.000 C 
ENDROOT
BRANCH   1  13
ATOM     12  C   UNL     1      -0.531  10.648  19.989  0.00  0.00    +0.000 C 
ATOM     13  C   UNL     1       0.947  10.473  20.300  0.00  0.00    +0.000 C 
ENDBRANCH   1  13
BRANCH   9  14
ATOM     14  C   UNL     1       2.909   3.111  18.446  0.00  0.00    +0.000 C 
BRANCH  14  15
ATOM     15  C   UNL     1       4.382   2.748  18.189  0.00  0.00    +0.000 C 
BRANCH  15  16
ATOM     16  O   UNL     1       4.824   3.297  16.944  0.00  0.00    +0.000 OA
BRANCH  16  17
ATOM     17  C   UNL     1       5.495   4.489  17.053  0.00  0.00    +0.000 A 
ATOM     18  C   UNL     1       6.320   4.612  18.172  0.00  0.00    +0.000 A 
ATOM     19  C   UNL     1       7.048   5.787  18.392  0.00  0.00    +0.000 A 
ATOM     20  C   UNL     1       6.966   6.843  17.481  0.00  0.00    +0.000 A 
ATOM     21  C   UNL     1       6.163   6.713  16.344  0.00  0.00    +0.000 A 
ATOM     22  C   UNL     1       5.432   5.538  16.130  0.00  0.00    +0.000 A 
BRANCH  20  23
ATOM     23  C   UNL     1       7.706   8.051  17.701  0.00  0.00    +0.000 C 
ATOM     24  N   UNL     1       8.303   9.027  17.884  0.00  0.00    +0.000 NA
ENDBRANCH  20  23
ENDBRANCH  16  17
ENDBRANCH  15  16
ENDBRANCH  14  15
ENDBRANCH   9  14
TORSDOF 6
ENDMDL
