MODEL 1
REMARK VINA RESULT:      -8.6      0.000      0.000
REMARK  Name = 
REMARK  4 active torsions:
REMARK  status: ('A' for Active; 'I' for Inactive)
REMARK    1  A    between atoms: C_2  and  C_9
REMARK    2  A    between atoms: N_3  and  C_4
REMARK    3  A    between atoms: C_11  and  C_12
REMARK    4  A    between atoms: C_21  and  C_22
REMARK                            x       y       z     vdW  Elec       q    Type
REMARK                         _______ _______ _______ _____ _____    ______ ____
ROOT
ATOM      1  C   UNL     1       5.878   5.508  17.321  0.00  0.00    +0.000 A 
ATOM      2  N   UNL     1       4.930   5.377  18.329  0.00  0.00    +0.000 NA
ATOM      3  C   UNL     1       4.027   4.557  17.828  0.00  0.00    +0.000 A 
ATOM      4  O   UNL     1       4.276   4.193  16.528  0.00  0.00    +0.000 OA
ATOM      5  C   UNL     1       5.454   4.817  16.200  0.00  0.00    +0.000 A 
ENDROOT
BRANCH   3   6
ATOM      6  C   UNL     1       2.860   3.975  18.483  0.00  0.00    +0.000 A 
ATOM      7  C   UNL     1       2.101   4.747  19.373  0.00  0.00    +0.000 A 
ATOM      8  F   UNL     1       2.409   6.032  19.606  0.00  0.00    +0.000 F 
ATOM      9  C   UNL     1       1.003   4.221  20.062  0.00  0.00    +0.000 A 
ATOM     10  C   UNL     1       0.631   2.896  19.870  0.00  0.00    +0.000 A 
ATOM     11  C   UNL     1       1.360   2.108  18.983  0.00  0.00    +0.000 A 
ATOM     12  C   UNL     1       2.458   2.647  18.299  0.00  0.00    +0.000 A 
ATOM     13  F   UNL     1       3.121   1.830  17.468  0.00  0.00    +0.000 F 
ENDBRANCH   3   6
BRANCH   5  14
ATOM     14  C   UNL     1       5.945   4.620  14.842  0.00  0.00    +0.000 A 
ATOM     15  C   UNL     1       7.127   5.238  14.407  0.00  0.00    +0.000 A 
ATOM     16  C   UNL     1       7.649   4.987  13.136  0.00  0.00    +0.000 A 
ATOM     17  C   UNL     1       6.981   4.128  12.270  0.00  0.00    +0.000 A 
ATOM     18  C   UNL     1       5.784   3.537  12.668  0.00  0.00    +0.000 A 
ATOM     19  C   UNL     1       5.267   3.785  13.944  0.00  0.00    +0.000 A 
ENDBRANCH   5  14
BRANCH   1  21
ATOM     20  O   UNL     1       8.202   5.724  17.719  0.00  0.00    +0.000 OA
ATOM     21  C   UNL     1       7.119   6.252  17.493  0.00  0.00    +0.000 C 
ATOM     22  N   UNL     1       6.962   7.616  17.370  0.00  0.00    +0.000 N 
ATOM     23  H   UNL     1       6.005   7.956  17.337  0.00  0.00    +0.000 HD
BRANCH  22  24
ATOM     24  C   UNL     1       8.066   8.525  17.566  0.00  0.00    +0.000 C 
ATOM     25  C   UNL     1       7.664   9.985  17.410  0.00  0.00    +0.000 C 
ATOM     26  C   UNL     1       8.805  10.738  18.080  0.00  0.00    +0.000 C 
ATOM     27  C   UNL     1       9.321   9.816  19.184  0.00  0.00    +0.000 C 
ATOM     28  C   UNL     1       8.634   8.467  18.980  0.00  0.00    +0.000 C 
ENDBRANCH  22  24
ENDBRANCH   1  21
TORSDOF 4
ENDMDL
MODEL 2
REMARK VINA RESULT:      -8.5      0.085      1.592
REMARK  Name = 
REMARK  4 active torsions:
REMARK  status: ('A' for Active; 'I' for Inactive)
REMARK    1  A    between atoms: C_2  and  C_9
REMARK    2  A    between atoms: N_3  and  C_4
REMARK    3  A    between atoms: C_11  and  C_12
REMARK    4  A    between atoms: C_21  and  C_22
REMARK                            x       y       z     vdW  Elec       q    Type
REMARK                         _______ _______ _______ _____ _____    ______ ____
ROOT
ATOM      1  C   UNL     1       5.911   5.545  17.352  0.00  0.00    +0.000 A 
ATOM      2  N   UNL     1       4.976   5.417  18.371  0.00  0.00    +0.000 NA
ATOM      3  C   UNL     1       4.069   4.591  17.886  0.00  0.00    +0.000 A 
ATOM      4  O   UNL     1       4.305   4.220  16.585  0.00  0.00    +0.000 OA
ATOM      5  C   UNL     1       5.477   4.846  16.239  0.00  0.00    +0.000 A 
ENDROOT
BRANCH   3   6
ATOM      6  C   UNL     1       2.912   4.009  18.557  0.00  0.00    +0.000 A 
ATOM      7  C   UNL     1       2.568   2.671  18.322  0.00  0.00    +0.000 A 
ATOM      8  F   UNL     1       3.311   1.901  17.512  0.00  0.00    +0.000 F 
ATOM      9  C   UNL     1       1.441   2.080  18.904  0.00  0.00    +0.000 A 
ATOM     10  C   UNL     1       0.626   2.823  19.749  0.00  0.00    +0.000 A 
ATOM     11  C   UNL     1       0.950   4.151  20.011  0.00  0.00    +0.000 A 
ATOM     12  C   UNL     1       2.082   4.731  19.421  0.00  0.00    +0.000 A 
ATOM     13  F   UNL     1       2.330   6.017  19.709  0.00  0.00    +0.000 F 
ENDBRANCH   3   6
BRANCH   5  14
ATOM     14  C   UNL     1       5.952   4.643  14.877  0.00  0.00    +0.000 A 
ATOM     15  C   UNL     1       7.138   5.247  14.430  0.00  0.00    +0.000 A 
ATOM     16  C   UNL     1       7.644   4.989  13.155  0.00  0.00    +0.000 A 
ATOM     17  C   UNL     1       6.959   4.137  12.295  0.00  0.00    +0.000 A 
ATOM     18  C   UNL     1       5.759   3.561  12.706  0.00  0.00    +0.000 A 
ATOM     19  C   UNL     1       5.256   3.815  13.986  0.00  0.00    +0.000 A 
ENDBRANCH   5  14
BRANCH   1  21
ATOM     20  O   UNL     1       8.243   5.770  17.701  0.00  0.00    +0.000 OA
ATOM     21  C   UNL     1       7.152   6.294  17.504  0.00  0.00    +0.000 C 
ATOM     22  N   UNL     1       6.985   7.658  17.400  0.00  0.00    +0.000 N 
ATOM     23  H   UNL     1       6.026   7.994  17.392  0.00  0.00    +0.000 HD
BRANCH  22  24
ATOM     24  C   UNL     1       8.089   8.571  17.582  0.00  0.00    +0.000 C 
ATOM     25  C   UNL     1       7.686  10.029  17.400  0.00  0.00    +0.000 C 
ATOM     26  C   UNL     1       8.825  10.794  18.059  0.00  0.00    +0.000 C 
ATOM     27  C   UNL     1       9.339   9.892  19.180  0.00  0.00    +0.000 C 
ATOM     28  C   UNL     1       8.653   8.538  18.998  0.00  0.00    +0.000 C 
ENDBRANCH  22  24
ENDBRANCH   1  21
TORSDOF 4
ENDMDL
MODEL 3
REMARK VINA RESULT:      -8.3      4.200      6.959
REMARK  Name = 
REMARK  4 active torsions:
REMARK  status: ('A' for Active; 'I' for Inactive)
REMARK    1  A    between atoms: C_2  and  C_9
REMARK    2  A    between atoms: N_3  and  C_4
REMARK    3  A    between atoms: C_11  and  C_12
REMARK    4  A    between atoms: C_21  and  C_22
REMARK                            x       y       z     vdW  Elec       q    Type
REMARK                         _______ _______ _______ _____ _____    ______ ____
ROOT
ATOM      1  C   UNL     1       2.337   7.565  18.984  0.00  0.00    +0.000 A 
ATOM      2  N   UNL     1       1.854   8.841  19.243  0.00  0.00    +0.000 NA
ATOM      3  C   UNL     1       1.110   8.700  20.324  0.00  0.00    +0.000 A 
ATOM      4  O   UNL     1       1.010   7.400  20.754  0.00  0.00    +0.000 OA
ATOM      5  C   UNL     1       1.784   6.672  19.884  0.00  0.00    +0.000 A 
ENDROOT
BRANCH   3   6
ATOM      6  C   UNL     1       0.442   9.729  21.113  0.00  0.00    +0.000 A 
ATOM      7  C   UNL     1       0.639  11.082  20.807  0.00  0.00    +0.000 A 
ATOM      8  F   UNL     1       1.408  11.448  19.769  0.00  0.00    +0.000 F 
ATOM      9  C   UNL     1       0.060  12.107  21.562  0.00  0.00    +0.000 A 
ATOM     10  C   UNL     1      -0.743  11.797  22.653  0.00  0.00    +0.000 A 
ATOM     11  C   UNL     1      -0.966  10.461  22.975  0.00  0.00    +0.000 A 
ATOM     12  C   UNL     1      -0.380   9.444  22.209  0.00  0.00    +0.000 A 
ATOM     13  F   UNL     1      -0.629   8.179  22.580  0.00  0.00    +0.000 F 
ENDBRANCH   3   6
BRANCH   5  14
ATOM     14  C   UNL     1       1.835   5.232  20.099  0.00  0.00    +0.000 A 
ATOM     15  C   UNL     1       2.268   4.701  21.323  0.00  0.00    +0.000 A 
ATOM     16  C   UNL     1       2.239   3.326  21.567  0.00  0.00    +0.000 A 
ATOM     17  C   UNL     1       1.795   2.456  20.576  0.00  0.00    +0.000 A 
ATOM     18  C   UNL     1       1.400   2.961  19.339  0.00  0.00    +0.000 A 
ATOM     19  C   UNL     1       1.424   4.338  19.100  0.00  0.00    +0.000 A 
ENDBRANCH   5  14
BRANCH   1  21
ATOM     20  O   UNL     1       3.292   7.840  16.834  0.00  0.00    +0.000 OA
ATOM     21  C   UNL     1       3.298   7.282  17.925  0.00  0.00    +0.000 C 
ATOM     22  N   UNL     1       4.227   6.324  18.272  0.00  0.00    +0.000 N 
ATOM     23  H   UNL     1       4.050   5.818  19.135  0.00  0.00    +0.000 HD
BRANCH  22  24
ATOM     24  C   UNL     1       5.226   5.866  17.335  0.00  0.00    +0.000 C 
ATOM     25  C   UNL     1       6.507   5.404  18.015  0.00  0.00    +0.000 C 
ATOM     26  C   UNL     1       7.198   4.575  16.942  0.00  0.00    +0.000 C 
ATOM     27  C   UNL     1       6.077   3.964  16.102  0.00  0.00    +0.000 C 
ATOM     28  C   UNL     1       4.780   4.633  16.555  0.00  0.00    +0.000 C 
ENDBRANCH  22  24
ENDBRANCH   1  21
TORSDOF 4
ENDMDL
MODEL 4
REMARK VINA RESULT:      -8.3      4.182      6.994
REMARK  Name = 
REMARK  4 active torsions:
REMARK  status: ('A' for Active; 'I' for Inactive)
REMARK    1  A    between atoms: C_2  and  C_9
REMARK    2  A    between atoms: N_3  and  C_4
REMARK    3  A    between atoms: C_11  and  C_12
REMARK    4  A    between atoms: C_21  and  C_22
REMARK                            x       y       z     vdW  Elec       q    Type
REMARK                         _______ _______ _______ _____ _____    ______ ____
ROOT
ATOM      1  C   UNL     1       2.380   7.568  18.970  0.00  0.00    +0.000 A 
ATOM      2  N   UNL     1       1.921   8.851  19.240  0.00  0.00    +0.000 NA
ATOM      3  C   UNL     1       1.188   8.718  20.328  0.00  0.00    +0.000 A 
ATOM      4  O   UNL     1       1.071   7.419  20.756  0.00  0.00    +0.000 OA
ATOM      5  C   UNL     1       1.822   6.682  19.874  0.00  0.00    +0.000 A 
ENDROOT
BRANCH   3   6
ATOM      6  C   UNL     1       0.546   9.756  21.129  0.00  0.00    +0.000 A 
ATOM      7  C   UNL     1      -0.291   9.398  22.195  0.00  0.00    +0.000 A 
ATOM      8  F   UNL     1      -0.484   8.109  22.515  0.00  0.00    +0.000 F 
ATOM      9  C   UNL     1      -0.966  10.352  22.962  0.00  0.00    +0.000 A 
ATOM     10  C   UNL     1      -0.814  11.705  22.680  0.00  0.00    +0.000 A 
ATOM     11  C   UNL     1       0.021  12.091  21.635  0.00  0.00    +0.000 A 
ATOM     12  C   UNL     1       0.692  11.124  20.874  0.00  0.00    +0.000 A 
ATOM     13  F   UNL     1       1.472  11.564  19.876  0.00  0.00    +0.000 F 
ENDBRANCH   3   6
BRANCH   5  14
ATOM     14  C   UNL     1       1.851   5.240  20.083  0.00  0.00    +0.000 A 
ATOM     15  C   UNL     1       2.244   4.699  21.317  0.00  0.00    +0.000 A 
ATOM     16  C   UNL     1       2.193   3.324  21.553  0.00  0.00    +0.000 A 
ATOM     17  C   UNL     1       1.767   2.462  20.546  0.00  0.00    +0.000 A 
ATOM     18  C   UNL     1       1.413   2.977  19.301  0.00  0.00    +0.000 A 
ATOM     19  C   UNL     1       1.459   4.355  19.069  0.00  0.00    +0.000 A 
ENDBRANCH   5  14
BRANCH   1  21
ATOM     20  O   UNL     1       3.278   7.790  16.790  0.00  0.00    +0.000 OA
ATOM     21  C   UNL     1       3.324   7.273  17.900  0.00  0.00    +0.000 C 
ATOM     22  N   UNL     1       4.287   6.353  18.258  0.00  0.00    +0.000 N 
ATOM     23  H   UNL     1       4.143   5.874  19.143  0.00  0.00    +0.000 HD
BRANCH  22  24
ATOM     24  C   UNL     1       5.275   5.887  17.314  0.00  0.00    +0.000 C 
ATOM     25  C   UNL     1       6.547   5.390  17.988  0.00  0.00    +0.000 C 
ATOM     26  C   UNL     1       7.221   4.563  16.903  0.00  0.00    +0.000 C 
ATOM     27  C   UNL     1       6.088   3.986  16.055  0.00  0.00    +0.000 C 
ATOM     28  C   UNL     1       4.805   4.675  16.517  0.00  0.00    +0.000 C 
ENDBRANCH  22  24
ENDBRANCH   1  21
TORSDOF 4
ENDMDL
MODEL 5
REMARK VINA RESULT:      -8.3      1.134      1.481
REMARK  Name = 
REMARK  4 active torsions:
REMARK  status: ('A' for Active; 'I' for Inactive)
REMARK    1  A    between atoms: C_2  and  C_9
REMARK    2  A    between atoms: N_3  and  C_4
REMARK    3  A    between atoms: C_11  and  C_12
REMARK    4  A    between atoms: C_21  and  C_22
REMARK                            x       y       z     vdW  Elec       q    Type
REMARK                         _______ _______ _______ _____ _____    ______ ____
ROOT
ATOM      1  C   UNL     1       6.131   5.624  18.049  0.00  0.00    +0.000 A 
ATOM      2  N   UNL     1       5.272   5.505  19.134  0.00  0.00    +0.000 NA
ATOM      3  C   UNL     1       4.370   4.624  18.746  0.00  0.00    +0.000 A 
ATOM      4  O   UNL     1       4.533   4.206  17.449  0.00  0.00    +0.000 OA
ATOM      5  C   UNL     1       5.653   4.861  16.999  0.00  0.00    +0.000 A 
ENDROOT
BRANCH   3   6
ATOM      6  C   UNL     1       3.285   4.027  19.518  0.00  0.00    +0.000 A 
ATOM      7  C   UNL     1       2.001   4.588  19.468  0.00  0.00    +0.000 A 
ATOM      8  F   UNL     1       1.744   5.649  18.688  0.00  0.00    +0.000 F 
ATOM      9  C   UNL     1       0.940   4.083  20.226  0.00  0.00    +0.000 A 
ATOM     10  C   UNL     1       1.140   2.988  21.058  0.00  0.00    +0.000 A 
ATOM     11  C   UNL     1       2.401   2.403  21.120  0.00  0.00    +0.000 A 
ATOM     12  C   UNL     1       3.456   2.919  20.355  0.00  0.00    +0.000 A 
ATOM     13  F   UNL     1       4.647   2.313  20.469  0.00  0.00    +0.000 F 
ENDBRANCH   3   6
BRANCH   5  14
ATOM     14  C   UNL     1       6.045   4.617  15.616  0.00  0.00    +0.000 A 
ATOM     15  C   UNL     1       5.212   3.894  14.749  0.00  0.00    +0.000 A 
ATOM     16  C   UNL     1       5.540   3.728  13.402  0.00  0.00    +0.000 A 
ATOM     17  C   UNL     1       6.723   4.267  12.905  0.00  0.00    +0.000 A 
ATOM     18  C   UNL     1       7.583   4.952  13.760  0.00  0.00    +0.000 A 
ATOM     19  C   UNL     1       7.249   5.122  15.108  0.00  0.00    +0.000 A 
ENDBRANCH   5  14
BRANCH   1  21
ATOM     20  O   UNL     1       8.450   5.976  18.375  0.00  0.00    +0.000 OA
ATOM     21  C   UNL     1       7.347   6.427  18.086  0.00  0.00    +0.000 C 
ATOM     22  N   UNL     1       7.141   7.749  17.758  0.00  0.00    +0.000 N 
ATOM     23  H   UNL     1       6.172   8.048  17.687  0.00  0.00    +0.000 HD
BRANCH  22  24
ATOM     24  C   UNL     1       8.214   8.714  17.796  0.00  0.00    +0.000 C 
ATOM     25  C   UNL     1       7.755  10.123  17.447  0.00  0.00    +0.000 C 
ATOM     26  C   UNL     1       8.880  11.002  17.975  0.00  0.00    +0.000 C 
ATOM     27  C   UNL     1       9.452  10.263  19.184  0.00  0.00    +0.000 C 
ATOM     28  C   UNL     1       8.812   8.876  19.189  0.00  0.00    +0.000 C 
ENDBRANCH  22  24
ENDBRANCH   1  21
TORSDOF 4
ENDMDL
MODEL 6
REMARK VINA RESULT:      -8.2      1.148      1.376
REMARK  Name = 
REMARK  4 active torsions:
REMARK  status: ('A' for Active; 'I' for Inactive)
REMARK    1  A    between atoms: C_2  and  C_9
REMARK    2  A    between atoms: N_3  and  C_4
REMARK    3  A    between atoms: C_11  and  C_12
REMARK    4  A    between atoms: C_21  and  C_22
REMARK                            x       y       z     vdW  Elec       q    Type
REMARK                         _______ _______ _______ _____ _____    ______ ____
ROOT
ATOM      1  C   UNL     1       5.859   5.635  16.770  0.00  0.00    +0.000 A 
ATOM      2  N   UNL     1       5.051   5.555  17.897  0.00  0.00    +0.000 NA
ATOM      3  C   UNL     1       4.208   4.576  17.631  0.00  0.00    +0.000 A 
ATOM      4  O   UNL     1       4.359   4.050  16.372  0.00  0.00    +0.000 OA
ATOM      5  C   UNL     1       5.407   4.741  15.816  0.00  0.00    +0.000 A 
ENDROOT
BRANCH   3   6
ATOM      6  C   UNL     1       3.202   3.976  18.500  0.00  0.00    +0.000 A 
ATOM      7  C   UNL     1       3.600   3.203  19.600  0.00  0.00    +0.000 A 
ATOM      8  F   UNL     1       4.900   3.036  19.890  0.00  0.00    +0.000 F 
ATOM      9  C   UNL     1       2.675   2.568  20.435  0.00  0.00    +0.000 A 
ATOM     10  C   UNL     1       1.314   2.696  20.189  0.00  0.00    +0.000 A 
ATOM     11  C   UNL     1       0.888   3.467  19.110  0.00  0.00    +0.000 A 
ATOM     12  C   UNL     1       1.826   4.098  18.281  0.00  0.00    +0.000 A 
ATOM     13  F   UNL     1       1.348   4.818  17.255  0.00  0.00    +0.000 F 
ENDBRANCH   3   6
BRANCH   5  14
ATOM     14  C   UNL     1       5.768   4.396  14.447  0.00  0.00    +0.000 A 
ATOM     15  C   UNL     1       7.017   4.759  13.919  0.00  0.00    +0.000 A 
ATOM     16  C   UNL     1       7.404   4.359  12.638  0.00  0.00    +0.000 A 
ATOM     17  C   UNL     1       6.536   3.606  11.855  0.00  0.00    +0.000 A 
ATOM     18  C   UNL     1       5.276   3.272  12.346  0.00  0.00    +0.000 A 
ATOM     19  C   UNL     1       4.893   3.668  13.631  0.00  0.00    +0.000 A 
ENDBRANCH   5  14
BRANCH   1  21
ATOM     20  O   UNL     1       7.964   6.332  15.939  0.00  0.00    +0.000 OA
ATOM     21  C   UNL     1       7.009   6.526  16.682  0.00  0.00    +0.000 C 
ATOM     22  N   UNL     1       6.919   7.621  17.514  0.00  0.00    +0.000 N 
ATOM     23  H   UNL     1       6.165   7.606  18.196  0.00  0.00    +0.000 HD
BRANCH  22  24
ATOM     24  C   UNL     1       7.987   8.587  17.611  0.00  0.00    +0.000 C 
ATOM     25  C   UNL     1       7.493  10.025  17.524  0.00  0.00    +0.000 C 
ATOM     26  C   UNL     1       8.655  10.832  18.086  0.00  0.00    +0.000 C 
ATOM     27  C   UNL     1       9.332   9.927  19.114  0.00  0.00    +0.000 C 
ATOM     28  C   UNL     1       8.701   8.544  18.958  0.00  0.00    +0.000 C 
ENDBRANCH  22  24
ENDBRANCH   1  21
TORSDOF 4
ENDMDL
MODEL 7
REMARK VINA RESULT:      -8.2      1.006      1.015
REMARK  Name = 
REMARK  4 active torsions:
REMARK  status: ('A' for Active; 'I' for Inactive)
REMARK    1  A    between atoms: C_2  and  C_9
REMARK    2  A    between atoms: N_3  and  C_4
REMARK    3  A    between atoms: C_11  and  C_12
REMARK    4  A    between atoms: C_21  and  C_22
REMARK                            x       y       z     vdW  Elec       q    Type
REMARK                         _______ _______ _______ _____ _____    ______ ____
ROOT
ATOM      1  C   UNL     1       6.045   5.547  17.565  0.00  0.00    +0.000 A 
ATOM      2  N   UNL     1       5.153   5.382  18.617  0.00  0.00    +0.000 NA
ATOM      3  C   UNL     1       4.263   4.521  18.163  0.00  0.00    +0.000 A 
ATOM      4  O   UNL     1       4.465   4.161  16.854  0.00  0.00    +0.000 OA
ATOM      5  C   UNL     1       5.598   4.833  16.468  0.00  0.00    +0.000 A 
ENDROOT
BRANCH   3   6
ATOM      6  C   UNL     1       3.155   3.893  18.876  0.00  0.00    +0.000 A 
ATOM      7  C   UNL     1       1.833   4.217  18.537  0.00  0.00    +0.000 A 
ATOM      8  F   UNL     1       1.569   5.072  17.537  0.00  0.00    +0.000 F 
ATOM      9  C   UNL     1       0.738   3.679  19.220  0.00  0.00    +0.000 A 
ATOM     10  C   UNL     1       0.942   2.790  20.269  0.00  0.00    +0.000 A 
ATOM     11  C   UNL     1       2.243   2.441  20.620  0.00  0.00    +0.000 A 
ATOM     12  C   UNL     1       3.332   2.987  19.927  0.00  0.00    +0.000 A 
ATOM     13  F   UNL     1       4.558   2.615  20.324  0.00  0.00    +0.000 F 
ENDBRANCH   3   6
BRANCH   5  14
ATOM     14  C   UNL     1       6.031   4.649  15.088  0.00  0.00    +0.000 A 
ATOM     15  C   UNL     1       7.212   5.244  14.619  0.00  0.00    +0.000 A 
ATOM     16  C   UNL     1       7.679   5.004  13.325  0.00  0.00    +0.000 A 
ATOM     17  C   UNL     1       6.955   4.180  12.469  0.00  0.00    +0.000 A 
ATOM     18  C   UNL     1       5.758   3.614  12.903  0.00  0.00    +0.000 A 
ATOM     19  C   UNL     1       5.297   3.851  14.201  0.00  0.00    +0.000 A 
ENDBRANCH   5  14
BRANCH   1  21
ATOM     20  O   UNL     1       8.367   5.869  17.898  0.00  0.00    +0.000 OA
ATOM     21  C   UNL     1       7.260   6.345  17.674  0.00  0.00    +0.000 C 
ATOM     22  N   UNL     1       7.047   7.695  17.493  0.00  0.00    +0.000 N 
ATOM     23  H   UNL     1       6.077   7.997  17.468  0.00  0.00    +0.000 HD
BRANCH  22  24
ATOM     24  C   UNL     1       8.119   8.653  17.623  0.00  0.00    +0.000 C 
ATOM     25  C   UNL     1       7.661  10.087  17.395  0.00  0.00    +0.000 C 
ATOM     26  C   UNL     1       8.782  10.916  18.005  0.00  0.00    +0.000 C 
ATOM     27  C   UNL     1       9.347  10.075  19.149  0.00  0.00    +0.000 C 
ATOM     28  C   UNL     1       8.708   8.693  19.029  0.00  0.00    +0.000 C 
ENDBRANCH  22  24
ENDBRANCH   1  21
TORSDOF 4
ENDMDL
MODEL 8
REMARK VINA RESULT:      -8.1      5.493      8.684
REMARK  Name = 
REMARK  4 active torsions:
REMARK  status: ('A' for Active; 'I' for Inactive)
REMARK    1  A    between atoms: C_2  and  C_9
REMARK    2  A    between atoms: N_3  and  C_4
REMARK    3  A    between atoms: C_11  and  C_12
REMARK    4  A    between atoms: C_21  and  C_22
REMARK                            x       y       z     vdW  Elec       q    Type
REMARK                         _______ _______ _______ _____ _____    ______ ____
ROOT
ATOM      1  C   UNL     1       1.274   9.091  18.464  0.00  0.00    +0.000 A 
ATOM      2  N   UNL     1       2.061   8.416  17.540  0.00  0.00    +0.000 NA
ATOM      3  C   UNL     1       2.612   7.435  18.229  0.00  0.00    +0.000 A 
ATOM      4  O   UNL     1       2.298   7.460  19.565  0.00  0.00    +0.000 OA
ATOM      5  C   UNL     1       1.453   8.532  19.716  0.00  0.00    +0.000 A 
ENDROOT
BRANCH   3   6
ATOM      6  C   UNL     1       3.448   6.340  17.750  0.00  0.00    +0.000 A 
ATOM      7  C   UNL     1       2.923   5.043  17.671  0.00  0.00    +0.000 A 
ATOM      8  F   UNL     1       1.644   4.797  17.996  0.00  0.00    +0.000 F 
ATOM      9  C   UNL     1       3.697   3.951  17.264  0.00  0.00    +0.000 A 
ATOM     10  C   UNL     1       5.030   4.136  16.918  0.00  0.00    +0.000 A 
ATOM     11  C   UNL     1       5.576   5.415  16.975  0.00  0.00    +0.000 A 
ATOM     12  C   UNL     1       4.789   6.500  17.385  0.00  0.00    +0.000 A 
ATOM     13  F   UNL     1       5.381   7.703  17.427  0.00  0.00    +0.000 F 
ENDBRANCH   3   6
BRANCH   5  14
ATOM     14  C   UNL     1       0.980   8.810  21.067  0.00  0.00    +0.000 A 
ATOM     15  C   UNL     1       1.883   8.943  22.133  0.00  0.00    +0.000 A 
ATOM     16  C   UNL     1       1.446   9.293  23.412  0.00  0.00    +0.000 A 
ATOM     17  C   UNL     1       0.090   9.494  23.650  0.00  0.00    +0.000 A 
ATOM     18  C   UNL     1      -0.826   9.326  22.614  0.00  0.00    +0.000 A 
ATOM     19  C   UNL     1      -0.385   8.981  21.332  0.00  0.00    +0.000 A 
ENDBRANCH   5  14
BRANCH   1  21
ATOM     20  O   UNL     1       0.654  11.372  18.319  0.00  0.00    +0.000 OA
ATOM     21  C   UNL     1       0.395  10.195  18.099  0.00  0.00    +0.000 C 
ATOM     22  N   UNL     1      -0.763   9.788  17.471  0.00  0.00    +0.000 N 
ATOM     23  H   UNL     1      -0.950   8.789  17.476  0.00  0.00    +0.000 HD
BRANCH  22  24
ATOM     24  C   UNL     1      -1.786  10.731  17.086  0.00  0.00    +0.000 C 
ATOM     25  C   UNL     1      -2.620  10.251  15.907  0.00  0.00    +0.000 C 
ATOM     26  C   UNL     1      -3.860  11.132  15.969  0.00  0.00    +0.000 C 
ATOM     27  C   UNL     1      -4.069  11.453  17.448  0.00  0.00    +0.000 C 
ATOM     28  C   UNL     1      -2.825  10.954  18.181  0.00  0.00    +0.000 C 
ENDBRANCH  22  24
ENDBRANCH   1  21
TORSDOF 4
ENDMDL
MODEL 9
REMARK VINA RESULT:      -8.1      1.128      1.467
REMARK  Name = 
REMARK  4 active torsions:
REMARK  status: ('A' for Active; 'I' for Inactive)
REMARK    1  A    between atoms: C_2  and  C_9
REMARK    2  A    between atoms: N_3  and  C_4
REMARK    3  A    between atoms: C_11  and  C_12
REMARK    4  A    between atoms: C_21  and  C_22
REMARK                            x       y       z     vdW  Elec       q    Type
REMARK                         _______ _______ _______ _____ _____    ______ ____
ROOT
ATOM      1  C   UNL     1       5.883   5.624  16.886  0.00  0.00    +0.000 A 
ATOM      2  N   UNL     1       5.087   5.562  18.022  0.00  0.00    +0.000 NA
ATOM      3  C   UNL     1       4.256   4.564  17.790  0.00  0.00    +0.000 A 
ATOM      4  O   UNL     1       4.401   4.008  16.543  0.00  0.00    +0.000 OA
ATOM      5  C   UNL     1       5.434   4.700  15.959  0.00  0.00    +0.000 A 
ENDROOT
BRANCH   3   6
ATOM      6  C   UNL     1       3.266   3.973  18.684  0.00  0.00    +0.000 A 
ATOM      7  C   UNL     1       1.904   4.247  18.498  0.00  0.00    +0.000 A 
ATOM      8  F   UNL     1       1.490   5.020  17.482  0.00  0.00    +0.000 F 
ATOM      9  C   UNL     1       0.921   3.743  19.357  0.00  0.00    +0.000 A 
ATOM     10  C   UNL     1       1.283   2.940  20.431  0.00  0.00    +0.000 A 
ATOM     11  C   UNL     1       2.627   2.641  20.634  0.00  0.00    +0.000 A 
ATOM     12  C   UNL     1       3.602   3.152  19.767  0.00  0.00    +0.000 A 
ATOM     13  F   UNL     1       4.879   2.833  20.026  0.00  0.00    +0.000 F 
ENDBRANCH   3   6
BRANCH   5  14
ATOM     14  C   UNL     1       5.786   4.325  14.595  0.00  0.00    +0.000 A 
ATOM     15  C   UNL     1       4.872   3.643  13.777  0.00  0.00    +0.000 A 
ATOM     16  C   UNL     1       5.170   3.356  12.444  0.00  0.00    +0.000 A 
ATOM     17  C   UNL     1       6.400   3.728  11.912  0.00  0.00    +0.000 A 
ATOM     18  C   UNL     1       7.337   4.369  12.721  0.00  0.00    +0.000 A 
ATOM     19  C   UNL     1       7.034   4.661  14.054  0.00  0.00    +0.000 A 
ENDBRANCH   5  14
BRANCH   1  21
ATOM     20  O   UNL     1       7.942   6.357  15.974  0.00  0.00    +0.000 OA
ATOM     21  C   UNL     1       7.019   6.528  16.763  0.00  0.00    +0.000 C 
ATOM     22  N   UNL     1       6.957   7.606  17.619  0.00  0.00    +0.000 N 
ATOM     23  H   UNL     1       6.234   7.570  18.334  0.00  0.00    +0.000 HD
BRANCH  22  24
ATOM     24  C   UNL     1       8.019   8.581  17.687  0.00  0.00    +0.000 C 
ATOM     25  C   UNL     1       7.516  10.013  17.566  0.00  0.00    +0.000 C 
ATOM     26  C   UNL     1       8.676  10.840  18.102  0.00  0.00    +0.000 C 
ATOM     27  C   UNL     1       9.363   9.965  19.149  0.00  0.00    +0.000 C 
ATOM     28  C   UNL     1       8.740   8.575  19.031  0.00  0.00    +0.000 C 
ENDBRANCH  22  24
ENDBRANCH   1  21
TORSDOF 4
ENDMDL
