MODEL 1
REMARK VINA RESULT:      -8.7      0.000      0.000
REMARK  Name = 
REMARK  6 active torsions:
REMARK  status: ('A' for Active; 'I' for Inactive)
REMARK    1  A    between atoms: C_1  and  C_2
REMARK    2  A    between atoms: N_4  and  C_5
REMARK    3  A    between atoms: C_5  and  C_6
REMARK    4  A    between atoms: C_6  and  N_7
REMARK    5  A    between atoms: C_8  and  C_10
REMARK    6  A    between atoms: C_14  and  C_15
REMARK                            x       y       z     vdW  Elec       q    Type
REMARK                         _______ _______ _______ _____ _____    ______ ____
ROOT
ATOM      1  C   UNL     1       5.324   5.400  16.184  0.00  0.00    +0.000 A 
ATOM      2  C   UNL     1       4.823   6.708  16.224  0.00  0.00    +0.000 A 
ATOM      3  C   UNL     1       3.978   7.118  17.262  0.00  0.00    +0.000 A 
ATOM      4  C   UNL     1       3.643   6.206  18.284  0.00  0.00    +0.000 A 
ATOM      5  C   UNL     1       2.873   6.236  19.479  0.00  0.00    +0.000 A 
ATOM      6  N   UNL     1       2.902   5.062  20.130  0.00  0.00    +0.000 NA
ATOM      7  N   UNL     1       3.658   4.280  19.332  0.00  0.00    +0.000 N 
ATOM      8  C   UNL     1       4.143   4.911  18.216  0.00  0.00    +0.000 A 
ATOM      9  C   UNL     1       4.969   4.466  17.174  0.00  0.00    +0.000 A 
ATOM     10  H   UNL     1       3.818   3.320  19.611  0.00  0.00    +0.000 HD
ENDROOT
BRANCH   5  11
ATOM     11  C   UNL     1       2.105   7.406  20.000  0.00  0.00    +0.000 A 
ATOM     12  N   UNL     1       1.680   8.427  19.281  0.00  0.00    +0.000 NA
ATOM     13  C   UNL     1       0.991   9.229  20.155  0.00  0.00    +0.000 A 
ATOM     14  C   UNL     1       0.300  10.426  19.916  0.00  0.00    +0.000 A 
ATOM     15  C   UNL     1      -0.327  11.067  20.992  0.00  0.00    +0.000 A 
ATOM     16  C   UNL     1      -0.261  10.531  22.280  0.00  0.00    +0.000 A 
ATOM     17  C   UNL     1       0.416   9.331  22.537  0.00  0.00    +0.000 A 
ATOM     18  C   UNL     1       1.022   8.707  21.445  0.00  0.00    +0.000 A 
ATOM     19  N   UNL     1       1.734   7.541  21.314  0.00  0.00    +0.000 N 
ATOM     20  H   UNL     1       1.952   6.873  22.038  0.00  0.00    +0.000 HD
ENDBRANCH   5  11
BRANCH   1  22
ATOM     21  N   UNL     1       5.646   4.168  14.092  0.00  0.00    +0.000 N 
ATOM     22  C   UNL     1       6.214   4.946  15.079  0.00  0.00    +0.000 C 
ATOM     23  O   UNL     1       7.392   5.292  15.062  0.00  0.00    +0.000 OA
ATOM     24  H   UNL     1       4.643   4.022  14.075  0.00  0.00    +0.000 HD
BRANCH  21  25
ATOM     25  C   UNL     1       6.421   3.695  12.956  0.00  0.00    +0.000 C 
BRANCH  25  26
ATOM     26  C   UNL     1       5.585   2.879  11.962  0.00  0.00    +0.000 C 
BRANCH  26  30
ATOM     27  C   UNL     1       2.951   4.369   9.669  0.00  0.00    +0.000 C 
ATOM     28  C   UNL     1       3.554   3.415  10.664  0.00  0.00    +0.000 C 
ATOM     29  O   UNL     1       2.932   2.456  11.112  0.00  0.00    +0.000 OA
ATOM     30  N   UNL     1       4.848   3.712  11.022  0.00  0.00    +0.000 N 
ATOM     31  H   UNL     1       5.296   4.542  10.654  0.00  0.00    +0.000 HD
ENDBRANCH  26  30
ENDBRANCH  25  26
ENDBRANCH  21  25
ENDBRANCH   1  22
TORSDOF 5
ENDMDL
MODEL 2
REMARK VINA RESULT:      -8.5      1.402      2.042
REMARK  Name = 
REMARK  6 active torsions:
REMARK  status: ('A' for Active; 'I' for Inactive)
REMARK    1  A    between atoms: C_1  and  C_2
REMARK    2  A    between atoms: N_4  and  C_5
REMARK    3  A    between atoms: C_5  and  C_6
REMARK    4  A    between atoms: C_6  and  N_7
REMARK    5  A    between atoms: C_8  and  C_10
REMARK    6  A    between atoms: C_14  and  C_15
REMARK                            x       y       z     vdW  Elec       q    Type
REMARK                         _______ _______ _______ _____ _____    ______ ____
ROOT
ATOM      1  C   UNL     1       5.331   5.245  16.572  0.00  0.00    +0.000 A 
ATOM      2  C   UNL     1       4.854   6.561  16.504  0.00  0.00    +0.000 A 
ATOM      3  C   UNL     1       3.950   7.044  17.459  0.00  0.00    +0.000 A 
ATOM      4  C   UNL     1       3.531   6.200  18.506  0.00  0.00    +0.000 A 
ATOM      5  C   UNL     1       2.686   6.311  19.644  0.00  0.00    +0.000 A 
ATOM      6  N   UNL     1       2.649   5.177  20.362  0.00  0.00    +0.000 NA
ATOM      7  N   UNL     1       3.440   4.338  19.662  0.00  0.00    +0.000 N 
ATOM      8  C   UNL     1       4.009   4.895  18.546  0.00  0.00    +0.000 A 
ATOM      9  C   UNL     1       4.893   4.377  17.589  0.00  0.00    +0.000 A 
ATOM     10  H   UNL     1       3.563   3.394  20.006  0.00  0.00    +0.000 HD
ENDROOT
BRANCH   5  11
ATOM     11  C   UNL     1       1.908   7.522  20.045  0.00  0.00    +0.000 A 
ATOM     12  N   UNL     1       1.365   7.728  21.229  0.00  0.00    +0.000 NA
ATOM     13  C   UNL     1       0.797   8.975  21.160  0.00  0.00    +0.000 A 
ATOM     14  C   UNL     1       0.120   9.706  22.147  0.00  0.00    +0.000 A 
ATOM     15  C   UNL     1      -0.379  10.973  21.822  0.00  0.00    +0.000 A 
ATOM     16  C   UNL     1      -0.214  11.499  20.538  0.00  0.00    +0.000 A 
ATOM     17  C   UNL     1       0.468  10.788  19.542  0.00  0.00    +0.000 A 
ATOM     18  C   UNL     1       0.965   9.532  19.896  0.00  0.00    +0.000 A 
ATOM     19  N   UNL     1       1.683   8.586  19.208  0.00  0.00    +0.000 N 
ATOM     20  H   UNL     1       2.012   8.640  18.256  0.00  0.00    +0.000 HD
ENDBRANCH   5  11
BRANCH   1  22
ATOM     21  N   UNL     1       5.762   4.371  14.327  0.00  0.00    +0.000 N 
ATOM     22  C   UNL     1       6.282   4.713  15.557  0.00  0.00    +0.000 C 
ATOM     23  O   UNL     1       7.476   4.623  15.827  0.00  0.00    +0.000 OA
ATOM     24  H   UNL     1       4.798   4.589  14.103  0.00  0.00    +0.000 HD
BRANCH  21  25
ATOM     25  C   UNL     1       6.610   3.868  13.257  0.00  0.00    +0.000 C 
BRANCH  25  26
ATOM     26  C   UNL     1       5.819   3.485  12.000  0.00  0.00    +0.000 C 
BRANCH  26  30
ATOM     27  C   UNL     1       6.116  -0.225  11.244  0.00  0.00    +0.000 C 
ATOM     28  C   UNL     1       6.519   1.224  11.293  0.00  0.00    +0.000 C 
ATOM     29  O   UNL     1       7.588   1.622  10.840  0.00  0.00    +0.000 OA
ATOM     30  N   UNL     1       5.593   2.051  11.886  0.00  0.00    +0.000 N 
ATOM     31  H   UNL     1       4.748   1.659  12.283  0.00  0.00    +0.000 HD
ENDBRANCH  26  30
ENDBRANCH  25  26
ENDBRANCH  21  25
ENDBRANCH   1  22
TORSDOF 5
ENDMDL
MODEL 3
REMARK VINA RESULT:      -8.3      1.007      1.134
REMARK  Name = 
REMARK  6 active torsions:
REMARK  status: ('A' for Active; 'I' for Inactive)
REMARK    1  A    between atoms: C_1  and  C_2
REMARK    2  A    between atoms: N_4  and  C_5
REMARK    3  A    between atoms: C_5  and  C_6
REMARK    4  A    between atoms: C_6  and  N_7
REMARK    5  A    between atoms: C_8  and  C_10
REMARK    6  A    between atoms: C_14  and  C_15
REMARK                            x       y       z     vdW  Elec       q    Type
REMARK                         _______ _______ _______ _____ _____    ______ ____
ROOT
ATOM      1  C   UNL     1       5.325   5.550  17.018  0.00  0.00    +0.000 A 
ATOM      2  C   UNL     1       4.922   6.893  17.024  0.00  0.00    +0.000 A 
ATOM      3  C   UNL     1       3.956   7.344  17.932  0.00  0.00    +0.000 A 
ATOM      4  C   UNL     1       3.398   6.440  18.858  0.00  0.00    +0.000 A 
ATOM      5  C   UNL     1       2.455   6.503  19.919  0.00  0.00    +0.000 A 
ATOM      6  N   UNL     1       2.294   5.317  20.527  0.00  0.00    +0.000 NA
ATOM      7  N   UNL     1       3.106   4.495  19.830  0.00  0.00    +0.000 N 
ATOM      8  C   UNL     1       3.806   5.111  18.825  0.00  0.00    +0.000 A 
ATOM      9  C   UNL     1       4.749   4.626  17.908  0.00  0.00    +0.000 A 
ATOM     10  H   UNL     1       3.148   3.520  20.098  0.00  0.00    +0.000 HD
ENDROOT
BRANCH   5  11
ATOM     11  C   UNL     1       1.703   7.718  20.354  0.00  0.00    +0.000 A 
ATOM     12  N   UNL     1       1.302   8.696  19.565  0.00  0.00    +0.000 NA
ATOM     13  C   UNL     1       0.620   9.566  20.378  0.00  0.00    +0.000 A 
ATOM     14  C   UNL     1      -0.048  10.757  20.054  0.00  0.00    +0.000 A 
ATOM     15  C   UNL     1      -0.672  11.479  21.078  0.00  0.00    +0.000 A 
ATOM     16  C   UNL     1      -0.626  11.028  22.400  0.00  0.00    +0.000 A 
ATOM     17  C   UNL     1       0.028   9.837  22.742  0.00  0.00    +0.000 A 
ATOM     18  C   UNL     1       0.632   9.132  21.699  0.00  0.00    +0.000 A 
ATOM     19  N   UNL     1       1.324   7.947  21.653  0.00  0.00    +0.000 N 
ATOM     20  H   UNL     1       1.524   7.325  22.422  0.00  0.00    +0.000 HD
ENDBRANCH   5  11
BRANCH   1  22
ATOM     21  N   UNL     1       6.135   5.341  14.717  0.00  0.00    +0.000 N 
ATOM     22  C   UNL     1       6.341   5.052  16.049  0.00  0.00    +0.000 C 
ATOM     23  O   UNL     1       7.323   4.438  16.457  0.00  0.00    +0.000 OA
ATOM     24  H   UNL     1       5.386   5.965  14.442  0.00  0.00    +0.000 HD
BRANCH  21  25
ATOM     25  C   UNL     1       7.082   4.924  13.694  0.00  0.00    +0.000 C 
BRANCH  25  26
ATOM     26  C   UNL     1       6.659   3.633  12.981  0.00  0.00    +0.000 C 
BRANCH  26  30
ATOM     27  C   UNL     1       3.582   3.061  10.830  0.00  0.00    +0.000 C 
ATOM     28  C   UNL     1       4.907   2.758  11.476  0.00  0.00    +0.000 C 
ATOM     29  O   UNL     1       5.504   1.703  11.282  0.00  0.00    +0.000 OA
ATOM     30  N   UNL     1       5.381   3.758  12.293  0.00  0.00    +0.000 N 
ATOM     31  H   UNL     1       4.823   4.588  12.451  0.00  0.00    +0.000 HD
ENDBRANCH  26  30
ENDBRANCH  25  26
ENDBRANCH  21  25
ENDBRANCH   1  22
TORSDOF 5
ENDMDL
MODEL 4
REMARK VINA RESULT:      -8.3      1.273      1.464
REMARK  Name = 
REMARK  6 active torsions:
REMARK  status: ('A' for Active; 'I' for Inactive)
REMARK    1  A    between atoms: C_1  and  C_2
REMARK    2  A    between atoms: N_4  and  C_5
REMARK    3  A    between atoms: C_5  and  C_6
REMARK    4  A    between atoms: C_6  and  N_7
REMARK    5  A    between atoms: C_8  and  C_10
REMARK    6  A    between atoms: C_14  and  C_15
REMARK                            x       y       z     vdW  Elec       q    Type
REMARK                         _______ _______ _______ _____ _____    ______ ____
ROOT
ATOM      1  C   UNL     1       5.219   5.103  16.348  0.00  0.00    +0.000 A 
ATOM      2  C   UNL     1       4.850   6.455  16.380  0.00  0.00    +0.000 A 
ATOM      3  C   UNL     1       3.989   6.938  17.374  0.00  0.00    +0.000 A 
ATOM      4  C   UNL     1       3.505   6.054  18.359  0.00  0.00    +0.000 A 
ATOM      5  C   UNL     1       2.672   6.148  19.508  0.00  0.00    +0.000 A 
ATOM      6  N   UNL     1       2.545   4.970  20.141  0.00  0.00    +0.000 NA
ATOM      7  N   UNL     1       3.265   4.124  19.375  0.00  0.00    +0.000 N 
ATOM      8  C   UNL     1       3.876   4.716  18.300  0.00  0.00    +0.000 A 
ATOM      9  C   UNL     1       4.713   4.200  17.300  0.00  0.00    +0.000 A 
ATOM     10  H   UNL     1       3.311   3.151  19.647  0.00  0.00    +0.000 HD
ENDROOT
BRANCH   5  11
ATOM     11  C   UNL     1       1.996   7.384  20.003  0.00  0.00    +0.000 A 
ATOM     12  N   UNL     1       1.708   8.445  19.274  0.00  0.00    +0.000 NA
ATOM     13  C   UNL     1       1.056   9.306  20.122  0.00  0.00    +0.000 A 
ATOM     14  C   UNL     1       0.497  10.566  19.862  0.00  0.00    +0.000 A 
ATOM     15  C   UNL     1      -0.118  11.259  20.912  0.00  0.00    +0.000 A 
ATOM     16  C   UNL     1      -0.168  10.711  22.196  0.00  0.00    +0.000 A 
ATOM     17  C   UNL     1       0.376   9.450  22.473  0.00  0.00    +0.000 A 
ATOM     18  C   UNL     1       0.973   8.777  21.406  0.00  0.00    +0.000 A 
ATOM     19  N   UNL     1       1.574   7.548  21.298  0.00  0.00    +0.000 N 
ATOM     20  H   UNL     1       1.690   6.858  22.025  0.00  0.00    +0.000 HD
ENDBRANCH   5  11
BRANCH   1  22
ATOM     21  N   UNL     1       6.847   5.494  14.561  0.00  0.00    +0.000 N 
ATOM     22  C   UNL     1       6.123   4.573  15.289  0.00  0.00    +0.000 C 
ATOM     23  O   UNL     1       6.218   3.361  15.117  0.00  0.00    +0.000 OA
ATOM     24  H   UNL     1       6.840   6.471  14.828  0.00  0.00    +0.000 HD
BRANCH  21  25
ATOM     25  C   UNL     1       7.778   5.079  13.523  0.00  0.00    +0.000 C 
BRANCH  25  26
ATOM     26  C   UNL     1       7.089   4.802  12.181  0.00  0.00    +0.000 C 
BRANCH  26  30
ATOM     27  C   UNL     1       5.920   1.277  11.387  0.00  0.00    +0.000 C 
ATOM     28  C   UNL     1       5.810   2.746  11.693  0.00  0.00    +0.000 C 
ATOM     29  O   UNL     1       4.727   3.318  11.781  0.00  0.00    +0.000 OA
ATOM     30  N   UNL     1       7.017   3.383  11.862  0.00  0.00    +0.000 N 
ATOM     31  H   UNL     1       7.880   2.869  11.733  0.00  0.00    +0.000 HD
ENDBRANCH  26  30
ENDBRANCH  25  26
ENDBRANCH  21  25
ENDBRANCH   1  22
TORSDOF 5
ENDMDL
MODEL 5
REMARK VINA RESULT:      -8.3      0.913      1.535
REMARK  Name = 
REMARK  6 active torsions:
REMARK  status: ('A' for Active; 'I' for Inactive)
REMARK    1  A    between atoms: C_1  and  C_2
REMARK    2  A    between atoms: N_4  and  C_5
REMARK    3  A    between atoms: C_5  and  C_6
REMARK    4  A    between atoms: C_6  and  N_7
REMARK    5  A    between atoms: C_8  and  C_10
REMARK    6  A    between atoms: C_14  and  C_15
REMARK                            x       y       z     vdW  Elec       q    Type
REMARK                         _______ _______ _______ _____ _____    ______ ____
ROOT
ATOM      1  C   UNL     1       5.649   5.452  16.727  0.00  0.00    +0.000 A 
ATOM      2  C   UNL     1       5.183   6.774  16.724  0.00  0.00    +0.000 A 
ATOM      3  C   UNL     1       4.189   7.183  17.622  0.00  0.00    +0.000 A 
ATOM      4  C   UNL     1       3.666   6.257  18.546  0.00  0.00    +0.000 A 
ATOM      5  C   UNL     1       2.711   6.280  19.599  0.00  0.00    +0.000 A 
ATOM      6  N   UNL     1       2.600   5.089  20.210  0.00  0.00    +0.000 NA
ATOM      7  N   UNL     1       3.457   4.304  19.523  0.00  0.00    +0.000 N 
ATOM      8  C   UNL     1       4.136   4.949  18.522  0.00  0.00    +0.000 A 
ATOM      9  C   UNL     1       5.110   4.505  17.617  0.00  0.00    +0.000 A 
ATOM     10  H   UNL     1       3.543   3.333  19.796  0.00  0.00    +0.000 HD
ENDROOT
BRANCH   5  11
ATOM     11  C   UNL     1       1.898   7.459  20.022  0.00  0.00    +0.000 A 
ATOM     12  N   UNL     1       1.340   7.621  21.206  0.00  0.00    +0.000 NA
ATOM     13  C   UNL     1       0.740   8.855  21.162  0.00  0.00    +0.000 A 
ATOM     14  C   UNL     1       0.035   9.543  22.161  0.00  0.00    +0.000 A 
ATOM     15  C   UNL     1      -0.494  10.805  21.863  0.00  0.00    +0.000 A 
ATOM     16  C   UNL     1      -0.331  11.367  20.594  0.00  0.00    +0.000 A 
ATOM     17  C   UNL     1       0.378  10.699  19.587  0.00  0.00    +0.000 A 
ATOM     18  C   UNL     1       0.904   9.448  19.914  0.00  0.00    +0.000 A 
ATOM     19  N   UNL     1       1.653   8.537  19.210  0.00  0.00    +0.000 N 
ATOM     20  H   UNL     1       1.989   8.624  18.263  0.00  0.00    +0.000 HD
ENDBRANCH   5  11
BRANCH   1  22
ATOM     21  N   UNL     1       6.481   5.258  14.433  0.00  0.00    +0.000 N 
ATOM     22  C   UNL     1       6.696   4.999  15.770  0.00  0.00    +0.000 C 
ATOM     23  O   UNL     1       7.710   4.448  16.190  0.00  0.00    +0.000 OA
ATOM     24  H   UNL     1       5.699   5.834  14.146  0.00  0.00    +0.000 HD
BRANCH  21  25
ATOM     25  C   UNL     1       7.455   4.881  13.420  0.00  0.00    +0.000 C 
BRANCH  25  26
ATOM     26  C   UNL     1       7.015   3.665  12.594  0.00  0.00    +0.000 C 
BRANCH  26  30
ATOM     27  C   UNL     1       3.634   3.041  10.983  0.00  0.00    +0.000 C 
ATOM     28  C   UNL     1       5.022   2.731  11.475  0.00  0.00    +0.000 C 
ATOM     29  O   UNL     1       5.530   1.621  11.345  0.00  0.00    +0.000 OA
ATOM     30  N   UNL     1       5.660   3.790  12.077  0.00  0.00    +0.000 N 
ATOM     31  H   UNL     1       5.173   4.670  12.197  0.00  0.00    +0.000 HD
ENDBRANCH  26  30
ENDBRANCH  25  26
ENDBRANCH  21  25
ENDBRANCH   1  22
TORSDOF 5
ENDMDL
MODEL 6
REMARK VINA RESULT:      -8.2      1.479      2.099
REMARK  Name = 
REMARK  6 active torsions:
REMARK  status: ('A' for Active; 'I' for Inactive)
REMARK    1  A    between atoms: C_1  and  C_2
REMARK    2  A    between atoms: N_4  and  C_5
REMARK    3  A    between atoms: C_5  and  C_6
REMARK    4  A    between atoms: C_6  and  N_7
REMARK    5  A    between atoms: C_8  and  C_10
REMARK    6  A    between atoms: C_14  and  C_15
REMARK                            x       y       z     vdW  Elec       q    Type
REMARK                         _______ _______ _______ _____ _____    ______ ____
ROOT
ATOM      1  C   UNL     1       4.421   6.307  17.364  0.00  0.00    +0.000 A 
ATOM      2  C   UNL     1       3.902   7.603  17.233  0.00  0.00    +0.000 A 
ATOM      3  C   UNL     1       2.961   8.091  18.148  0.00  0.00    +0.000 A 
ATOM      4  C   UNL     1       2.546   7.273  19.219  0.00  0.00    +0.000 A 
ATOM      5  C   UNL     1       1.672   7.400  20.332  0.00  0.00    +0.000 A 
ATOM      6  N   UNL     1       1.656   6.294  21.094  0.00  0.00    +0.000 NA
ATOM      7  N   UNL     1       2.491   5.455  20.444  0.00  0.00    +0.000 N 
ATOM      8  C   UNL     1       3.067   5.989  19.321  0.00  0.00    +0.000 A 
ATOM      9  C   UNL     1       3.988   5.464  18.403  0.00  0.00    +0.000 A 
ATOM     10  H   UNL     1       2.637   4.530  20.828  0.00  0.00    +0.000 HD
ENDROOT
BRANCH   5  11
ATOM     11  C   UNL     1       0.846   8.598  20.668  0.00  0.00    +0.000 A 
ATOM     12  N   UNL     1       0.389   9.482  19.803  0.00  0.00    +0.000 NA
ATOM     13  C   UNL     1      -0.348  10.372  20.543  0.00  0.00    +0.000 A 
ATOM     14  C   UNL     1      -1.086  11.490  20.124  0.00  0.00    +0.000 A 
ATOM     15  C   UNL     1      -1.757  12.252  21.088  0.00  0.00    +0.000 A 
ATOM     16  C   UNL     1      -1.690  11.913  22.441  0.00  0.00    +0.000 A 
ATOM     17  C   UNL     1      -0.967  10.795  22.878  0.00  0.00    +0.000 A 
ATOM     18  C   UNL     1      -0.316  10.046  21.895  0.00  0.00    +0.000 A 
ATOM     19  N   UNL     1       0.447   8.907  21.944  0.00  0.00    +0.000 N 
ATOM     20  H   UNL     1       0.681   8.362  22.761  0.00  0.00    +0.000 HD
ENDBRANCH   5  11
BRANCH   1  22
ATOM     21  N   UNL     1       5.346   4.421  16.106  0.00  0.00    +0.000 N 
ATOM     22  C   UNL     1       5.412   5.769  16.391  0.00  0.00    +0.000 C 
ATOM     23  O   UNL     1       6.222   6.526  15.862  0.00  0.00    +0.000 OA
ATOM     24  H   UNL     1       4.578   3.864  16.460  0.00  0.00    +0.000 HD
BRANCH  21  25
ATOM     25  C   UNL     1       6.251   3.802  15.149  0.00  0.00    +0.000 C 
BRANCH  25  26
ATOM     26  C   UNL     1       5.778   3.953  13.698  0.00  0.00    +0.000 C 
BRANCH  26  30
ATOM     27  C   UNL     1       6.300   1.381  10.954  0.00  0.00    +0.000 C 
ATOM     28  C   UNL     1       5.598   2.449  11.747  0.00  0.00    +0.000 C 
ATOM     29  O   UNL     1       4.475   2.851  11.455  0.00  0.00    +0.000 OA
ATOM     30  N   UNL     1       6.319   2.928  12.816  0.00  0.00    +0.000 N 
ATOM     31  H   UNL     1       7.259   2.590  12.982  0.00  0.00    +0.000 HD
ENDBRANCH  26  30
ENDBRANCH  25  26
ENDBRANCH  21  25
ENDBRANCH   1  22
TORSDOF 5
ENDMDL
MODEL 7
REMARK VINA RESULT:      -8.2      1.482      2.335
REMARK  Name = 
REMARK  6 active torsions:
REMARK  status: ('A' for Active; 'I' for Inactive)
REMARK    1  A    between atoms: C_1  and  C_2
REMARK    2  A    between atoms: N_4  and  C_5
REMARK    3  A    between atoms: C_5  and  C_6
REMARK    4  A    between atoms: C_6  and  N_7
REMARK    5  A    between atoms: C_8  and  C_10
REMARK    6  A    between atoms: C_14  and  C_15
REMARK                            x       y       z     vdW  Elec       q    Type
REMARK                         _______ _______ _______ _____ _____    ______ ____
ROOT
ATOM      1  C   UNL     1       4.311   6.309  17.279  0.00  0.00    +0.000 A 
ATOM      2  C   UNL     1       3.768   7.601  17.233  0.00  0.00    +0.000 A 
ATOM      3  C   UNL     1       2.868   8.032  18.215  0.00  0.00    +0.000 A 
ATOM      4  C   UNL     1       2.519   7.161  19.267  0.00  0.00    +0.000 A 
ATOM      5  C   UNL     1       1.701   7.223  20.428  0.00  0.00    +0.000 A 
ATOM      6  N   UNL     1       1.739   6.084  21.138  0.00  0.00    +0.000 NA
ATOM      7  N   UNL     1       2.552   5.290  20.411  0.00  0.00    +0.000 N 
ATOM      8  C   UNL     1       3.063   5.882  19.285  0.00  0.00    +0.000 A 
ATOM      9  C   UNL     1       3.944   5.414  18.300  0.00  0.00    +0.000 A 
ATOM     10  H   UNL     1       2.730   4.351  20.744  0.00  0.00    +0.000 HD
ENDROOT
BRANCH   5  11
ATOM     11  C   UNL     1       0.875   8.391  20.858  0.00  0.00    +0.000 A 
ATOM     12  N   UNL     1       0.431   8.608  22.081  0.00  0.00    +0.000 NA
ATOM     13  C   UNL     1      -0.233   9.807  22.023  0.00  0.00    +0.000 A 
ATOM     14  C   UNL     1      -0.868  10.529  23.044  0.00  0.00    +0.000 A 
ATOM     15  C   UNL     1      -1.489  11.743  22.724  0.00  0.00    +0.000 A 
ATOM     16  C   UNL     1      -1.484  12.224  21.412  0.00  0.00    +0.000 A 
ATOM     17  C   UNL     1      -0.847  11.522  20.381  0.00  0.00    +0.000 A 
ATOM     18  C   UNL     1      -0.227  10.321  20.729  0.00  0.00    +0.000 A 
ATOM     19  N   UNL     1       0.493   9.400  20.010  0.00  0.00    +0.000 N 
ATOM     20  H   UNL     1       0.727   9.437  19.029  0.00  0.00    +0.000 HD
ENDBRANCH   5  11
BRANCH   1  22
ATOM     21  N   UNL     1       5.458   4.470  16.140  0.00  0.00    +0.000 N 
ATOM     22  C   UNL     1       5.260   5.832  16.235  0.00  0.00    +0.000 C 
ATOM     23  O   UNL     1       5.803   6.640  15.487  0.00  0.00    +0.000 OA
ATOM     24  H   UNL     1       4.888   3.834  16.684  0.00  0.00    +0.000 HD
BRANCH  21  25
ATOM     25  C   UNL     1       6.343   3.899  15.137  0.00  0.00    +0.000 C 
BRANCH  25  26
ATOM     26  C   UNL     1       5.769   3.987  13.717  0.00  0.00    +0.000 C 
BRANCH  26  30
ATOM     27  C   UNL     1       6.262   1.411  10.971  0.00  0.00    +0.000 C 
ATOM     28  C   UNL     1       5.563   2.470  11.779  0.00  0.00    +0.000 C 
ATOM     29  O   UNL     1       4.426   2.851  11.515  0.00  0.00    +0.000 OA
ATOM     30  N   UNL     1       6.304   2.968  12.825  0.00  0.00    +0.000 N 
ATOM     31  H   UNL     1       7.255   2.648  12.966  0.00  0.00    +0.000 HD
ENDBRANCH  26  30
ENDBRANCH  25  26
ENDBRANCH  21  25
ENDBRANCH   1  22
TORSDOF 5
ENDMDL
MODEL 8
REMARK VINA RESULT:      -8.2      4.130      6.164
REMARK  Name = 
REMARK  6 active torsions:
REMARK  status: ('A' for Active; 'I' for Inactive)
REMARK    1  A    between atoms: C_1  and  C_2
REMARK    2  A    between atoms: N_4  and  C_5
REMARK    3  A    between atoms: C_5  and  C_6
REMARK    4  A    between atoms: C_6  and  N_7
REMARK    5  A    between atoms: C_8  and  C_10
REMARK    6  A    between atoms: C_14  and  C_15
REMARK                            x       y       z     vdW  Elec       q    Type
REMARK                         _______ _______ _______ _____ _____    ______ ____
ROOT
ATOM      1  C   UNL     1       2.339   7.102  19.320  0.00  0.00    +0.000 A 
ATOM      2  C   UNL     1       1.772   7.336  20.581  0.00  0.00    +0.000 A 
ATOM      3  C   UNL     1       1.153   8.558  20.869  0.00  0.00    +0.000 A 
ATOM      4  C   UNL     1       1.086   9.554  19.874  0.00  0.00    +0.000 A 
ATOM      5  C   UNL     1       0.540  10.862  19.760  0.00  0.00    +0.000 A 
ATOM      6  N   UNL     1       0.735  11.388  18.540  0.00  0.00    +0.000 NA
ATOM      7  N   UNL     1       1.434  10.432  17.894  0.00  0.00    +0.000 N 
ATOM      8  C   UNL     1       1.664   9.302  18.635  0.00  0.00    +0.000 A 
ATOM      9  C   UNL     1       2.315   8.099  18.328  0.00  0.00    +0.000 A 
ATOM     10  H   UNL     1       1.716  10.606  16.937  0.00  0.00    +0.000 HD
ENDROOT
BRANCH   5  11
ATOM     11  C   UNL     1      -0.177  11.610  20.834  0.00  0.00    +0.000 A 
ATOM     12  N   UNL     1       0.281  12.673  21.466  0.00  0.00    +0.000 NA
ATOM     13  C   UNL     1      -0.721  13.048  22.326  0.00  0.00    +0.000 A 
ATOM     14  C   UNL     1      -0.781  14.136  23.210  0.00  0.00    +0.000 A 
ATOM     15  C   UNL     1      -1.928  14.302  23.996  0.00  0.00    +0.000 A 
ATOM     16  C   UNL     1      -2.991  13.399  23.908  0.00  0.00    +0.000 A 
ATOM     17  C   UNL     1      -2.954  12.313  23.024  0.00  0.00    +0.000 A 
ATOM     18  C   UNL     1      -1.803  12.177  22.245  0.00  0.00    +0.000 A 
ATOM     19  N   UNL     1      -1.431  11.275  21.281  0.00  0.00    +0.000 N 
ATOM     20  H   UNL     1      -1.969  10.496  20.932  0.00  0.00    +0.000 HD
ENDBRANCH   5  11
BRANCH   1  22
ATOM     21  N   UNL     1       2.604   5.153  17.862  0.00  0.00    +0.000 N 
ATOM     22  C   UNL     1       3.012   5.812  19.002  0.00  0.00    +0.000 C 
ATOM     23  O   UNL     1       3.910   5.396  19.730  0.00  0.00    +0.000 OA
ATOM     24  H   UNL     1       1.959   5.598  17.221  0.00  0.00    +0.000 HD
BRANCH  21  25
ATOM     25  C   UNL     1       3.217   3.900  17.448  0.00  0.00    +0.000 C 
BRANCH  25  26
ATOM     26  C   UNL     1       2.429   2.669  17.913  0.00  0.00    +0.000 C 
BRANCH  26  30
ATOM     27  C   UNL     1       1.848   2.574  21.665  0.00  0.00    +0.000 C 
ATOM     28  C   UNL     1       1.571   2.885  20.219  0.00  0.00    +0.000 C 
ATOM     29  O   UNL     1       0.564   3.489  19.861  0.00  0.00    +0.000 OA
ATOM     30  N   UNL     1       2.534   2.435  19.347  0.00  0.00    +0.000 N 
ATOM     31  H   UNL     1       3.322   1.903  19.696  0.00  0.00    +0.000 HD
ENDBRANCH  26  30
ENDBRANCH  25  26
ENDBRANCH  21  25
ENDBRANCH   1  22
TORSDOF 5
ENDMDL
MODEL 9
REMARK VINA RESULT:      -8.2      4.041      5.902
REMARK  Name = 
REMARK  6 active torsions:
REMARK  status: ('A' for Active; 'I' for Inactive)
REMARK    1  A    between atoms: C_1  and  C_2
REMARK    2  A    between atoms: N_4  and  C_5
REMARK    3  A    between atoms: C_5  and  C_6
REMARK    4  A    between atoms: C_6  and  N_7
REMARK    5  A    between atoms: C_8  and  C_10
REMARK    6  A    between atoms: C_14  and  C_15
REMARK                            x       y       z     vdW  Elec       q    Type
REMARK                         _______ _______ _______ _____ _____    ______ ____
ROOT
ATOM      1  C   UNL     1       2.277   7.082  19.375  0.00  0.00    +0.000 A 
ATOM      2  C   UNL     1       1.662   7.299  20.616  0.00  0.00    +0.000 A 
ATOM      3  C   UNL     1       1.077   8.536  20.917  0.00  0.00    +0.000 A 
ATOM      4  C   UNL     1       1.095   9.564  19.952  0.00  0.00    +0.000 A 
ATOM      5  C   UNL     1       0.606  10.895  19.857  0.00  0.00    +0.000 A 
ATOM      6  N   UNL     1       0.877  11.452  18.665  0.00  0.00    +0.000 NA
ATOM      7  N   UNL     1       1.568  10.488  18.020  0.00  0.00    +0.000 N 
ATOM      8  C   UNL     1       1.720   9.328  18.734  0.00  0.00    +0.000 A 
ATOM      9  C   UNL     1       2.338   8.110  18.417  0.00  0.00    +0.000 A 
ATOM     10  H   UNL     1       1.901  10.681  17.084  0.00  0.00    +0.000 HD
ENDROOT
BRANCH   5  11
ATOM     11  C   UNL     1      -0.132  11.638  20.922  0.00  0.00    +0.000 A 
ATOM     12  N   UNL     1       0.275  12.749  21.505  0.00  0.00    +0.000 NA
ATOM     13  C   UNL     1      -0.728  13.095  22.375  0.00  0.00    +0.000 A 
ATOM     14  C   UNL     1      -0.834  14.208  23.222  0.00  0.00    +0.000 A 
ATOM     15  C   UNL     1      -1.972  14.333  24.029  0.00  0.00    +0.000 A 
ATOM     16  C   UNL     1      -2.979  13.366  23.999  0.00  0.00    +0.000 A 
ATOM     17  C   UNL     1      -2.896  12.253  23.152  0.00  0.00    +0.000 A 
ATOM     18  C   UNL     1      -1.757  12.158  22.351  0.00  0.00    +0.000 A 
ATOM     19  N   UNL     1      -1.352  11.245  21.410  0.00  0.00    +0.000 N 
ATOM     20  H   UNL     1      -1.850  10.423  21.102  0.00  0.00    +0.000 HD
ENDBRANCH   5  11
BRANCH   1  22
ATOM     21  N   UNL     1       4.272   5.668  19.262  0.00  0.00    +0.000 N 
ATOM     22  C   UNL     1       2.915   5.777  19.046  0.00  0.00    +0.000 C 
ATOM     23  O   UNL     1       2.227   4.848  18.630  0.00  0.00    +0.000 OA
ATOM     24  H   UNL     1       4.773   6.412  19.733  0.00  0.00    +0.000 HD
BRANCH  21  25
ATOM     25  C   UNL     1       4.986   4.428  18.998  0.00  0.00    +0.000 C 
BRANCH  25  26
ATOM     26  C   UNL     1       6.326   4.652  18.286  0.00  0.00    +0.000 C 
BRANCH  26  30
ATOM     27  C   UNL     1       7.820   8.079  17.624  0.00  0.00    +0.000 C 
ATOM     28  C   UNL     1       7.357   6.679  17.324  0.00  0.00    +0.000 C 
ATOM     29  O   UNL     1       7.466   6.178  16.209  0.00  0.00    +0.000 OA
ATOM     30  N   UNL     1       6.808   6.021  18.400  0.00  0.00    +0.000 N 
ATOM     31  H   UNL     1       6.703   6.501  19.285  0.00  0.00    +0.000 HD
ENDBRANCH  26  30
ENDBRANCH  25  26
ENDBRANCH  21  25
ENDBRANCH   1  22
TORSDOF 5
ENDMDL
