MODEL 1
REMARK VINA RESULT:      -6.3      0.000      0.000
REMARK  Name = 
REMARK  8 active torsions:
REMARK  status: ('A' for Active; 'I' for Inactive)
REMARK    1  A    between atoms: C_1  and  C_2
REMARK    2  A    between atoms: C_2  and  C_3
REMARK    3  A    between atoms: C_2  and  C_4
REMARK    4  A    between atoms: N_8  and  C_9
REMARK    5  A    between atoms: C_9  and  C_10
REMARK    6  A    between atoms: C_10  and  N_11
REMARK    7  A    between atoms: C_15  and  C_16
REMARK    8  A    between atoms: C_16  and  O_17
REMARK                            x       y       z     vdW  Elec       q    Type
REMARK                         _______ _______ _______ _____ _____    ______ ____
ROOT
ATOM      1  C   UNL     1       5.950   5.859  18.525  0.00  0.00    +0.000 C 
ENDROOT
BRANCH   1   6
ATOM      2  C   UNL     1       6.753   4.564  14.061  0.00  0.00    +0.000 A 
ATOM      3  N   UNL     1       7.704   5.129  14.780  0.00  0.00    +0.000 NA
ATOM      4  N   UNL     1       7.237   5.596  15.989  0.00  0.00    +0.000 NA
ATOM      5  C   UNL     1       5.947   5.395  16.166  0.00  0.00    +0.000 A 
ATOM      6  N   UNL     1       5.231   5.766  17.255  0.00  0.00    +0.000 N 
ATOM      7  S   UNL     1       5.214   4.566  14.838  0.00  0.00    +0.000 S 
ATOM      8  H   UNL     1       4.277   5.422  17.345  0.00  0.00    +0.000 HD
BRANCH   2  10
ATOM      9  C   UNL     1       5.662   3.327  12.200  0.00  0.00    +0.000 C 
ATOM     10  C   UNL     1       6.955   3.978  12.693  0.00  0.00    +0.000 C 
ATOM     11  C   UNL     1       7.426   5.050  11.710  0.00  0.00    +0.000 C 
ENDBRANCH   2  10
ENDBRANCH   1   6
BRANCH   1  12
ATOM     12  C   UNL     1       5.412   4.867  19.586  0.00  0.00    +0.000 C 
BRANCH  12  13
ATOM     13  N   UNL     1       4.217   4.078  19.191  0.00  0.00    +0.000 NA
ATOM     14  C   UNL     1       4.427   2.625  19.355  0.00  0.00    +0.000 C 
ATOM     15  C   UNL     1       3.196   1.808  18.935  0.00  0.00    +0.000 C 
ATOM     16  C   UNL     1       1.927   2.292  19.630  0.00  0.00    +0.000 C 
ATOM     17  C   UNL     1       1.764   3.811  19.493  0.00  0.00    +0.000 C 
ATOM     18  C   UNL     1       3.048   4.505  19.983  0.00  0.00    +0.000 C 
BRANCH  17  19
ATOM     19  C   UNL     1       1.407   4.195  18.048  0.00  0.00    +0.000 C 
BRANCH  19  20
ATOM     20  O   UNL     1       2.235   5.251  17.578  0.00  0.00    +0.000 OA
ATOM     21  H   UNL     1       2.516   5.751  18.366  0.00  0.00    +0.000 HD
ENDBRANCH  19  20
ENDBRANCH  17  19
ENDBRANCH  12  13
ENDBRANCH   1  12
TORSDOF 6
ENDMDL
MODEL 2
REMARK VINA RESULT:      -6.1      1.553      2.108
REMARK  Name = 
REMARK  8 active torsions:
REMARK  status: ('A' for Active; 'I' for Inactive)
REMARK    1  A    between atoms: C_1  and  C_2
REMARK    2  A    between atoms: C_2  and  C_3
REMARK    3  A    between atoms: C_2  and  C_4
REMARK    4  A    between atoms: N_8  and  C_9
REMARK    5  A    between atoms: C_9  and  C_10
REMARK    6  A    between atoms: C_10  and  N_11
REMARK    7  A    between atoms: C_15  and  C_16
REMARK    8  A    between atoms: C_16  and  O_17
REMARK                            x       y       z     vdW  Elec       q    Type
REMARK                         _______ _______ _______ _____ _____    ______ ____
ROOT
ATOM      1  C   UNL     1       4.996   5.997  18.451  0.00  0.00    +0.000 C 
ENDROOT
BRANCH   1   6
ATOM      2  C   UNL     1       5.940   4.052  14.260  0.00  0.00    +0.000 A 
ATOM      3  N   UNL     1       6.193   3.399  15.378  0.00  0.00    +0.000 NA
ATOM      4  N   UNL     1       6.020   4.187  16.494  0.00  0.00    +0.000 NA
ATOM      5  C   UNL     1       5.656   5.422  16.213  0.00  0.00    +0.000 A 
ATOM      6  N   UNL     1       5.431   6.406  17.116  0.00  0.00    +0.000 N 
ATOM      7  S   UNL     1       5.464   5.688  14.515  0.00  0.00    +0.000 S 
ATOM      8  H   UNL     1       5.007   7.272  16.790  0.00  0.00    +0.000 HD
BRANCH   2  10
ATOM      9  C   UNL     1       4.718   3.545  12.154  0.00  0.00    +0.000 C 
ATOM     10  C   UNL     1       6.059   3.461  12.883  0.00  0.00    +0.000 C 
ATOM     11  C   UNL     1       7.152   4.170  12.084  0.00  0.00    +0.000 C 
ENDBRANCH   2  10
ENDBRANCH   1   6
BRANCH   1  12
ATOM     12  C   UNL     1       3.454   5.919  18.574  0.00  0.00    +0.000 C 
BRANCH  12  13
ATOM     13  N   UNL     1       2.890   4.570  18.836  0.00  0.00    +0.000 NA
ATOM     14  C   UNL     1       1.581   4.634  19.516  0.00  0.00    +0.000 C 
ATOM     15  C   UNL     1       1.002   3.239  19.798  0.00  0.00    +0.000 C 
ATOM     16  C   UNL     1       0.961   2.375  18.540  0.00  0.00    +0.000 C 
ATOM     17  C   UNL     1       2.317   2.374  17.823  0.00  0.00    +0.000 C 
ATOM     18  C   UNL     1       2.757   3.826  17.568  0.00  0.00    +0.000 C 
BRANCH  17  19
ATOM     19  C   UNL     1       3.359   1.579  18.625  0.00  0.00    +0.000 C 
BRANCH  19  20
ATOM     20  O   UNL     1       4.590   2.286  18.711  0.00  0.00    +0.000 OA
ATOM     21  H   UNL     1       4.365   3.233  18.664  0.00  0.00    +0.000 HD
ENDBRANCH  19  20
ENDBRANCH  17  19
ENDBRANCH  12  13
ENDBRANCH   1  12
TORSDOF 6
ENDMDL
MODEL 3
REMARK VINA RESULT:      -6.1      1.277      1.566
REMARK  Name = 
REMARK  8 active torsions:
REMARK  status: ('A' for Active; 'I' for Inactive)
REMARK    1  A    between atoms: C_1  and  C_2
REMARK    2  A    between atoms: C_2  and  C_3
REMARK    3  A    between atoms: C_2  and  C_4
REMARK    4  A    between atoms: N_8  and  C_9
REMARK    5  A    between atoms: C_9  and  C_10
REMARK    6  A    between atoms: C_10  and  N_11
REMARK    7  A    between atoms: C_15  and  C_16
REMARK    8  A    between atoms: C_16  and  O_17
REMARK                            x       y       z     vdW  Elec       q    Type
REMARK                         _______ _______ _______ _____ _____    ______ ____
ROOT
ATOM      1  C   UNL     1       5.169   5.532  18.558  0.00  0.00    +0.000 C 
ENDROOT
BRANCH   1   6
ATOM      2  C   UNL     1       6.840   4.723  14.222  0.00  0.00    +0.000 A 
ATOM      3  N   UNL     1       7.406   5.621  15.005  0.00  0.00    +0.000 NA
ATOM      4  N   UNL     1       6.680   5.844  16.154  0.00  0.00    +0.000 NA
ATOM      5  C   UNL     1       5.574   5.131  16.223  0.00  0.00    +0.000 A 
ATOM      6  N   UNL     1       4.671   5.165  17.233  0.00  0.00    +0.000 N 
ATOM      7  S   UNL     1       5.371   4.087  14.859  0.00  0.00    +0.000 S 
ATOM      8  H   UNL     1       3.938   4.459  17.248  0.00  0.00    +0.000 HD
BRANCH   2  10
ATOM      9  C   UNL     1       6.328   3.513  12.111  0.00  0.00    +0.000 C 
ATOM     10  C   UNL     1       7.390   4.285  12.894  0.00  0.00    +0.000 C 
ATOM     11  C   UNL     1       7.883   5.488  12.090  0.00  0.00    +0.000 C 
ENDBRANCH   2  10
ENDBRANCH   1   6
BRANCH   1  12
ATOM     12  C   UNL     1       4.038   5.616  19.613  0.00  0.00    +0.000 C 
BRANCH  12  13
ATOM     13  N   UNL     1       3.158   4.425  19.719  0.00  0.00    +0.000 NA
ATOM     14  C   UNL     1       2.590   4.267  21.073  0.00  0.00    +0.000 C 
ATOM     15  C   UNL     1       1.689   3.028  21.187  0.00  0.00    +0.000 C 
ATOM     16  C   UNL     1       0.616   3.003  20.102  0.00  0.00    +0.000 C 
ATOM     17  C   UNL     1       1.226   3.226  18.713  0.00  0.00    +0.000 C 
ATOM     18  C   UNL     1       2.066   4.516  18.730  0.00  0.00    +0.000 C 
BRANCH  17  19
ATOM     19  C   UNL     1       2.042   2.001  18.270  0.00  0.00    +0.000 C 
BRANCH  19  20
ATOM     20  O   UNL     1       3.256   2.393  17.642  0.00  0.00    +0.000 OA
ATOM     21  H   UNL     1       3.839   1.612  17.661  0.00  0.00    +0.000 HD
ENDBRANCH  19  20
ENDBRANCH  17  19
ENDBRANCH  12  13
ENDBRANCH   1  12
TORSDOF 6
ENDMDL
MODEL 4
REMARK VINA RESULT:      -6.1      1.723      2.059
REMARK  Name = 
REMARK  8 active torsions:
REMARK  status: ('A' for Active; 'I' for Inactive)
REMARK    1  A    between atoms: C_1  and  C_2
REMARK    2  A    between atoms: C_2  and  C_3
REMARK    3  A    between atoms: C_2  and  C_4
REMARK    4  A    between atoms: N_8  and  C_9
REMARK    5  A    between atoms: C_9  and  C_10
REMARK    6  A    between atoms: C_10  and  N_11
REMARK    7  A    between atoms: C_15  and  C_16
REMARK    8  A    between atoms: C_16  and  O_17
REMARK                            x       y       z     vdW  Elec       q    Type
REMARK                         _______ _______ _______ _____ _____    ______ ____
ROOT
ATOM      1  C   UNL     1       3.995   6.459  18.142  0.00  0.00    +0.000 C 
ENDROOT
BRANCH   1   6
ATOM      2  C   UNL     1       6.371   4.577  14.528  0.00  0.00    +0.000 A 
ATOM      3  N   UNL     1       5.062   4.443  14.616  0.00  0.00    +0.000 NA
ATOM      4  N   UNL     1       4.569   4.900  15.818  0.00  0.00    +0.000 NA
ATOM      5  C   UNL     1       5.503   5.358  16.628  0.00  0.00    +0.000 A 
ATOM      6  N   UNL     1       5.299   5.853  17.872  0.00  0.00    +0.000 N 
ATOM      7  S   UNL     1       7.083   5.285  15.928  0.00  0.00    +0.000 S 
ATOM      8  H   UNL     1       6.074   6.317  18.340  0.00  0.00    +0.000 HD
BRANCH   2  10
ATOM      9  C   UNL     1       6.310   3.445  12.314  0.00  0.00    +0.000 C 
ATOM     10  C   UNL     1       7.192   4.151  13.344  0.00  0.00    +0.000 C 
ATOM     11  C   UNL     1       7.897   5.354  12.715  0.00  0.00    +0.000 C 
ENDBRANCH   2  10
ENDBRANCH   1   6
BRANCH   1  12
ATOM     12  C   UNL     1       3.395   5.997  19.493  0.00  0.00    +0.000 C 
BRANCH  12  13
ATOM     13  N   UNL     1       2.851   4.616  19.525  0.00  0.00    +0.000 NA
ATOM     14  C   UNL     1       1.954   4.394  20.678  0.00  0.00    +0.000 C 
ATOM     15  C   UNL     1       1.400   2.962  20.718  0.00  0.00    +0.000 C 
ATOM     16  C   UNL     1       0.751   2.566  19.395  0.00  0.00    +0.000 C 
ATOM     17  C   UNL     1       1.680   2.860  18.211  0.00  0.00    +0.000 C 
ATOM     18  C   UNL     1       2.127   4.332  18.270  0.00  0.00    +0.000 C 
BRANCH  17  19
ATOM     19  C   UNL     1       2.870   1.888  18.194  0.00  0.00    +0.000 C 
BRANCH  19  20
ATOM     20  O   UNL     1       4.078   2.560  17.861  0.00  0.00    +0.000 OA
ATOM     21  H   UNL     1       3.818   3.426  17.497  0.00  0.00    +0.000 HD
ENDBRANCH  19  20
ENDBRANCH  17  19
ENDBRANCH  12  13
ENDBRANCH   1  12
TORSDOF 6
ENDMDL
MODEL 5
REMARK VINA RESULT:      -6.1      5.707      8.419
REMARK  Name = 
REMARK  8 active torsions:
REMARK  status: ('A' for Active; 'I' for Inactive)
REMARK    1  A    between atoms: C_1  and  C_2
REMARK    2  A    between atoms: C_2  and  C_3
REMARK    3  A    between atoms: C_2  and  C_4
REMARK    4  A    between atoms: N_8  and  C_9
REMARK    5  A    between atoms: C_9  and  C_10
REMARK    6  A    between atoms: C_10  and  N_11
REMARK    7  A    between atoms: C_15  and  C_16
REMARK    8  A    between atoms: C_16  and  O_17
REMARK                            x       y       z     vdW  Elec       q    Type
REMARK                         _______ _______ _______ _____ _____    ______ ____
ROOT
ATOM      1  C   UNL     1       8.348   8.703  18.253  0.00  0.00    +0.000 C 
ENDROOT
BRANCH   1   6
ATOM      2  C   UNL     1       5.639   4.845  18.113  0.00  0.00    +0.000 A 
ATOM      3  N   UNL     1       6.487   5.037  19.105  0.00  0.00    +0.000 NA
ATOM      4  N   UNL     1       7.311   6.118  18.885  0.00  0.00    +0.000 NA
ATOM      5  C   UNL     1       7.091   6.721  17.734  0.00  0.00    +0.000 A 
ATOM      6  N   UNL     1       7.765   7.798  17.264  0.00  0.00    +0.000 N 
ATOM      7  S   UNL     1       5.799   5.998  16.841  0.00  0.00    +0.000 S 
ATOM      8  H   UNL     1       7.405   8.267  16.436  0.00  0.00    +0.000 HD
BRANCH   2  10
ATOM      9  C   UNL     1       4.499   3.071  19.430  0.00  0.00    +0.000 C 
ATOM     10  C   UNL     1       4.628   3.734  18.059  0.00  0.00    +0.000 C 
ATOM     11  C   UNL     1       3.273   4.259  17.585  0.00  0.00    +0.000 C 
ENDBRANCH   2  10
ENDBRANCH   1   6
BRANCH   1  12
ATOM     12  C   UNL     1       8.278  10.187  17.814  0.00  0.00    +0.000 C 
BRANCH  12  13
ATOM     13  N   UNL     1       9.183  11.121  18.530  0.00  0.00    +0.000 NA
ATOM     14  C   UNL     1       9.442  10.693  19.920  0.00  0.00    +0.000 C 
ATOM     15  C   UNL     1      10.368  11.665  20.666  0.00  0.00    +0.000 C 
ATOM     16  C   UNL     1      11.657  11.930  19.892  0.00  0.00    +0.000 C 
ATOM     17  C   UNL     1      11.361  12.315  18.437  0.00  0.00    +0.000 C 
ATOM     18  C   UNL     1      10.461  11.241  17.801  0.00  0.00    +0.000 C 
BRANCH  17  19
ATOM     19  C   UNL     1      10.742  13.720  18.357  0.00  0.00    +0.000 C 
BRANCH  19  20
ATOM     20  O   UNL     1       9.813  13.811  17.285  0.00  0.00    +0.000 OA
ATOM     21  H   UNL     1      10.205  14.421  16.634  0.00  0.00    +0.000 HD
ENDBRANCH  19  20
ENDBRANCH  17  19
ENDBRANCH  12  13
ENDBRANCH   1  12
TORSDOF 6
ENDMDL
MODEL 6
REMARK VINA RESULT:      -6.1      1.654      2.276
REMARK  Name = 
REMARK  8 active torsions:
REMARK  status: ('A' for Active; 'I' for Inactive)
REMARK    1  A    between atoms: C_1  and  C_2
REMARK    2  A    between atoms: C_2  and  C_3
REMARK    3  A    between atoms: C_2  and  C_4
REMARK    4  A    between atoms: N_8  and  C_9
REMARK    5  A    between atoms: C_9  and  C_10
REMARK    6  A    between atoms: C_10  and  N_11
REMARK    7  A    between atoms: C_15  and  C_16
REMARK    8  A    between atoms: C_16  and  O_17
REMARK                            x       y       z     vdW  Elec       q    Type
REMARK                         _______ _______ _______ _____ _____    ______ ____
ROOT
ATOM      1  C   UNL     1       6.810   4.956  18.231  0.00  0.00    +0.000 C 
ENDROOT
BRANCH   1   6
ATOM      2  C   UNL     1       6.277   3.917  13.661  0.00  0.00    +0.000 A 
ATOM      3  N   UNL     1       5.809   3.110  14.594  0.00  0.00    +0.000 NA
ATOM      4  N   UNL     1       6.211   3.484  15.858  0.00  0.00    +0.000 NA
ATOM      5  C   UNL     1       6.984   4.552  15.868  0.00  0.00    +0.000 A 
ATOM      6  N   UNL     1       7.529   5.123  16.968  0.00  0.00    +0.000 N 
ATOM      7  S   UNL     1       7.243   5.200  14.286  0.00  0.00    +0.000 S 
ATOM      8  H   UNL     1       7.980   6.030  16.867  0.00  0.00    +0.000 HD
BRANCH   2  10
ATOM      9  C   UNL     1       6.964   2.702  11.603  0.00  0.00    +0.000 C 
ATOM     10  C   UNL     1       6.022   3.754  12.189  0.00  0.00    +0.000 C 
ATOM     11  C   UNL     1       4.564   3.374  11.932  0.00  0.00    +0.000 C 
ENDBRANCH   2  10
ENDBRANCH   1   6
BRANCH   1  12
ATOM     12  C   UNL     1       5.426   5.650  18.222  0.00  0.00    +0.000 C 
BRANCH  12  13
ATOM     13  N   UNL     1       4.267   4.796  18.585  0.00  0.00    +0.000 NA
ATOM     14  C   UNL     1       3.473   5.370  19.691  0.00  0.00    +0.000 C 
ATOM     15  C   UNL     1       2.282   4.480  20.076  0.00  0.00    +0.000 C 
ATOM     16  C   UNL     1       1.420   4.128  18.866  0.00  0.00    +0.000 C 
ATOM     17  C   UNL     1       2.276   3.589  17.714  0.00  0.00    +0.000 C 
ATOM     18  C   UNL     1       3.402   4.592  17.407  0.00  0.00    +0.000 C 
BRANCH  17  19
ATOM     19  C   UNL     1       2.814   2.187  18.040  0.00  0.00    +0.000 C 
BRANCH  19  20
ATOM     20  O   UNL     1       4.198   2.083  17.733  0.00  0.00    +0.000 OA
ATOM     21  H   UNL     1       4.398   2.813  17.119  0.00  0.00    +0.000 HD
ENDBRANCH  19  20
ENDBRANCH  17  19
ENDBRANCH  12  13
ENDBRANCH   1  12
TORSDOF 6
ENDMDL
MODEL 7
REMARK VINA RESULT:      -5.9      1.515      1.891
REMARK  Name = 
REMARK  8 active torsions:
REMARK  status: ('A' for Active; 'I' for Inactive)
REMARK    1  A    between atoms: C_1  and  C_2
REMARK    2  A    between atoms: C_2  and  C_3
REMARK    3  A    between atoms: C_2  and  C_4
REMARK    4  A    between atoms: N_8  and  C_9
REMARK    5  A    between atoms: C_9  and  C_10
REMARK    6  A    between atoms: C_10  and  N_11
REMARK    7  A    between atoms: C_15  and  C_16
REMARK    8  A    between atoms: C_16  and  O_17
REMARK                            x       y       z     vdW  Elec       q    Type
REMARK                         _______ _______ _______ _____ _____    ______ ____
ROOT
ATOM      1  C   UNL     1       5.705   4.696  19.128  0.00  0.00    +0.000 C 
ENDROOT
BRANCH   1   6
ATOM      2  C   UNL     1       6.114   4.440  14.436  0.00  0.00    +0.000 A 
ATOM      3  N   UNL     1       4.988   4.103  15.033  0.00  0.00    +0.000 NA
ATOM      4  N   UNL     1       5.112   4.072  16.404  0.00  0.00    +0.000 NA
ATOM      5  C   UNL     1       6.324   4.369  16.828  0.00  0.00    +0.000 A 
ATOM      6  N   UNL     1       6.724   4.400  18.122  0.00  0.00    +0.000 N 
ATOM      7  S   UNL     1       7.406   4.750  15.534  0.00  0.00    +0.000 S 
ATOM      8  H   UNL     1       7.639   4.791  18.334  0.00  0.00    +0.000 HD
BRANCH   2  10
ATOM      9  C   UNL     1       7.705   5.019  12.614  0.00  0.00    +0.000 C 
ATOM     10  C   UNL     1       6.292   4.542  12.947  0.00  0.00    +0.000 C 
ATOM     11  C   UNL     1       6.005   3.199  12.276  0.00  0.00    +0.000 C 
ENDBRANCH   2  10
ENDBRANCH   1   6
BRANCH   1  12
ATOM     12  C   UNL     1       5.074   3.414  19.727  0.00  0.00    +0.000 C 
BRANCH  12  13
ATOM     13  N   UNL     1       3.596   3.311  19.631  0.00  0.00    +0.000 NA
ATOM     14  C   UNL     1       2.991   2.774  20.867  0.00  0.00    +0.000 C 
ATOM     15  C   UNL     1       1.463   2.655  20.764  0.00  0.00    +0.000 C 
ATOM     16  C   UNL     1       0.818   3.968  20.327  0.00  0.00    +0.000 C 
ATOM     17  C   UNL     1       1.503   4.532  19.076  0.00  0.00    +0.000 C 
ATOM     18  C   UNL     1       3.017   4.635  19.330  0.00  0.00    +0.000 C 
BRANCH  17  19
ATOM     19  C   UNL     1       1.173   3.681  17.840  0.00  0.00    +0.000 C 
BRANCH  19  20
ATOM     20  O   UNL     1       2.331   3.456  17.047  0.00  0.00    +0.000 OA
ATOM     21  H   UNL     1       2.038   3.485  16.118  0.00  0.00    +0.000 HD
ENDBRANCH  19  20
ENDBRANCH  17  19
ENDBRANCH  12  13
ENDBRANCH   1  12
TORSDOF 6
ENDMDL
MODEL 8
REMARK VINA RESULT:      -5.9      1.771      2.189
REMARK  Name = 
REMARK  8 active torsions:
REMARK  status: ('A' for Active; 'I' for Inactive)
REMARK    1  A    between atoms: C_1  and  C_2
REMARK    2  A    between atoms: C_2  and  C_3
REMARK    3  A    between atoms: C_2  and  C_4
REMARK    4  A    between atoms: N_8  and  C_9
REMARK    5  A    between atoms: C_9  and  C_10
REMARK    6  A    between atoms: C_10  and  N_11
REMARK    7  A    between atoms: C_15  and  C_16
REMARK    8  A    between atoms: C_16  and  O_17
REMARK                            x       y       z     vdW  Elec       q    Type
REMARK                         _______ _______ _______ _____ _____    ______ ____
ROOT
ATOM      1  C   UNL     1       5.225   6.222  17.980  0.00  0.00    +0.000 C 
ENDROOT
BRANCH   1   6
ATOM      2  C   UNL     1       6.118   4.026  13.902  0.00  0.00    +0.000 A 
ATOM      3  N   UNL     1       4.969   3.848  14.525  0.00  0.00    +0.000 NA
ATOM      4  N   UNL     1       4.959   4.424  15.777  0.00  0.00    +0.000 NA
ATOM      5  C   UNL     1       6.094   5.014  16.092  0.00  0.00    +0.000 A 
ATOM      6  N   UNL     1       6.360   5.644  17.261  0.00  0.00    +0.000 N 
ATOM      7  S   UNL     1       7.264   4.927  14.822  0.00  0.00    +0.000 S 
ATOM      8  H   UNL     1       7.215   6.193  17.329  0.00  0.00    +0.000 HD
BRANCH   2  10
ATOM      9  C   UNL     1       5.142   3.205  11.768  0.00  0.00    +0.000 C 
ATOM     10  C   UNL     1       6.433   3.499  12.531  0.00  0.00    +0.000 C 
ATOM     11  C   UNL     1       7.301   4.491  11.757  0.00  0.00    +0.000 C 
ENDBRANCH   2  10
ENDBRANCH   1   6
BRANCH   1  12
ATOM     12  C   UNL     1       4.922   5.478  19.304  0.00  0.00    +0.000 C 
BRANCH  12  13
ATOM     13  N   UNL     1       3.626   4.754  19.361  0.00  0.00    +0.000 NA
ATOM     14  C   UNL     1       2.771   5.044  18.192  0.00  0.00    +0.000 C 
ATOM     15  C   UNL     1       1.426   4.305  18.257  0.00  0.00    +0.000 C 
ATOM     16  C   UNL     1       1.610   2.806  18.482  0.00  0.00    +0.000 C 
ATOM     17  C   UNL     1       2.548   2.534  19.665  0.00  0.00    +0.000 C 
ATOM     18  C   UNL     1       3.866   3.300  19.453  0.00  0.00    +0.000 C 
BRANCH  17  19
ATOM     19  C   UNL     1       1.869   2.895  20.996  0.00  0.00    +0.000 C 
BRANCH  19  20
ATOM     20  O   UNL     1       2.670   2.501  22.103  0.00  0.00    +0.000 OA
ATOM     21  H   UNL     1       2.280   2.927  22.888  0.00  0.00    +0.000 HD
ENDBRANCH  19  20
ENDBRANCH  17  19
ENDBRANCH  12  13
ENDBRANCH   1  12
TORSDOF 6
ENDMDL
MODEL 9
REMARK VINA RESULT:      -5.9      4.217      6.806
REMARK  Name = 
REMARK  8 active torsions:
REMARK  status: ('A' for Active; 'I' for Inactive)
REMARK    1  A    between atoms: C_1  and  C_2
REMARK    2  A    between atoms: C_2  and  C_3
REMARK    3  A    between atoms: C_2  and  C_4
REMARK    4  A    between atoms: N_8  and  C_9
REMARK    5  A    between atoms: C_9  and  C_10
REMARK    6  A    between atoms: C_10  and  N_11
REMARK    7  A    between atoms: C_15  and  C_16
REMARK    8  A    between atoms: C_16  and  O_17
REMARK                            x       y       z     vdW  Elec       q    Type
REMARK                         _______ _______ _______ _____ _____    ______ ____
ROOT
ATOM      1  C   UNL     1       4.084   6.724  17.930  0.00  0.00    +0.000 C 
ENDROOT
BRANCH   1   6
ATOM      2  C   UNL     1       0.875   9.412  20.105  0.00  0.00    +0.000 A 
ATOM      3  N   UNL     1       1.360   8.334  20.691  0.00  0.00    +0.000 NA
ATOM      4  N   UNL     1       2.144   7.585  19.841  0.00  0.00    +0.000 NA
ATOM      5  C   UNL     1       2.232   8.090  18.627  0.00  0.00    +0.000 A 
ATOM      6  N   UNL     1       2.925   7.551  17.595  0.00  0.00    +0.000 N 
ATOM      7  S   UNL     1       1.362   9.575  18.460  0.00  0.00    +0.000 S 
ATOM      8  H   UNL     1       3.044   8.109  16.752  0.00  0.00    +0.000 HD
BRANCH   2  10
ATOM      9  C   UNL     1      -0.271  10.013  22.228  0.00  0.00    +0.000 C 
ATOM     10  C   UNL     1      -0.027  10.411  20.772  0.00  0.00    +0.000 C 
ATOM     11  C   UNL     1       0.570  11.816  20.691  0.00  0.00    +0.000 C 
ENDBRANCH   2  10
ENDBRANCH   1   6
BRANCH   1  12
ATOM     12  C   UNL     1       3.877   5.235  17.556  0.00  0.00    +0.000 C 
BRANCH  12  13
ATOM     13  N   UNL     1       2.947   4.470  18.424  0.00  0.00    +0.000 NA
ATOM     14  C   UNL     1       2.019   3.626  17.643  0.00  0.00    +0.000 C 
ATOM     15  C   UNL     1       1.048   2.844  18.540  0.00  0.00    +0.000 C 
ATOM     16  C   UNL     1       1.783   2.052  19.619  0.00  0.00    +0.000 C 
ATOM     17  C   UNL     1       2.780   2.938  20.375  0.00  0.00    +0.000 C 
ATOM     18  C   UNL     1       3.713   3.628  19.364  0.00  0.00    +0.000 C 
BRANCH  17  19
ATOM     19  C   UNL     1       2.046   3.945  21.275  0.00  0.00    +0.000 C 
BRANCH  19  20
ATOM     20  O   UNL     1       2.624   5.240  21.175  0.00  0.00    +0.000 OA
ATOM     21  H   UNL     1       3.195   5.225  20.386  0.00  0.00    +0.000 HD
ENDBRANCH  19  20
ENDBRANCH  17  19
ENDBRANCH  12  13
ENDBRANCH   1  12
TORSDOF 6
ENDMDL
