MODEL 1
REMARK VINA RESULT:      -6.8      0.000      0.000
REMARK  Name = 
REMARK  3 active torsions:
REMARK  status: ('A' for Active; 'I' for Inactive)
REMARK    1  A    between atoms: C_8  and  C_9
REMARK    2  A    between atoms: C_15  and  C_16
REMARK    3  A    between atoms: N_22  and  C_23
REMARK                            x       y       z     vdW  Elec       q    Type
REMARK                         _______ _______ _______ _____ _____    ______ ____
ROOT
ATOM      1  S   UNL     1      -6.817  10.913  18.679  0.00  0.00    +0.000 S 
ATOM      2  C   UNL     1      -6.128  11.803  19.888  0.00  0.00    +0.000 A 
ATOM      3  N   UNL     1      -6.947  12.253  20.913  0.00  0.00    +0.000 N 
ATOM      4  C   UNL     1      -6.504  13.079  21.896  0.00  0.00    +0.000 A 
ATOM      5  N   UNL     1      -5.281  13.474  22.023  0.00  0.00    +0.000 NA
ATOM      6  C   UNL     1      -4.420  12.994  21.088  0.00  0.00    +0.000 A 
ATOM      7  C   UNL     1      -4.730  12.194  20.001  0.00  0.00    +0.000 A 
ATOM      8  C   UNL     1      -3.494  12.007  19.278  0.00  0.00    +0.000 A 
ATOM      9  C   UNL     1      -2.469  12.695  19.979  0.00  0.00    +0.000 A 
ATOM     10  N   UNL     1      -3.070  13.253  21.124  0.00  0.00    +0.000 N 
ATOM     11  H   UNL     1      -7.927  11.990  20.865  0.00  0.00    +0.000 HD
ENDROOT
BRANCH   8  12
ATOM     12  C   UNL     1      -3.249  11.257  18.028  0.00  0.00    +0.000 A 
ATOM     13  C   UNL     1      -3.890  11.606  16.827  0.00  0.00    +0.000 A 
ATOM     14  C   UNL     1      -3.550  10.986  15.619  0.00  0.00    +0.000 A 
ATOM     15  C   UNL     1      -2.667   9.912  15.612  0.00  0.00    +0.000 A 
ATOM     16  C   UNL     1      -2.080   9.500  16.802  0.00  0.00    +0.000 A 
ATOM     17  C   UNL     1      -2.319  10.214  17.981  0.00  0.00    +0.000 A 
ENDBRANCH   8  12
BRANCH   9  18
ATOM     18  C   UNL     1      -1.012  12.835  19.656  0.00  0.00    +0.000 A 
ATOM     19  C   UNL     1      -0.534  13.835  18.789  0.00  0.00    +0.000 A 
ATOM     20  C   UNL     1       0.822  13.932  18.454  0.00  0.00    +0.000 A 
ATOM     21  C   UNL     1       1.714  12.957  18.883  0.00  0.00    +0.000 A 
ATOM     22  C   UNL     1       1.263  11.935  19.708  0.00  0.00    +0.000 A 
ATOM     23  C   UNL     1      -0.071  11.913  20.139  0.00  0.00    +0.000 A 
ENDBRANCH   9  18
BRANCH  10  24
ATOM     24  C   UNL     1      -2.368  13.933  22.227  0.00  0.00    +0.000 C 
ATOM     25  C   UNL     1      -2.525  15.465  22.278  0.00  0.00    +0.000 C 
ATOM     26  C   UNL     1      -3.712  15.973  23.089  0.00  0.00    +0.000 C 
ATOM     27  C   UNL     1      -3.872  15.276  24.437  0.00  0.00    +0.000 C 
ATOM     28  C   UNL     1      -3.711  13.757  24.422  0.00  0.00    +0.000 C 
ATOM     29  C   UNL     1      -2.517  13.283  23.609  0.00  0.00    +0.000 C 
ENDBRANCH  10  24
TORSDOF 3
ENDMDL
MODEL 2
REMARK VINA RESULT:      -6.6      1.888      5.044
REMARK  Name = 
REMARK  3 active torsions:
REMARK  status: ('A' for Active; 'I' for Inactive)
REMARK    1  A    between atoms: C_8  and  C_9
REMARK    2  A    between atoms: C_15  and  C_16
REMARK    3  A    between atoms: N_22  and  C_23
REMARK                            x       y       z     vdW  Elec       q    Type
REMARK                         _______ _______ _______ _____ _____    ______ ____
ROOT
ATOM      1  S   UNL     1      -1.456  14.312  22.849  0.00  0.00    +0.000 S 
ATOM      2  C   UNL     1      -2.973  13.851  22.383  0.00  0.00    +0.000 A 
ATOM      3  N   UNL     1      -4.035  14.181  23.210  0.00  0.00    +0.000 N 
ATOM      4  C   UNL     1      -5.305  13.759  22.976  0.00  0.00    +0.000 A 
ATOM      5  N   UNL     1      -5.668  13.076  21.942  0.00  0.00    +0.000 NA
ATOM      6  C   UNL     1      -4.677  12.796  21.057  0.00  0.00    +0.000 A 
ATOM      7  C   UNL     1      -3.333  13.108  21.184  0.00  0.00    +0.000 A 
ATOM      8  C   UNL     1      -2.681  12.547  20.024  0.00  0.00    +0.000 A 
ATOM      9  C   UNL     1      -3.675  11.928  19.220  0.00  0.00    +0.000 A 
ATOM     10  N   UNL     1      -4.907  12.146  19.868  0.00  0.00    +0.000 N 
ATOM     11  H   UNL     1      -3.816  14.706  24.051  0.00  0.00    +0.000 HD
ENDROOT
BRANCH   8  12
ATOM     12  C   UNL     1      -1.249  12.564  19.659  0.00  0.00    +0.000 A 
ATOM     13  C   UNL     1      -0.663  13.684  19.044  0.00  0.00    +0.000 A 
ATOM     14  C   UNL     1       0.718  13.751  18.830  0.00  0.00    +0.000 A 
ATOM     15  C   UNL     1       1.519  12.647  19.097  0.00  0.00    +0.000 A 
ATOM     16  C   UNL     1       0.947  11.500  19.635  0.00  0.00    +0.000 A 
ATOM     17  C   UNL     1      -0.410  11.491  19.975  0.00  0.00    +0.000 A 
ENDBRANCH   8  12
BRANCH   9  18
ATOM     18  C   UNL     1      -3.540  11.190  17.923  0.00  0.00    +0.000 A 
ATOM     19  C   UNL     1      -2.730  10.046  17.798  0.00  0.00    +0.000 A 
ATOM     20  C   UNL     1      -2.570   9.388  16.573  0.00  0.00    +0.000 A 
ATOM     21  C   UNL     1      -3.119   9.930  15.418  0.00  0.00    +0.000 A 
ATOM     22  C   UNL     1      -3.892  11.082  15.504  0.00  0.00    +0.000 A 
ATOM     23  C   UNL     1      -4.149  11.666  16.752  0.00  0.00    +0.000 A 
ENDBRANCH   9  18
BRANCH  10  24
ATOM     24  C   UNL     1      -6.239  11.812  19.330  0.00  0.00    +0.000 C 
ATOM     25  C   UNL     1      -6.368  10.425  18.675  0.00  0.00    +0.000 C 
ATOM     26  C   UNL     1      -6.769   9.293  19.615  0.00  0.00    +0.000 C 
ATOM     27  C   UNL     1      -7.915   9.657  20.553  0.00  0.00    +0.000 C 
ATOM     28  C   UNL     1      -7.822  11.032  21.211  0.00  0.00    +0.000 C 
ATOM     29  C   UNL     1      -7.426  12.139  20.248  0.00  0.00    +0.000 C 
ENDBRANCH  10  24
TORSDOF 3
ENDMDL
MODEL 3
REMARK VINA RESULT:      -6.5      2.195      5.546
REMARK  Name = 
REMARK  3 active torsions:
REMARK  status: ('A' for Active; 'I' for Inactive)
REMARK    1  A    between atoms: C_8  and  C_9
REMARK    2  A    between atoms: C_15  and  C_16
REMARK    3  A    between atoms: N_22  and  C_23
REMARK                            x       y       z     vdW  Elec       q    Type
REMARK                         _______ _______ _______ _____ _____    ______ ____
ROOT
ATOM      1  S   UNL     1      -4.972  11.767  16.809  0.00  0.00    +0.000 S 
ATOM      2  C   UNL     1      -3.562  11.423  17.600  0.00  0.00    +0.000 A 
ATOM      3  N   UNL     1      -2.603  10.681  16.927  0.00  0.00    +0.000 N 
ATOM      4  C   UNL     1      -1.459  10.255  17.520  0.00  0.00    +0.000 A 
ATOM      5  N   UNL     1      -1.111  10.544  18.730  0.00  0.00    +0.000 NA
ATOM      6  C   UNL     1      -1.980  11.338  19.407  0.00  0.00    +0.000 A 
ATOM      7  C   UNL     1      -3.206  11.804  18.959  0.00  0.00    +0.000 A 
ATOM      8  C   UNL     1      -3.775  12.548  20.057  0.00  0.00    +0.000 A 
ATOM      9  C   UNL     1      -2.848  12.519  21.133  0.00  0.00    +0.000 A 
ATOM     10  N   UNL     1      -1.725  11.802  20.675  0.00  0.00    +0.000 N 
ATOM     11  H   UNL     1      -2.821  10.407  15.974  0.00  0.00    +0.000 HD
ENDROOT
BRANCH   8  12
ATOM     12  C   UNL     1      -5.077  13.243  20.137  0.00  0.00    +0.000 A 
ATOM     13  C   UNL     1      -5.166  14.643  20.052  0.00  0.00    +0.000 A 
ATOM     14  C   UNL     1      -6.407  15.286  19.986  0.00  0.00    +0.000 A 
ATOM     15  C   UNL     1      -7.579  14.556  20.144  0.00  0.00    +0.000 A 
ATOM     16  C   UNL     1      -7.511  13.178  20.307  0.00  0.00    +0.000 A 
ATOM     17  C   UNL     1      -6.274  12.528  20.233  0.00  0.00    +0.000 A 
ENDBRANCH   8  12
BRANCH   9  18
ATOM     18  C   UNL     1      -2.947  13.119  22.503  0.00  0.00    +0.000 A 
ATOM     19  C   UNL     1      -3.742  12.545  23.511  0.00  0.00    +0.000 A 
ATOM     20  C   UNL     1      -3.868  13.135  24.775  0.00  0.00    +0.000 A 
ATOM     21  C   UNL     1      -3.297  14.378  25.020  0.00  0.00    +0.000 A 
ATOM     22  C   UNL     1      -2.539  14.988  24.029  0.00  0.00    +0.000 A 
ATOM     23  C   UNL     1      -2.316  14.334  22.809  0.00  0.00    +0.000 A 
ENDBRANCH   9  18
BRANCH  10  24
ATOM     24  C   UNL     1      -0.449  11.639  21.395  0.00  0.00    +0.000 C 
ATOM     25  C   UNL     1      -0.541  10.970  22.780  0.00  0.00    +0.000 C 
ATOM     26  C   UNL     1      -0.417   9.450  22.780  0.00  0.00    +0.000 C 
ATOM     27  C   UNL     1       0.718   8.932  21.903  0.00  0.00    +0.000 C 
ATOM     28  C   UNL     1       0.843   9.583  20.527  0.00  0.00    +0.000 C 
ATOM     29  C   UNL     1       0.719  11.097  20.561  0.00  0.00    +0.000 C 
ENDBRANCH  10  24
TORSDOF 3
ENDMDL
MODEL 4
REMARK VINA RESULT:      -6.4      2.139      5.517
REMARK  Name = 
REMARK  3 active torsions:
REMARK  status: ('A' for Active; 'I' for Inactive)
REMARK    1  A    between atoms: C_8  and  C_9
REMARK    2  A    between atoms: C_15  and  C_16
REMARK    3  A    between atoms: N_22  and  C_23
REMARK                            x       y       z     vdW  Elec       q    Type
REMARK                         _______ _______ _______ _____ _____    ______ ____
ROOT
ATOM      1  S   UNL     1      -5.097  11.781  16.862  0.00  0.00    +0.000 S 
ATOM      2  C   UNL     1      -3.699  11.463  17.685  0.00  0.00    +0.000 A 
ATOM      3  N   UNL     1      -2.735  10.692  17.052  0.00  0.00    +0.000 N 
ATOM      4  C   UNL     1      -1.600  10.284  17.676  0.00  0.00    +0.000 A 
ATOM      5  N   UNL     1      -1.266  10.617  18.878  0.00  0.00    +0.000 NA
ATOM      6  C   UNL     1      -2.140  11.440  19.513  0.00  0.00    +0.000 A 
ATOM      7  C   UNL     1      -3.358  11.893  19.033  0.00  0.00    +0.000 A 
ATOM      8  C   UNL     1      -3.938  12.681  20.094  0.00  0.00    +0.000 A 
ATOM      9  C   UNL     1      -3.025  12.689  21.182  0.00  0.00    +0.000 A 
ATOM     10  N   UNL     1      -1.900  11.951  20.766  0.00  0.00    +0.000 N 
ATOM     11  H   UNL     1      -2.941  10.383  16.108  0.00  0.00    +0.000 HD
ENDROOT
BRANCH   8  12
ATOM     12  C   UNL     1      -5.238  13.384  20.131  0.00  0.00    +0.000 A 
ATOM     13  C   UNL     1      -6.442  12.687  20.329  0.00  0.00    +0.000 A 
ATOM     14  C   UNL     1      -7.651  13.367  20.505  0.00  0.00    +0.000 A 
ATOM     15  C   UNL     1      -7.703  14.747  20.347  0.00  0.00    +0.000 A 
ATOM     16  C   UNL     1      -6.536  15.450  20.074  0.00  0.00    +0.000 A 
ATOM     17  C   UNL     1      -5.310  14.777  20.038  0.00  0.00    +0.000 A 
ENDBRANCH   8  12
BRANCH   9  18
ATOM     18  C   UNL     1      -3.139  13.341  22.527  0.00  0.00    +0.000 A 
ATOM     19  C   UNL     1      -2.487  14.551  22.825  0.00  0.00    +0.000 A 
ATOM     20  C   UNL     1      -2.558  15.132  24.097  0.00  0.00    +0.000 A 
ATOM     21  C   UNL     1      -3.184  14.453  25.135  0.00  0.00    +0.000 A 
ATOM     22  C   UNL     1      -3.802  13.235  24.880  0.00  0.00    +0.000 A 
ATOM     23  C   UNL     1      -3.832  12.720  23.577  0.00  0.00    +0.000 A 
ENDBRANCH   9  18
BRANCH  10  24
ATOM     24  C   UNL     1      -0.634  11.811  21.508  0.00  0.00    +0.000 C 
ATOM     25  C   UNL     1      -0.713  11.014  22.824  0.00  0.00    +0.000 C 
ATOM     26  C   UNL     1      -0.482   9.512  22.694  0.00  0.00    +0.000 C 
ATOM     27  C   UNL     1       0.709   9.154  21.810  0.00  0.00    +0.000 C 
ATOM     28  C   UNL     1       0.822   9.934  20.501  0.00  0.00    +0.000 C 
ATOM     29  C   UNL     1       0.591  11.427  20.665  0.00  0.00    +0.000 C 
ENDBRANCH  10  24
TORSDOF 3
ENDMDL
MODEL 5
REMARK VINA RESULT:      -6.3      1.744      3.925
REMARK  Name = 
REMARK  3 active torsions:
REMARK  status: ('A' for Active; 'I' for Inactive)
REMARK    1  A    between atoms: C_8  and  C_9
REMARK    2  A    between atoms: C_15  and  C_16
REMARK    3  A    between atoms: N_22  and  C_23
REMARK                            x       y       z     vdW  Elec       q    Type
REMARK                         _______ _______ _______ _____ _____    ______ ____
ROOT
ATOM      1  S   UNL     1      -3.340  10.392  16.894  0.00  0.00    +0.000 S 
ATOM      2  C   UNL     1      -4.451  11.185  17.826  0.00  0.00    +0.000 A 
ATOM      3  N   UNL     1      -5.791  11.051  17.494  0.00  0.00    +0.000 N 
ATOM      4  C   UNL     1      -6.774  11.743  18.126  0.00  0.00    +0.000 A 
ATOM      5  N   UNL     1      -6.583  12.532  19.130  0.00  0.00    +0.000 NA
ATOM      6  C   UNL     1      -5.294  12.636  19.546  0.00  0.00    +0.000 A 
ATOM      7  C   UNL     1      -4.182  12.041  18.972  0.00  0.00    +0.000 A 
ATOM      8  C   UNL     1      -3.045  12.501  19.733  0.00  0.00    +0.000 A 
ATOM      9  C   UNL     1      -3.525  13.353  20.764  0.00  0.00    +0.000 A 
ATOM     10  N   UNL     1      -4.928  13.372  20.648  0.00  0.00    +0.000 N 
ATOM     11  H   UNL     1      -6.010  10.454  16.703  0.00  0.00    +0.000 HD
ENDROOT
BRANCH   8  12
ATOM     12  C   UNL     1      -1.611  12.198  19.544  0.00  0.00    +0.000 A 
ATOM     13  C   UNL     1      -1.054  10.988  19.992  0.00  0.00    +0.000 A 
ATOM     14  C   UNL     1       0.268  10.644  19.687  0.00  0.00    +0.000 A 
ATOM     15  C   UNL     1       1.097  11.560  19.050  0.00  0.00    +0.000 A 
ATOM     16  C   UNL     1       0.586  12.794  18.666  0.00  0.00    +0.000 A 
ATOM     17  C   UNL     1      -0.771  13.075  18.851  0.00  0.00    +0.000 A 
ENDBRANCH   8  12
BRANCH   9  18
ATOM     18  C   UNL     1      -2.770  14.102  21.820  0.00  0.00    +0.000 A 
ATOM     19  C   UNL     1      -2.528  15.485  21.722  0.00  0.00    +0.000 A 
ATOM     20  C   UNL     1      -1.783  16.172  22.688  0.00  0.00    +0.000 A 
ATOM     21  C   UNL     1      -1.158  15.469  23.711  0.00  0.00    +0.000 A 
ATOM     22  C   UNL     1      -1.346  14.096  23.810  0.00  0.00    +0.000 A 
ATOM     23  C   UNL     1      -2.193  13.434  22.911  0.00  0.00    +0.000 A 
ENDBRANCH   9  18
BRANCH  10  24
ATOM     24  C   UNL     1      -5.867  14.004  21.593  0.00  0.00    +0.000 C 
ATOM     25  C   UNL     1      -7.335  13.551  21.482  0.00  0.00    +0.000 C 
ATOM     26  C   UNL     1      -7.714  12.349  22.341  0.00  0.00    +0.000 C 
ATOM     27  C   UNL     1      -7.183  12.428  23.768  0.00  0.00    +0.000 C 
ATOM     28  C   UNL     1      -5.733  12.885  23.912  0.00  0.00    +0.000 C 
ATOM     29  C   UNL     1      -5.388  14.087  23.049  0.00  0.00    +0.000 C 
ENDBRANCH  10  24
TORSDOF 3
ENDMDL
MODEL 6
REMARK VINA RESULT:      -6.2      3.386      6.161
REMARK  Name = 
REMARK  3 active torsions:
REMARK  status: ('A' for Active; 'I' for Inactive)
REMARK    1  A    between atoms: C_8  and  C_9
REMARK    2  A    between atoms: C_15  and  C_16
REMARK    3  A    between atoms: N_22  and  C_23
REMARK                            x       y       z     vdW  Elec       q    Type
REMARK                         _______ _______ _______ _____ _____    ______ ____
ROOT
ATOM      1  S   UNL     1      -3.232  17.144  20.424  0.00  0.00    +0.000 S 
ATOM      2  C   UNL     1      -1.723  16.558  20.092  0.00  0.00    +0.000 A 
ATOM      3  N   UNL     1      -0.816  17.409  19.478  0.00  0.00    +0.000 N 
ATOM      4  C   UNL     1       0.411  16.997  19.066  0.00  0.00    +0.000 A 
ATOM      5  N   UNL     1       0.886  15.812  19.258  0.00  0.00    +0.000 NA
ATOM      6  C   UNL     1       0.066  14.962  19.929  0.00  0.00    +0.000 A 
ATOM      7  C   UNL     1      -1.226  15.217  20.360  0.00  0.00    +0.000 A 
ATOM      8  C   UNL     1      -1.696  13.990  20.960  0.00  0.00    +0.000 A 
ATOM      9  C   UNL     1      -0.646  13.036  20.883  0.00  0.00    +0.000 A 
ATOM     10  N   UNL     1       0.447  13.690  20.283  0.00  0.00    +0.000 N 
ATOM     11  H   UNL     1      -1.132  18.354  19.285  0.00  0.00    +0.000 HD
ENDROOT
BRANCH   8  12
ATOM     12  C   UNL     1      -3.011  13.691  21.564  0.00  0.00    +0.000 A 
ATOM     13  C   UNL     1      -4.020  13.039  20.835  0.00  0.00    +0.000 A 
ATOM     14  C   UNL     1      -5.208  12.631  21.451  0.00  0.00    +0.000 A 
ATOM     15  C   UNL     1      -5.470  12.992  22.767  0.00  0.00    +0.000 A 
ATOM     16  C   UNL     1      -4.516  13.705  23.484  0.00  0.00    +0.000 A 
ATOM     17  C   UNL     1      -3.275  13.986  22.905  0.00  0.00    +0.000 A 
ENDBRANCH   8  12
BRANCH   9  18
ATOM     18  C   UNL     1      -0.610  11.609  21.340  0.00  0.00    +0.000 A 
ATOM     19  C   UNL     1      -0.746  11.259  22.696  0.00  0.00    +0.000 A 
ATOM     20  C   UNL     1      -0.665   9.928  23.124  0.00  0.00    +0.000 A 
ATOM     21  C   UNL     1      -0.324   8.929  22.221  0.00  0.00    +0.000 A 
ATOM     22  C   UNL     1      -0.145   9.251  20.881  0.00  0.00    +0.000 A 
ATOM     23  C   UNL     1      -0.348  10.566  20.440  0.00  0.00    +0.000 A 
ENDBRANCH   9  18
BRANCH  10  24
ATOM     24  C   UNL     1       1.807  13.141  20.129  0.00  0.00    +0.000 C 
ATOM     25  C   UNL     1       2.266  12.884  18.681  0.00  0.00    +0.000 C 
ATOM     26  C   UNL     1       2.961  14.057  17.999  0.00  0.00    +0.000 C 
ATOM     27  C   UNL     1       4.001  14.744  18.878  0.00  0.00    +0.000 C 
ATOM     28  C   UNL     1       3.580  15.004  20.323  0.00  0.00    +0.000 C 
ATOM     29  C   UNL     1       2.895  13.815  20.977  0.00  0.00    +0.000 C 
ENDBRANCH  10  24
TORSDOF 3
ENDMDL
MODEL 7
REMARK VINA RESULT:      -6.2      9.315     12.477
REMARK  Name = 
REMARK  3 active torsions:
REMARK  status: ('A' for Active; 'I' for Inactive)
REMARK    1  A    between atoms: C_8  and  C_9
REMARK    2  A    between atoms: C_15  and  C_16
REMARK    3  A    between atoms: N_22  and  C_23
REMARK                            x       y       z     vdW  Elec       q    Type
REMARK                         _______ _______ _______ _____ _____    ______ ____
ROOT
ATOM      1  S   UNL     1       6.030  17.269  19.163  0.00  0.00    +0.000 S 
ATOM      2  C   UNL     1       7.118  16.025  19.142  0.00  0.00    +0.000 A 
ATOM      3  N   UNL     1       7.889  15.855  18.002  0.00  0.00    +0.000 N 
ATOM      4  C   UNL     1       8.734  14.805  17.839  0.00  0.00    +0.000 A 
ATOM      5  N   UNL     1       8.961  13.904  18.736  0.00  0.00    +0.000 NA
ATOM      6  C   UNL     1       8.290  14.071  19.905  0.00  0.00    +0.000 A 
ATOM      7  C   UNL     1       7.358  15.054  20.199  0.00  0.00    +0.000 A 
ATOM      8  C   UNL     1       6.887  14.771  21.534  0.00  0.00    +0.000 A 
ATOM      9  C   UNL     1       7.578  13.623  22.008  0.00  0.00    +0.000 A 
ATOM     10  N   UNL     1       8.475  13.247  20.990  0.00  0.00    +0.000 N 
ATOM     11  H   UNL     1       7.748  16.522  17.249  0.00  0.00    +0.000 HD
ENDROOT
BRANCH   8  12
ATOM     12  C   UNL     1       5.874  15.487  22.337  0.00  0.00    +0.000 A 
ATOM     13  C   UNL     1       6.242  16.461  23.280  0.00  0.00    +0.000 A 
ATOM     14  C   UNL     1       5.277  17.235  23.934  0.00  0.00    +0.000 A 
ATOM     15  C   UNL     1       3.926  16.956  23.763  0.00  0.00    +0.000 A 
ATOM     16  C   UNL     1       3.541  15.944  22.891  0.00  0.00    +0.000 A 
ATOM     17  C   UNL     1       4.507  15.269  22.137  0.00  0.00    +0.000 A 
ENDBRANCH   8  12
BRANCH   9  18
ATOM     18  C   UNL     1       7.459  12.903  23.317  0.00  0.00    +0.000 A 
ATOM     19  C   UNL     1       6.440  11.964  23.560  0.00  0.00    +0.000 A 
ATOM     20  C   UNL     1       6.305  11.329  24.800  0.00  0.00    +0.000 A 
ATOM     21  C   UNL     1       7.114  11.708  25.865  0.00  0.00    +0.000 A 
ATOM     22  C   UNL     1       8.104  12.661  25.665  0.00  0.00    +0.000 A 
ATOM     23  C   UNL     1       8.312  13.204  24.389  0.00  0.00    +0.000 A 
ENDBRANCH   9  18
BRANCH  10  24
ATOM     24  C   UNL     1       9.507  12.198  21.089  0.00  0.00    +0.000 C 
ATOM     25  C   UNL     1       9.229  10.909  20.293  0.00  0.00    +0.000 C 
ATOM     26  C   UNL     1       9.752  10.900  18.861  0.00  0.00    +0.000 C 
ATOM     27  C   UNL     1      11.176  11.429  18.728  0.00  0.00    +0.000 C 
ATOM     28  C   UNL     1      11.486  12.701  19.514  0.00  0.00    +0.000 C 
ATOM     29  C   UNL     1      10.957  12.678  20.939  0.00  0.00    +0.000 C 
ENDBRANCH  10  24
TORSDOF 3
ENDMDL
MODEL 8
REMARK VINA RESULT:      -6.2      0.872      1.263
REMARK  Name = 
REMARK  3 active torsions:
REMARK  status: ('A' for Active; 'I' for Inactive)
REMARK    1  A    between atoms: C_8  and  C_9
REMARK    2  A    between atoms: C_15  and  C_16
REMARK    3  A    between atoms: N_22  and  C_23
REMARK                            x       y       z     vdW  Elec       q    Type
REMARK                         _______ _______ _______ _____ _____    ______ ____
ROOT
ATOM      1  S   UNL     1      -6.599  11.248  19.699  0.00  0.00    +0.000 S 
ATOM      2  C   UNL     1      -5.809  12.264  20.736  0.00  0.00    +0.000 A 
ATOM      3  N   UNL     1      -6.525  12.795  21.798  0.00  0.00    +0.000 N 
ATOM      4  C   UNL     1      -6.003  13.720  22.644  0.00  0.00    +0.000 A 
ATOM      5  N   UNL     1      -4.785  14.149  22.597  0.00  0.00    +0.000 NA
ATOM      6  C   UNL     1      -4.016  13.598  21.622  0.00  0.00    +0.000 A 
ATOM      7  C   UNL     1      -4.419  12.690  20.655  0.00  0.00    +0.000 A 
ATOM      8  C   UNL     1      -3.264  12.458  19.820  0.00  0.00    +0.000 A 
ATOM      9  C   UNL     1      -2.189  13.230  20.336  0.00  0.00    +0.000 A 
ATOM     10  N   UNL     1      -2.679  13.885  21.483  0.00  0.00    +0.000 N 
ATOM     11  H   UNL     1      -7.496  12.510  21.884  0.00  0.00    +0.000 HD
ENDROOT
BRANCH   8  12
ATOM     12  C   UNL     1      -3.134  11.596  18.627  0.00  0.00    +0.000 A 
ATOM     13  C   UNL     1      -4.019  11.709  17.542  0.00  0.00    +0.000 A 
ATOM     14  C   UNL     1      -3.809  10.992  16.359  0.00  0.00    +0.000 A 
ATOM     15  C   UNL     1      -2.793  10.046  16.289  0.00  0.00    +0.000 A 
ATOM     16  C   UNL     1      -1.952   9.863  17.380  0.00  0.00    +0.000 A 
ATOM     17  C   UNL     1      -2.083  10.682  18.507  0.00  0.00    +0.000 A 
ENDBRANCH   8  12
BRANCH   9  18
ATOM     18  C   UNL     1      -0.781  13.366  19.842  0.00  0.00    +0.000 A 
ATOM     19  C   UNL     1       0.233  12.470  20.227  0.00  0.00    +0.000 A 
ATOM     20  C   UNL     1       1.557  12.629  19.800  0.00  0.00    +0.000 A 
ATOM     21  C   UNL     1       1.922  13.757  19.076  0.00  0.00    +0.000 A 
ATOM     22  C   UNL     1       0.948  14.680  18.714  0.00  0.00    +0.000 A 
ATOM     23  C   UNL     1      -0.396  14.452  19.040  0.00  0.00    +0.000 A 
ENDBRANCH   9  18
BRANCH  10  24
ATOM     24  C   UNL     1      -1.882  14.681  22.433  0.00  0.00    +0.000 C 
ATOM     25  C   UNL     1      -2.129  16.201  22.405  0.00  0.00    +0.000 C 
ATOM     26  C   UNL     1      -3.228  16.701  23.337  0.00  0.00    +0.000 C 
ATOM     27  C   UNL     1      -3.162  16.098  24.736  0.00  0.00    +0.000 C 
ATOM     28  C   UNL     1      -2.907  14.593  24.798  0.00  0.00    +0.000 C 
ATOM     29  C   UNL     1      -1.804  14.127  23.862  0.00  0.00    +0.000 C 
ENDBRANCH  10  24
TORSDOF 3
ENDMDL
MODEL 9
REMARK VINA RESULT:      -6.2      1.719      3.966
REMARK  Name = 
REMARK  3 active torsions:
REMARK  status: ('A' for Active; 'I' for Inactive)
REMARK    1  A    between atoms: C_8  and  C_9
REMARK    2  A    between atoms: C_15  and  C_16
REMARK    3  A    between atoms: N_22  and  C_23
REMARK                            x       y       z     vdW  Elec       q    Type
REMARK                         _______ _______ _______ _____ _____    ______ ____
ROOT
ATOM      1  S   UNL     1      -3.377  10.305  16.987  0.00  0.00    +0.000 S 
ATOM      2  C   UNL     1      -4.456  11.125  17.933  0.00  0.00    +0.000 A 
ATOM      3  N   UNL     1      -5.806  10.992  17.643  0.00  0.00    +0.000 N 
ATOM      4  C   UNL     1      -6.766  11.704  18.288  0.00  0.00    +0.000 A 
ATOM      5  N   UNL     1      -6.541  12.514  19.268  0.00  0.00    +0.000 NA
ATOM      6  C   UNL     1      -5.240  12.618  19.644  0.00  0.00    +0.000 A 
ATOM      7  C   UNL     1      -4.149  12.004  19.052  0.00  0.00    +0.000 A 
ATOM      8  C   UNL     1      -2.988  12.474  19.769  0.00  0.00    +0.000 A 
ATOM      9  C   UNL     1      -3.432  13.351  20.794  0.00  0.00    +0.000 A 
ATOM     10  N   UNL     1      -4.839  13.376  20.718  0.00  0.00    +0.000 N 
ATOM     11  H   UNL     1      -6.051  10.380  16.871  0.00  0.00    +0.000 HD
ENDROOT
BRANCH   8  12
ATOM     12  C   UNL     1      -1.562  12.157  19.546  0.00  0.00    +0.000 A 
ATOM     13  C   UNL     1      -0.733  13.003  18.790  0.00  0.00    +0.000 A 
ATOM     14  C   UNL     1       0.644  12.774  18.699  0.00  0.00    +0.000 A 
ATOM     15  C   UNL     1       1.196  11.621  19.244  0.00  0.00    +0.000 A 
ATOM     16  C   UNL     1       0.381  10.731  19.932  0.00  0.00    +0.000 A 
ATOM     17  C   UNL     1      -0.968  11.037  20.137  0.00  0.00    +0.000 A 
ENDBRANCH   8  12
BRANCH   9  18
ATOM     18  C   UNL     1      -2.643  14.118  21.811  0.00  0.00    +0.000 A 
ATOM     19  C   UNL     1      -2.085  13.498  22.944  0.00  0.00    +0.000 A 
ATOM     20  C   UNL     1      -1.388  14.227  23.914  0.00  0.00    +0.000 A 
ATOM     21  C   UNL     1      -1.337  15.614  23.836  0.00  0.00    +0.000 A 
ATOM     22  C   UNL     1      -1.914  16.258  22.749  0.00  0.00    +0.000 A 
ATOM     23  C   UNL     1      -2.503  15.512  21.719  0.00  0.00    +0.000 A 
ENDBRANCH   9  18
BRANCH  10  24
ATOM     24  C   UNL     1      -5.746  14.035  21.675  0.00  0.00    +0.000 C 
ATOM     25  C   UNL     1      -7.233  13.649  21.563  0.00  0.00    +0.000 C 
ATOM     26  C   UNL     1      -7.662  12.452  22.405  0.00  0.00    +0.000 C 
ATOM     27  C   UNL     1      -7.125  12.487  23.832  0.00  0.00    +0.000 C 
ATOM     28  C   UNL     1      -5.655  12.877  23.978  0.00  0.00    +0.000 C 
ATOM     29  C   UNL     1      -5.260  14.075  23.131  0.00  0.00    +0.000 C 
ENDBRANCH  10  24
TORSDOF 3
ENDMDL
