MODEL 1
REMARK VINA RESULT:      -8.5      0.000      0.000
REMARK  Name = 
REMARK  11 active torsions:
REMARK  status: ('A' for Active; 'I' for Inactive)
REMARK    1  A    between atoms: C_1  and  O_2
REMARK    2  A    between atoms: O_2  and  C_3
REMARK    3  A    between atoms: C_5  and  C_6
REMARK    4  A    between atoms: C_8  and  O_9
REMARK    5  A    between atoms: O_9  and  C_10
REMARK    6  A    between atoms: C_10  and  C_11
REMARK    7  A    between atoms: C_10  and  C_12
REMARK    8  A    between atoms: C_10  and  C_13
REMARK    9  A    between atoms: C_24  and  O_25
REMARK   10  A    between atoms: O_25  and  C_26
REMARK   11  A    between atoms: C_27  and  O_28
REMARK                            x       y       z     vdW  Elec       q    Type
REMARK                         _______ _______ _______ _____ _____    ______ ____
ROOT
ATOM      1  C   UNL     1       3.471   5.226  18.093  0.00  0.00    +0.000 C 
ATOM      2  C   UNL     1       3.907   4.862  19.537  0.00  0.00    +0.000 C 
ATOM      3  C   UNL     1       2.668   5.222  20.407  0.00  0.00    +0.000 C 
ATOM      4  C   UNL     1       2.345   6.539  19.753  0.00  0.00    +0.000 A 
ATOM      5  C   UNL     1       1.839   7.694  20.332  0.00  0.00    +0.000 A 
ATOM      6  C   UNL     1       1.642   8.763  19.482  0.00  0.00    +0.000 A 
ATOM      7  C   UNL     1       1.922   8.694  18.129  0.00  0.00    +0.000 A 
ATOM      8  C   UNL     1       2.449   7.569  17.538  0.00  0.00    +0.000 A 
ATOM      9  C   UNL     1       2.711   6.500  18.387  0.00  0.00    +0.000 A 
ATOM     10  O   UNL     1       1.671   9.871  17.490  0.00  0.00    +0.000 OA
ATOM     11  C   UNL     1       1.300  10.707  18.604  0.00  0.00    +0.000 C 
ATOM     12  O   UNL     1       1.181   9.989  19.851  0.00  0.00    +0.000 OA
ENDROOT
BRANCH   1  15
ATOM     13  C   UNL     1       6.689   6.439  16.437  0.00  0.00    +0.000 A 
ATOM     14  C   UNL     1       5.528   6.383  17.221  0.00  0.00    +0.000 A 
ATOM     15  C   UNL     1       4.567   5.372  17.055  0.00  0.00    +0.000 A 
ATOM     16  C   UNL     1       4.751   4.455  16.006  0.00  0.00    +0.000 A 
ATOM     17  C   UNL     1       5.925   4.465  15.244  0.00  0.00    +0.000 A 
ATOM     18  C   UNL     1       6.893   5.459  15.460  0.00  0.00    +0.000 A 
BRANCH  13  20
ATOM     19  C   UNL     1       7.970   7.627  18.081  0.00  0.00    +0.000 C 
ATOM     20  O   UNL     1       7.488   7.508  16.750  0.00  0.00    +0.000 OA
ENDBRANCH  13  20
BRANCH  17  21
ATOM     21  O   UNL     1       6.010   3.502  14.267  0.00  0.00    +0.000 OA
ATOM     22  C   UNL     1       5.381   3.833  13.027  0.00  0.00    +0.000 C 
ENDBRANCH  17  21
BRANCH  18  23
ATOM     23  O   UNL     1       8.012   5.492  14.679  0.00  0.00    +0.000 OA
ATOM     24  H   UNL     1       8.606   6.130  15.110  0.00  0.00    +0.000 HD
ENDBRANCH  18  23
ENDBRANCH   1  15
BRANCH   3  25
ATOM     25  O   UNL     1       1.679   4.216  20.154  0.00  0.00    +0.000 OA
BRANCH  25  26
ATOM     26  C   UNL     1       1.939   2.831  20.419  0.00  0.00    +0.000 C 
ATOM     27  C   UNL     1       3.422   2.527  20.656  0.00  0.00    +0.000 C 
ATOM     28  C   UNL     1       1.214   2.530  21.746  0.00  0.00    +0.000 C 
ATOM     29  C   UNL     1       1.363   1.916  19.335  0.00  0.00    +0.000 C 
ENDBRANCH  25  26
ENDBRANCH   3  25
TORSDOF 6
ENDMDL
MODEL 2
REMARK VINA RESULT:      -8.3      0.420      2.559
REMARK  Name = 
REMARK  11 active torsions:
REMARK  status: ('A' for Active; 'I' for Inactive)
REMARK    1  A    between atoms: C_1  and  O_2
REMARK    2  A    between atoms: O_2  and  C_3
REMARK    3  A    between atoms: C_5  and  C_6
REMARK    4  A    between atoms: C_8  and  O_9
REMARK    5  A    between atoms: O_9  and  C_10
REMARK    6  A    between atoms: C_10  and  C_11
REMARK    7  A    between atoms: C_10  and  C_12
REMARK    8  A    between atoms: C_10  and  C_13
REMARK    9  A    between atoms: C_24  and  O_25
REMARK   10  A    between atoms: O_25  and  C_26
REMARK   11  A    between atoms: C_27  and  O_28
REMARK                            x       y       z     vdW  Elec       q    Type
REMARK                         _______ _______ _______ _____ _____    ______ ____
ROOT
ATOM      1  C   UNL     1       3.702   5.066  18.127  0.00  0.00    +0.000 C 
ATOM      2  C   UNL     1       3.880   4.688  19.621  0.00  0.00    +0.000 C 
ATOM      3  C   UNL     1       2.541   5.123  20.284  0.00  0.00    +0.000 C 
ATOM      4  C   UNL     1       2.401   6.450  19.589  0.00  0.00    +0.000 A 
ATOM      5  C   UNL     1       1.875   7.636  20.082  0.00  0.00    +0.000 A 
ATOM      6  C   UNL     1       1.877   8.708  19.214  0.00  0.00    +0.000 A 
ATOM      7  C   UNL     1       2.364   8.615  17.922  0.00  0.00    +0.000 A 
ATOM      8  C   UNL     1       2.914   7.458  17.421  0.00  0.00    +0.000 A 
ATOM      9  C   UNL     1       2.977   6.382  18.299  0.00  0.00    +0.000 A 
ATOM     10  O   UNL     1       2.284   9.800  17.255  0.00  0.00    +0.000 OA
ATOM     11  C   UNL     1       1.788  10.663  18.297  0.00  0.00    +0.000 C 
ATOM     12  O   UNL     1       1.432   9.961  19.507  0.00  0.00    +0.000 OA
ENDROOT
BRANCH   1  15
ATOM     13  C   UNL     1       6.117   4.398  15.248  0.00  0.00    +0.000 A 
ATOM     14  C   UNL     1       5.106   4.246  16.208  0.00  0.00    +0.000 A 
ATOM     15  C   UNL     1       4.956   5.143  17.278  0.00  0.00    +0.000 A 
ATOM     16  C   UNL     1       5.913   6.162  17.422  0.00  0.00    +0.000 A 
ATOM     17  C   UNL     1       6.900   6.360  16.448  0.00  0.00    +0.000 A 
ATOM     18  C   UNL     1       7.001   5.475  15.363  0.00  0.00    +0.000 A 
BRANCH  13  20
ATOM     19  C   UNL     1       5.655   3.740  12.988  0.00  0.00    +0.000 C 
ATOM     20  O   UNL     1       6.096   3.411  14.297  0.00  0.00    +0.000 OA
ENDBRANCH  13  20
BRANCH  17  21
ATOM     21  O   UNL     1       7.762   7.405  16.677  0.00  0.00    +0.000 OA
ATOM     22  C   UNL     1       7.927   7.772  18.049  0.00  0.00    +0.000 C 
ENDBRANCH  17  21
BRANCH  18  23
ATOM     23  O   UNL     1       7.998   5.645  14.445  0.00  0.00    +0.000 OA
ATOM     24  H   UNL     1       7.650   5.270  13.618  0.00  0.00    +0.000 HD
ENDBRANCH  18  23
ENDBRANCH   1  15
BRANCH   3  25
ATOM     25  O   UNL     1       1.551   4.172  19.873  0.00  0.00    +0.000 OA
BRANCH  25  26
ATOM     26  C   UNL     1       1.645   2.789  20.243  0.00  0.00    +0.000 C 
ATOM     27  C   UNL     1       1.341   2.536  21.723  0.00  0.00    +0.000 C 
ATOM     28  C   UNL     1       0.536   2.079  19.441  0.00  0.00    +0.000 C 
ATOM     29  C   UNL     1       2.992   2.176  19.852  0.00  0.00    +0.000 C 
ENDBRANCH  25  26
ENDBRANCH   3  25
TORSDOF 6
ENDMDL
MODEL 3
REMARK VINA RESULT:      -7.8      0.933      1.300
REMARK  Name = 
REMARK  11 active torsions:
REMARK  status: ('A' for Active; 'I' for Inactive)
REMARK    1  A    between atoms: C_1  and  O_2
REMARK    2  A    between atoms: O_2  and  C_3
REMARK    3  A    between atoms: C_5  and  C_6
REMARK    4  A    between atoms: C_8  and  O_9
REMARK    5  A    between atoms: O_9  and  C_10
REMARK    6  A    between atoms: C_10  and  C_11
REMARK    7  A    between atoms: C_10  and  C_12
REMARK    8  A    between atoms: C_10  and  C_13
REMARK    9  A    between atoms: C_24  and  O_25
REMARK   10  A    between atoms: O_25  and  C_26
REMARK   11  A    between atoms: C_27  and  O_28
REMARK                            x       y       z     vdW  Elec       q    Type
REMARK                         _______ _______ _______ _____ _____    ______ ____
ROOT
ATOM      1  C   UNL     1       4.147   4.584  17.616  0.00  0.00    +0.000 C 
ATOM      2  C   UNL     1       4.714   4.149  18.993  0.00  0.00    +0.000 C 
ATOM      3  C   UNL     1       3.506   4.293  19.962  0.00  0.00    +0.000 C 
ATOM      4  C   UNL     1       3.000   5.615  19.450  0.00  0.00    +0.000 A 
ATOM      5  C   UNL     1       2.414   6.654  20.160  0.00  0.00    +0.000 A 
ATOM      6  C   UNL     1       2.048   7.762  19.424  0.00  0.00    +0.000 A 
ATOM      7  C   UNL     1       2.242   7.840  18.057  0.00  0.00    +0.000 A 
ATOM      8  C   UNL     1       2.846   6.835  17.336  0.00  0.00    +0.000 A 
ATOM      9  C   UNL     1       3.276   5.734  18.068  0.00  0.00    +0.000 A 
ATOM     10  O   UNL     1       1.825   9.031  17.544  0.00  0.00    +0.000 OA
ATOM     11  C   UNL     1       1.441   9.722  18.750  0.00  0.00    +0.000 C 
ATOM     12  O   UNL     1       1.484   8.893  19.929  0.00  0.00    +0.000 OA
ENDROOT
BRANCH   1  15
ATOM     13  C   UNL     1       7.212   6.134  15.951  0.00  0.00    +0.000 A 
ATOM     14  C   UNL     1       6.123   5.914  16.807  0.00  0.00    +0.000 A 
ATOM     15  C   UNL     1       5.149   4.939  16.534  0.00  0.00    +0.000 A 
ATOM     16  C   UNL     1       5.240   4.239  15.319  0.00  0.00    +0.000 A 
ATOM     17  C   UNL     1       6.345   4.410  14.476  0.00  0.00    +0.000 A 
ATOM     18  C   UNL     1       7.329   5.359  14.793  0.00  0.00    +0.000 A 
BRANCH  13  20
ATOM     19  C   UNL     1       7.692   7.823  17.587  0.00  0.00    +0.000 C 
ATOM     20  O   UNL     1       8.037   7.136  16.393  0.00  0.00    +0.000 OA
ENDBRANCH  13  20
BRANCH  17  21
ATOM     21  O   UNL     1       6.343   3.651  13.330  0.00  0.00    +0.000 OA
ATOM     22  C   UNL     1       5.131   3.690  12.573  0.00  0.00    +0.000 C 
ENDBRANCH  17  21
BRANCH  18  23
ATOM     23  O   UNL     1       8.377   5.556  13.940  0.00  0.00    +0.000 OA
ATOM     24  H   UNL     1       9.174   5.411  14.477  0.00  0.00    +0.000 HD
ENDBRANCH  18  23
ENDBRANCH   1  15
BRANCH   3  25
ATOM     25  O   UNL     1       2.615   3.208  19.674  0.00  0.00    +0.000 OA
BRANCH  25  26
ATOM     26  C   UNL     1       1.367   3.063  20.366  0.00  0.00    +0.000 C 
ATOM     27  C   UNL     1       0.534   4.349  20.388  0.00  0.00    +0.000 C 
ATOM     28  C   UNL     1       0.564   2.036  19.541  0.00  0.00    +0.000 C 
ATOM     29  C   UNL     1       1.550   2.510  21.781  0.00  0.00    +0.000 C 
ENDBRANCH  25  26
ENDBRANCH   3  25
TORSDOF 6
ENDMDL
MODEL 4
REMARK VINA RESULT:      -7.7      1.000      2.807
REMARK  Name = 
REMARK  11 active torsions:
REMARK  status: ('A' for Active; 'I' for Inactive)
REMARK    1  A    between atoms: C_1  and  O_2
REMARK    2  A    between atoms: O_2  and  C_3
REMARK    3  A    between atoms: C_5  and  C_6
REMARK    4  A    between atoms: C_8  and  O_9
REMARK    5  A    between atoms: O_9  and  C_10
REMARK    6  A    between atoms: C_10  and  C_11
REMARK    7  A    between atoms: C_10  and  C_12
REMARK    8  A    between atoms: C_10  and  C_13
REMARK    9  A    between atoms: C_24  and  O_25
REMARK   10  A    between atoms: O_25  and  C_26
REMARK   11  A    between atoms: C_27  and  O_28
REMARK                            x       y       z     vdW  Elec       q    Type
REMARK                         _______ _______ _______ _____ _____    ______ ____
ROOT
ATOM      1  C   UNL     1       4.401   4.310  17.907  0.00  0.00    +0.000 C 
ATOM      2  C   UNL     1       4.786   3.939  19.364  0.00  0.00    +0.000 C 
ATOM      3  C   UNL     1       3.472   4.156  20.169  0.00  0.00    +0.000 C 
ATOM      4  C   UNL     1       3.065   5.458  19.533  0.00  0.00    +0.000 A 
ATOM      5  C   UNL     1       2.423   6.543  20.112  0.00  0.00    +0.000 A 
ATOM      6  C   UNL     1       2.176   7.617  19.282  0.00  0.00    +0.000 A 
ATOM      7  C   UNL     1       2.537   7.619  17.947  0.00  0.00    +0.000 A 
ATOM      8  C   UNL     1       3.198   6.566  17.357  0.00  0.00    +0.000 A 
ATOM      9  C   UNL     1       3.510   5.498  18.191  0.00  0.00    +0.000 A 
ATOM     10  O   UNL     1       2.214   8.788  17.328  0.00  0.00    +0.000 OA
ATOM     11  C   UNL     1       1.704   9.550  18.440  0.00  0.00    +0.000 C 
ATOM     12  O   UNL     1       1.582   8.783  19.657  0.00  0.00    +0.000 OA
ENDROOT
BRANCH   1  15
ATOM     13  C   UNL     1       6.459   4.239  14.694  0.00  0.00    +0.000 A 
ATOM     14  C   UNL     1       5.582   3.882  15.728  0.00  0.00    +0.000 A 
ATOM     15  C   UNL     1       5.535   4.589  16.940  0.00  0.00    +0.000 A 
ATOM     16  C   UNL     1       6.467   5.623  17.136  0.00  0.00    +0.000 A 
ATOM     17  C   UNL     1       7.318   6.026  16.099  0.00  0.00    +0.000 A 
ATOM     18  C   UNL     1       7.313   5.332  14.879  0.00  0.00    +0.000 A 
BRANCH  13  20
ATOM     19  C   UNL     1       5.262   3.604  12.714  0.00  0.00    +0.000 C 
ATOM     20  O   UNL     1       6.354   3.417  13.602  0.00  0.00    +0.000 OA
ENDBRANCH  13  20
BRANCH  17  21
ATOM     21  O   UNL     1       8.165   7.067  16.394  0.00  0.00    +0.000 OA
ATOM     22  C   UNL     1       7.771   7.881  17.501  0.00  0.00    +0.000 C 
ENDBRANCH  17  21
BRANCH  18  23
ATOM     23  O   UNL     1       8.181   5.699  13.891  0.00  0.00    +0.000 OA
ATOM     24  H   UNL     1       8.983   5.996  14.353  0.00  0.00    +0.000 HD
ENDBRANCH  18  23
ENDBRANCH   1  15
BRANCH   3  25
ATOM     25  O   UNL     1       2.597   3.073  19.829  0.00  0.00    +0.000 OA
BRANCH  25  26
ATOM     26  C   UNL     1       1.280   2.973  20.390  0.00  0.00    +0.000 C 
ATOM     27  C   UNL     1       0.506   4.294  20.354  0.00  0.00    +0.000 C 
ATOM     28  C   UNL     1       0.521   1.997  19.469  0.00  0.00    +0.000 C 
ATOM     29  C   UNL     1       1.297   2.390  21.805  0.00  0.00    +0.000 C 
ENDBRANCH  25  26
ENDBRANCH   3  25
TORSDOF 6
ENDMDL
MODEL 5
REMARK VINA RESULT:      -7.6      1.824      6.870
REMARK  Name = 
REMARK  11 active torsions:
REMARK  status: ('A' for Active; 'I' for Inactive)
REMARK    1  A    between atoms: C_1  and  O_2
REMARK    2  A    between atoms: O_2  and  C_3
REMARK    3  A    between atoms: C_5  and  C_6
REMARK    4  A    between atoms: C_8  and  O_9
REMARK    5  A    between atoms: O_9  and  C_10
REMARK    6  A    between atoms: C_10  and  C_11
REMARK    7  A    between atoms: C_10  and  C_12
REMARK    8  A    between atoms: C_10  and  C_13
REMARK    9  A    between atoms: C_24  and  O_25
REMARK   10  A    between atoms: O_25  and  C_26
REMARK   11  A    between atoms: C_27  and  O_28
REMARK                            x       y       z     vdW  Elec       q    Type
REMARK                         _______ _______ _______ _____ _____    ______ ____
ROOT
ATOM      1  C   UNL     1       2.599   7.162  18.093  0.00  0.00    +0.000 C 
ATOM      2  C   UNL     1       4.114   7.475  18.210  0.00  0.00    +0.000 C 
ATOM      3  C   UNL     1       4.803   6.100  17.978  0.00  0.00    +0.000 C 
ATOM      4  C   UNL     1       3.876   5.270  18.826  0.00  0.00    +0.000 A 
ATOM      5  C   UNL     1       4.172   4.163  19.608  0.00  0.00    +0.000 A 
ATOM      6  C   UNL     1       3.113   3.598  20.288  0.00  0.00    +0.000 A 
ATOM      7  C   UNL     1       1.825   4.095  20.196  0.00  0.00    +0.000 A 
ATOM      8  C   UNL     1       1.512   5.207  19.448  0.00  0.00    +0.000 A 
ATOM      9  C   UNL     1       2.576   5.826  18.802  0.00  0.00    +0.000 A 
ATOM     10  O   UNL     1       0.947   3.394  20.966  0.00  0.00    +0.000 OA
ATOM     11  C   UNL     1       1.840   2.473  21.622  0.00  0.00    +0.000 C 
ATOM     12  O   UNL     1       3.194   2.528  21.125  0.00  0.00    +0.000 OA
ENDROOT
BRANCH   1  15
ATOM     13  C   UNL     1       1.044   9.650  20.534  0.00  0.00    +0.000 A 
ATOM     14  C   UNL     1       1.742   8.555  20.004  0.00  0.00    +0.000 A 
ATOM     15  C   UNL     1       1.634   8.189  18.652  0.00  0.00    +0.000 A 
ATOM     16  C   UNL     1       0.725   8.898  17.849  0.00  0.00    +0.000 A 
ATOM     17  C   UNL     1       0.056  10.023  18.346  0.00  0.00    +0.000 A 
ATOM     18  C   UNL     1       0.216  10.397  19.690  0.00  0.00    +0.000 A 
BRANCH  13  20
ATOM     19  C   UNL     1       0.310   9.361  22.800  0.00  0.00    +0.000 C 
ATOM     20  O   UNL     1       1.279   9.829  21.873  0.00  0.00    +0.000 OA
ENDBRANCH  13  20
BRANCH  17  21
ATOM     21  O   UNL     1      -0.784  10.657  17.462  0.00  0.00    +0.000 OA
ATOM     22  C   UNL     1      -2.044  10.017  17.250  0.00  0.00    +0.000 C 
ENDBRANCH  17  21
BRANCH  18  23
ATOM     23  O   UNL     1      -0.479  11.465  20.181  0.00  0.00    +0.000 OA
ATOM     24  H   UNL     1       0.057  12.244  19.956  0.00  0.00    +0.000 HD
ENDBRANCH  18  23
ENDBRANCH   1  15
BRANCH   3  25
ATOM     25  O   UNL     1       4.687   5.811  16.579  0.00  0.00    +0.000 OA
BRANCH  25  26
ATOM     26  C   UNL     1       5.595   4.914  15.924  0.00  0.00    +0.000 C 
ATOM     27  C   UNL     1       6.961   4.827  16.612  0.00  0.00    +0.000 C 
ATOM     28  C   UNL     1       4.951   3.519  16.055  0.00  0.00    +0.000 C 
ATOM     29  C   UNL     1       5.754   5.236  14.437  0.00  0.00    +0.000 C 
ENDBRANCH  25  26
ENDBRANCH   3  25
TORSDOF 6
ENDMDL
MODEL 6
REMARK VINA RESULT:      -7.6      1.756      7.138
REMARK  Name = 
REMARK  11 active torsions:
REMARK  status: ('A' for Active; 'I' for Inactive)
REMARK    1  A    between atoms: C_1  and  O_2
REMARK    2  A    between atoms: O_2  and  C_3
REMARK    3  A    between atoms: C_5  and  C_6
REMARK    4  A    between atoms: C_8  and  O_9
REMARK    5  A    between atoms: O_9  and  C_10
REMARK    6  A    between atoms: C_10  and  C_11
REMARK    7  A    between atoms: C_10  and  C_12
REMARK    8  A    between atoms: C_10  and  C_13
REMARK    9  A    between atoms: C_24  and  O_25
REMARK   10  A    between atoms: O_25  and  C_26
REMARK   11  A    between atoms: C_27  and  O_28
REMARK                            x       y       z     vdW  Elec       q    Type
REMARK                         _______ _______ _______ _____ _____    ______ ____
ROOT
ATOM      1  C   UNL     1       2.776   7.206  18.021  0.00  0.00    +0.000 C 
ATOM      2  C   UNL     1       4.313   7.406  18.093  0.00  0.00    +0.000 C 
ATOM      3  C   UNL     1       4.891   5.983  17.840  0.00  0.00    +0.000 C 
ATOM      4  C   UNL     1       3.931   5.223  18.714  0.00  0.00    +0.000 A 
ATOM      5  C   UNL     1       4.168   4.095  19.487  0.00  0.00    +0.000 A 
ATOM      6  C   UNL     1       3.091   3.608  20.197  0.00  0.00    +0.000 A 
ATOM      7  C   UNL     1       1.840   4.199  20.144  0.00  0.00    +0.000 A 
ATOM      8  C   UNL     1       1.588   5.333  19.407  0.00  0.00    +0.000 A 
ATOM      9  C   UNL     1       2.676   5.874  18.730  0.00  0.00    +0.000 A 
ATOM     10  O   UNL     1       0.936   3.563  20.940  0.00  0.00    +0.000 OA
ATOM     11  C   UNL     1       1.778   2.577  21.569  0.00  0.00    +0.000 C 
ATOM     12  O   UNL     1       3.116   2.532  21.031  0.00  0.00    +0.000 OA
ENDROOT
BRANCH   1  15
ATOM     13  C   UNL     1       0.022   9.835  18.276  0.00  0.00    +0.000 A 
ATOM     14  C   UNL     1       1.009   8.978  17.769  0.00  0.00    +0.000 A 
ATOM     15  C   UNL     1       1.907   8.301  18.610  0.00  0.00    +0.000 A 
ATOM     16  C   UNL     1       1.856   8.576  19.987  0.00  0.00    +0.000 A 
ATOM     17  C   UNL     1       0.849   9.391  20.517  0.00  0.00    +0.000 A 
ATOM     18  C   UNL     1      -0.067  10.021  19.659  0.00  0.00    +0.000 A 
BRANCH  13  20
ATOM     19  C   UNL     1      -2.032   9.867  17.037  0.00  0.00    +0.000 C 
ATOM     20  O   UNL     1      -0.742  10.404  17.290  0.00  0.00    +0.000 OA
ENDBRANCH  13  20
BRANCH  17  21
ATOM     21  O   UNL     1       0.878   9.565  21.880  0.00  0.00    +0.000 OA
ATOM     22  C   UNL     1      -0.234   9.018  22.590  0.00  0.00    +0.000 C 
ENDBRANCH  17  21
BRANCH  18  23
ATOM     23  O   UNL     1      -1.015  10.854  20.180  0.00  0.00    +0.000 OA
ATOM     24  H   UNL     1      -1.672  10.268  20.594  0.00  0.00    +0.000 HD
ENDBRANCH  18  23
ENDBRANCH   1  15
BRANCH   3  25
ATOM     25  O   UNL     1       4.712   5.708  16.445  0.00  0.00    +0.000 OA
BRANCH  25  26
ATOM     26  C   UNL     1       5.647   4.898  15.718  0.00  0.00    +0.000 C 
ATOM     27  C   UNL     1       5.633   5.163  14.210  0.00  0.00    +0.000 C 
ATOM     28  C   UNL     1       7.037   5.331  16.226  0.00  0.00    +0.000 C 
ATOM     29  C   UNL     1       5.469   3.406  16.010  0.00  0.00    +0.000 C 
ENDBRANCH  25  26
ENDBRANCH   3  25
TORSDOF 6
ENDMDL
MODEL 7
REMARK VINA RESULT:      -7.5      1.705      6.794
REMARK  Name = 
REMARK  11 active torsions:
REMARK  status: ('A' for Active; 'I' for Inactive)
REMARK    1  A    between atoms: C_1  and  O_2
REMARK    2  A    between atoms: O_2  and  C_3
REMARK    3  A    between atoms: C_5  and  C_6
REMARK    4  A    between atoms: C_8  and  O_9
REMARK    5  A    between atoms: O_9  and  C_10
REMARK    6  A    between atoms: C_10  and  C_11
REMARK    7  A    between atoms: C_10  and  C_12
REMARK    8  A    between atoms: C_10  and  C_13
REMARK    9  A    between atoms: C_24  and  O_25
REMARK   10  A    between atoms: O_25  and  C_26
REMARK   11  A    between atoms: C_27  and  O_28
REMARK                            x       y       z     vdW  Elec       q    Type
REMARK                         _______ _______ _______ _____ _____    ______ ____
ROOT
ATOM      1  C   UNL     1       3.057   7.139  17.946  0.00  0.00    +0.000 C 
ATOM      2  C   UNL     1       4.592   7.312  18.086  0.00  0.00    +0.000 C 
ATOM      3  C   UNL     1       5.154   5.877  17.874  0.00  0.00    +0.000 C 
ATOM      4  C   UNL     1       4.141   5.144  18.712  0.00  0.00    +0.000 A 
ATOM      5  C   UNL     1       4.322   4.020  19.506  0.00  0.00    +0.000 A 
ATOM      6  C   UNL     1       3.204   3.562  20.172  0.00  0.00    +0.000 A 
ATOM      7  C   UNL     1       1.969   4.174  20.056  0.00  0.00    +0.000 A 
ATOM      8  C   UNL     1       1.772   5.304  19.296  0.00  0.00    +0.000 A 
ATOM      9  C   UNL     1       2.899   5.818  18.663  0.00  0.00    +0.000 A 
ATOM     10  O   UNL     1       1.018   3.564  20.817  0.00  0.00    +0.000 OA
ATOM     11  C   UNL     1       1.812   2.570  21.494  0.00  0.00    +0.000 C 
ATOM     12  O   UNL     1       3.172   2.495  21.018  0.00  0.00    +0.000 OA
ENDROOT
BRANCH   1  15
ATOM     13  C   UNL     1       0.906   9.139  20.383  0.00  0.00    +0.000 A 
ATOM     14  C   UNL     1       1.541   8.080  19.719  0.00  0.00    +0.000 A 
ATOM     15  C   UNL     1       2.182   8.256  18.483  0.00  0.00    +0.000 A 
ATOM     16  C   UNL     1       2.094   9.517  17.869  0.00  0.00    +0.000 A 
ATOM     17  C   UNL     1       1.507  10.599  18.537  0.00  0.00    +0.000 A 
ATOM     18  C   UNL     1       0.912  10.408  19.794  0.00  0.00    +0.000 A 
BRANCH  13  20
ATOM     19  C   UNL     1       0.867   9.269  22.779  0.00  0.00    +0.000 C 
ATOM     20  O   UNL     1       0.333   8.754  21.568  0.00  0.00    +0.000 OA
ENDBRANCH  13  20
BRANCH  17  21
ATOM     21  O   UNL     1       1.505  11.791  17.853  0.00  0.00    +0.000 OA
ATOM     22  C   UNL     1       2.570  12.685  18.180  0.00  0.00    +0.000 C 
ENDBRANCH  17  21
BRANCH  18  23
ATOM     23  O   UNL     1       0.297  11.456  20.416  0.00  0.00    +0.000 OA
ATOM     24  H   UNL     1      -0.218  11.899  19.721  0.00  0.00    +0.000 HD
ENDBRANCH  18  23
ENDBRANCH   1  15
BRANCH   3  25
ATOM     25  O   UNL     1       5.034   5.588  16.475  0.00  0.00    +0.000 OA
BRANCH  25  26
ATOM     26  C   UNL     1       5.890   4.633  15.834  0.00  0.00    +0.000 C 
ATOM     27  C   UNL     1       6.313   5.052  14.422  0.00  0.00    +0.000 C 
ATOM     28  C   UNL     1       7.175   4.606  16.685  0.00  0.00    +0.000 C 
ATOM     29  C   UNL     1       5.286   3.227  15.826  0.00  0.00    +0.000 C 
ENDBRANCH  25  26
ENDBRANCH   3  25
TORSDOF 6
ENDMDL
MODEL 8
REMARK VINA RESULT:      -7.2      1.090      1.096
REMARK  Name = 
REMARK  11 active torsions:
REMARK  status: ('A' for Active; 'I' for Inactive)
REMARK    1  A    between atoms: C_1  and  O_2
REMARK    2  A    between atoms: O_2  and  C_3
REMARK    3  A    between atoms: C_5  and  C_6
REMARK    4  A    between atoms: C_8  and  O_9
REMARK    5  A    between atoms: O_9  and  C_10
REMARK    6  A    between atoms: C_10  and  C_11
REMARK    7  A    between atoms: C_10  and  C_12
REMARK    8  A    between atoms: C_10  and  C_13
REMARK    9  A    between atoms: C_24  and  O_25
REMARK   10  A    between atoms: O_25  and  C_26
REMARK   11  A    between atoms: C_27  and  O_28
REMARK                            x       y       z     vdW  Elec       q    Type
REMARK                         _______ _______ _______ _____ _____    ______ ____
ROOT
ATOM      1  C   UNL     1       3.342   5.253  18.547  0.00  0.00    +0.000 C 
ATOM      2  C   UNL     1       3.505   4.897  20.048  0.00  0.00    +0.000 C 
ATOM      3  C   UNL     1       2.162   5.347  20.691  0.00  0.00    +0.000 C 
ATOM      4  C   UNL     1       2.032   6.664  19.975  0.00  0.00    +0.000 A 
ATOM      5  C   UNL     1       1.506   7.859  20.445  0.00  0.00    +0.000 A 
ATOM      6  C   UNL     1       1.519   8.917  19.561  0.00  0.00    +0.000 A 
ATOM      7  C   UNL     1       2.018   8.803  18.275  0.00  0.00    +0.000 A 
ATOM      8  C   UNL     1       2.569   7.636  17.796  0.00  0.00    +0.000 A 
ATOM      9  C   UNL     1       2.620   6.574  18.692  0.00  0.00    +0.000 A 
ATOM     10  O   UNL     1       1.948   9.977  17.589  0.00  0.00    +0.000 OA
ATOM     11  C   UNL     1       1.445  10.858  18.613  0.00  0.00    +0.000 C 
ATOM     12  O   UNL     1       1.076  10.176  19.830  0.00  0.00    +0.000 OA
ENDROOT
BRANCH   1  15
ATOM     13  C   UNL     1       7.039   5.023  17.629  0.00  0.00    +0.000 A 
ATOM     14  C   UNL     1       5.849   5.202  18.348  0.00  0.00    +0.000 A 
ATOM     15  C   UNL     1       4.604   5.313  17.708  0.00  0.00    +0.000 A 
ATOM     16  C   UNL     1       4.585   5.334  16.303  0.00  0.00    +0.000 A 
ATOM     17  C   UNL     1       5.755   5.108  15.568  0.00  0.00    +0.000 A 
ATOM     18  C   UNL     1       6.982   4.954  16.233  0.00  0.00    +0.000 A 
BRANCH  13  20
ATOM     19  C   UNL     1       8.111   5.625  19.689  0.00  0.00    +0.000 C 
ATOM     20  O   UNL     1       8.142   4.950  18.440  0.00  0.00    +0.000 OA
ENDBRANCH  13  20
BRANCH  17  21
ATOM     21  O   UNL     1       5.612   5.119  14.201  0.00  0.00    +0.000 OA
ATOM     22  C   UNL     1       5.638   3.836  13.573  0.00  0.00    +0.000 C 
ENDBRANCH  17  21
BRANCH  18  23
ATOM     23  O   UNL     1       8.126   4.785  15.507  0.00  0.00    +0.000 OA
ATOM     24  H   UNL     1       8.722   5.495  15.799  0.00  0.00    +0.000 HD
ENDBRANCH  18  23
ENDBRANCH   1  15
BRANCH   3  25
ATOM     25  O   UNL     1       1.172   4.393  20.287  0.00  0.00    +0.000 OA
BRANCH  25  26
ATOM     26  C   UNL     1       1.415   2.982  20.374  0.00  0.00    +0.000 C 
ATOM     27  C   UNL     1       2.884   2.606  20.155  0.00  0.00    +0.000 C 
ATOM     28  C   UNL     1       1.079   2.603  21.830  0.00  0.00    +0.000 C 
ATOM     29  C   UNL     1       0.504   2.179  19.442  0.00  0.00    +0.000 C 
ENDBRANCH  25  26
ENDBRANCH   3  25
TORSDOF 6
ENDMDL
MODEL 9
REMARK VINA RESULT:      -7.2      1.410      4.472
REMARK  Name = 
REMARK  11 active torsions:
REMARK  status: ('A' for Active; 'I' for Inactive)
REMARK    1  A    between atoms: C_1  and  O_2
REMARK    2  A    between atoms: O_2  and  C_3
REMARK    3  A    between atoms: C_5  and  C_6
REMARK    4  A    between atoms: C_8  and  O_9
REMARK    5  A    between atoms: O_9  and  C_10
REMARK    6  A    between atoms: C_10  and  C_11
REMARK    7  A    between atoms: C_10  and  C_12
REMARK    8  A    between atoms: C_10  and  C_13
REMARK    9  A    between atoms: C_24  and  O_25
REMARK   10  A    between atoms: O_25  and  C_26
REMARK   11  A    between atoms: C_27  and  O_28
REMARK                            x       y       z     vdW  Elec       q    Type
REMARK                         _______ _______ _______ _____ _____    ______ ____
ROOT
ATOM      1  C   UNL     1       3.668   6.959  18.682  0.00  0.00    +0.000 C 
ATOM      2  C   UNL     1       2.306   7.512  18.187  0.00  0.00    +0.000 C 
ATOM      3  C   UNL     1       1.388   7.433  19.442  0.00  0.00    +0.000 C 
ATOM      4  C   UNL     1       1.814   6.067  19.910  0.00  0.00    +0.000 A 
ATOM      5  C   UNL     1       1.050   5.083  20.522  0.00  0.00    +0.000 A 
ATOM      6  C   UNL     1       1.709   3.914  20.842  0.00  0.00    +0.000 A 
ATOM      7  C   UNL     1       3.054   3.726  20.579  0.00  0.00    +0.000 A 
ATOM      8  C   UNL     1       3.825   4.677  19.949  0.00  0.00    +0.000 A 
ATOM      9  C   UNL     1       3.166   5.839  19.565  0.00  0.00    +0.000 A 
ATOM     10  O   UNL     1       3.487   2.493  20.961  0.00  0.00    +0.000 OA
ATOM     11  C   UNL     1       2.249   1.897  21.398  0.00  0.00    +0.000 C 
ATOM     12  O   UNL     1       1.141   2.821  21.421  0.00  0.00    +0.000 OA
ENDROOT
BRANCH   1  15
ATOM     13  C   UNL     1       6.970   6.667  16.790  0.00  0.00    +0.000 A 
ATOM     14  C   UNL     1       5.922   7.157  17.582  0.00  0.00    +0.000 A 
ATOM     15  C   UNL     1       4.666   6.529  17.624  0.00  0.00    +0.000 A 
ATOM     16  C   UNL     1       4.449   5.434  16.771  0.00  0.00    +0.000 A 
ATOM     17  C   UNL     1       5.496   4.901  16.010  0.00  0.00    +0.000 A 
ATOM     18  C   UNL     1       6.756   5.520  16.019  0.00  0.00    +0.000 A 
BRANCH  13  20
ATOM     19  C   UNL     1       8.104   8.542  17.767  0.00  0.00    +0.000 C 
ATOM     20  O   UNL     1       8.105   7.431  16.882  0.00  0.00    +0.000 OA
ENDBRANCH  13  20
BRANCH  17  21
ATOM     21  O   UNL     1       5.176   3.811  15.236  0.00  0.00    +0.000 OA
ATOM     22  C   UNL     1       5.465   3.943  13.843  0.00  0.00    +0.000 C 
ENDBRANCH  17  21
BRANCH  18  23
ATOM     23  O   UNL     1       7.758   5.024  15.235  0.00  0.00    +0.000 OA
ATOM     24  H   UNL     1       7.316   4.697  14.433  0.00  0.00    +0.000 HD
ENDBRANCH  18  23
ENDBRANCH   1  15
BRANCH   3  25
ATOM     25  O   UNL     1       1.808   8.480  20.326  0.00  0.00    +0.000 OA
BRANCH  25  26
ATOM     26  C   UNL     1       0.867   9.180  21.152  0.00  0.00    +0.000 C 
ATOM     27  C   UNL     1      -0.452   8.426  21.341  0.00  0.00    +0.000 C 
ATOM     28  C   UNL     1       1.530   9.256  22.543  0.00  0.00    +0.000 C 
ATOM     29  C   UNL     1       0.613  10.606  20.659  0.00  0.00    +0.000 C 
ENDBRANCH  25  26
ENDBRANCH   3  25
TORSDOF 6
ENDMDL
