MODEL 1
REMARK VINA RESULT:      -8.2      0.000      0.000
REMARK  Name = 
REMARK  7 active torsions:
REMARK  status: ('A' for Active; 'I' for Inactive)
REMARK    1  A    between atoms: C_1  and  C_2
REMARK    2  A    between atoms: C_2  and  C_3
REMARK    3  A    between atoms: C_4  and  C_5
REMARK    4  A    between atoms: C_5  and  N_6
REMARK    5  A    between atoms: C_9  and  C_10
REMARK    6  A    between atoms: N_12  and  C_13
REMARK    7  A    between atoms: C_16  and  C_17
REMARK                            x       y       z     vdW  Elec       q    Type
REMARK                         _______ _______ _______ _____ _____    ______ ____
ROOT
ATOM      1  C   UNL     1       2.243   7.378  19.871  0.00  0.00    +0.000 A 
ATOM      2  C   UNL     1       2.053   8.332  18.862  0.00  0.00    +0.000 A 
ATOM      3  C   UNL     1       1.181   9.424  19.036  0.00  0.00    +0.000 A 
ATOM      4  C   UNL     1       0.472   9.568  20.235  0.00  0.00    +0.000 A 
ATOM      5  C   UNL     1       0.655   8.598  21.232  0.00  0.00    +0.000 A 
ATOM      6  C   UNL     1       1.519   7.512  21.054  0.00  0.00    +0.000 A 
ENDROOT
BRANCH   4   7
ATOM      7  C   UNL     1      -0.530  10.610  20.479  0.00  0.00    +0.000 A 
ATOM      8  N   UNL     1      -0.678  11.216  21.641  0.00  0.00    +0.000 NA
ATOM      9  C   UNL     1      -1.743  12.060  21.507  0.00  0.00    +0.000 A 
ATOM     10  C   UNL     1      -2.330  12.890  22.471  0.00  0.00    +0.000 A 
ATOM     11  C   UNL     1      -3.447  13.650  22.107  0.00  0.00    +0.000 A 
ATOM     12  C   UNL     1      -3.953  13.588  20.809  0.00  0.00    +0.000 A 
ATOM     13  C   UNL     1      -3.363  12.779  19.824  0.00  0.00    +0.000 A 
ATOM     14  C   UNL     1      -2.253  12.018  20.218  0.00  0.00    +0.000 A 
ATOM     15  N   UNL     1      -1.436  11.119  19.566  0.00  0.00    +0.000 N 
ATOM     16  H   UNL     1      -1.488  10.878  18.588  0.00  0.00    +0.000 HD
ENDBRANCH   4   7
BRANCH   1  19
ATOM     17  C   UNL     1       2.769   5.053  19.167  0.00  0.00    +0.000 C 
ATOM     18  O   UNL     1       1.721   4.861  18.563  0.00  0.00    +0.000 OA
ATOM     19  N   UNL     1       3.107   6.262  19.744  0.00  0.00    +0.000 N 
ATOM     20  H   UNL     1       4.090   6.425  19.934  0.00  0.00    +0.000 HD
BRANCH  17  24
ATOM     21  N   UNL     1       5.445   4.355  16.795  0.00  0.00    +0.000 NA
ATOM     22  C   UNL     1       5.603   5.261  17.940  0.00  0.00    +0.000 C 
ATOM     23  C   UNL     1       5.257   4.593  19.275  0.00  0.00    +0.000 C 
ATOM     24  C   UNL     1       3.856   3.968  19.246  0.00  0.00    +0.000 C 
ATOM     25  C   UNL     1       3.813   2.968  18.087  0.00  0.00    +0.000 C 
ATOM     26  C   UNL     1       4.169   3.642  16.756  0.00  0.00    +0.000 C 
BRANCH  21  27
ATOM     27  C   UNL     1       5.733   5.046  15.526  0.00  0.00    +0.000 C 
BRANCH  27  31
ATOM     28  C   UNL     1       6.163   3.255  12.066  0.00  0.00    +0.000 C 
ATOM     29  C   UNL     1       6.451   4.173  13.224  0.00  0.00    +0.000 C 
ATOM     30  C   UNL     1       7.666   5.049  13.125  0.00  0.00    +0.000 C 
ATOM     31  C   UNL     1       5.617   4.191  14.285  0.00  0.00    +0.000 C 
ENDBRANCH  27  31
ENDBRANCH  21  27
ENDBRANCH  17  24
ENDBRANCH   1  19
TORSDOF 5
ENDMDL
MODEL 2
REMARK VINA RESULT:      -8.1      1.941      3.883
REMARK  Name = 
REMARK  7 active torsions:
REMARK  status: ('A' for Active; 'I' for Inactive)
REMARK    1  A    between atoms: C_1  and  C_2
REMARK    2  A    between atoms: C_2  and  C_3
REMARK    3  A    between atoms: C_4  and  C_5
REMARK    4  A    between atoms: C_5  and  N_6
REMARK    5  A    between atoms: C_9  and  C_10
REMARK    6  A    between atoms: N_12  and  C_13
REMARK    7  A    between atoms: C_16  and  C_17
REMARK                            x       y       z     vdW  Elec       q    Type
REMARK                         _______ _______ _______ _____ _____    ______ ____
ROOT
ATOM      1  C   UNL     1       2.875   7.423  18.224  0.00  0.00    +0.000 A 
ATOM      2  C   UNL     1       2.381   8.551  17.556  0.00  0.00    +0.000 A 
ATOM      3  C   UNL     1       1.548   9.484  18.203  0.00  0.00    +0.000 A 
ATOM      4  C   UNL     1       1.186   9.287  19.541  0.00  0.00    +0.000 A 
ATOM      5  C   UNL     1       1.670   8.145  20.196  0.00  0.00    +0.000 A 
ATOM      6  C   UNL     1       2.494   7.218  19.548  0.00  0.00    +0.000 A 
ENDROOT
BRANCH   4   7
ATOM      7  C   UNL     1       0.249  10.143  20.275  0.00  0.00    +0.000 A 
ATOM      8  N   UNL     1       0.095  10.094  21.584  0.00  0.00    +0.000 NA
ATOM      9  C   UNL     1      -0.904  10.974  21.892  0.00  0.00    +0.000 A 
ATOM     10  C   UNL     1      -1.472  11.253  23.141  0.00  0.00    +0.000 A 
ATOM     11  C   UNL     1      -2.518  12.180  23.208  0.00  0.00    +0.000 A 
ATOM     12  C   UNL     1      -2.973  12.818  22.054  0.00  0.00    +0.000 A 
ATOM     13  C   UNL     1      -2.400  12.567  20.796  0.00  0.00    +0.000 A 
ATOM     14  C   UNL     1      -1.362  11.625  20.756  0.00  0.00    +0.000 A 
ATOM     15  N   UNL     1      -0.582  11.112  19.740  0.00  0.00    +0.000 N 
ATOM     16  H   UNL     1      -0.610  11.398  18.774  0.00  0.00    +0.000 HD
ENDBRANCH   4   7
BRANCH   1  19
ATOM     17  C   UNL     1       5.018   6.669  17.213  0.00  0.00    +0.000 C 
ATOM     18  O   UNL     1       5.647   7.688  17.474  0.00  0.00    +0.000 OA
ATOM     19  N   UNL     1       3.714   6.455  17.617  0.00  0.00    +0.000 N 
ATOM     20  H   UNL     1       3.389   5.495  17.639  0.00  0.00    +0.000 HD
BRANCH  17  24
ATOM     21  N   UNL     1       4.712   3.114  17.946  0.00  0.00    +0.000 NA
ATOM     22  C   UNL     1       3.838   3.816  16.998  0.00  0.00    +0.000 C 
ATOM     23  C   UNL     1       4.619   4.543  15.898  0.00  0.00    +0.000 C 
ATOM     24  C   UNL     1       5.677   5.485  16.487  0.00  0.00    +0.000 C 
ATOM     25  C   UNL     1       6.601   4.654  17.381  0.00  0.00    +0.000 C 
ATOM     26  C   UNL     1       5.811   3.923  18.473  0.00  0.00    +0.000 C 
BRANCH  21  27
ATOM     27  C   UNL     1       3.930   2.474  19.018  0.00  0.00    +0.000 C 
BRANCH  27  31
ATOM     28  C   UNL     1       0.804   4.342  20.466  0.00  0.00    +0.000 C 
ATOM     29  C   UNL     1       1.610   3.340  19.685  0.00  0.00    +0.000 C 
ATOM     30  C   UNL     1       0.855   2.340  18.858  0.00  0.00    +0.000 C 
ATOM     31  C   UNL     1       2.958   3.381  19.737  0.00  0.00    +0.000 C 
ENDBRANCH  27  31
ENDBRANCH  21  27
ENDBRANCH  17  24
ENDBRANCH   1  19
TORSDOF 5
ENDMDL
MODEL 3
REMARK VINA RESULT:      -8.1      0.992      1.197
REMARK  Name = 
REMARK  7 active torsions:
REMARK  status: ('A' for Active; 'I' for Inactive)
REMARK    1  A    between atoms: C_1  and  C_2
REMARK    2  A    between atoms: C_2  and  C_3
REMARK    3  A    between atoms: C_4  and  C_5
REMARK    4  A    between atoms: C_5  and  N_6
REMARK    5  A    between atoms: C_9  and  C_10
REMARK    6  A    between atoms: N_12  and  C_13
REMARK    7  A    between atoms: C_16  and  C_17
REMARK                            x       y       z     vdW  Elec       q    Type
REMARK                         _______ _______ _______ _____ _____    ______ ____
ROOT
ATOM      1  C   UNL     1       2.231   7.848  19.068  0.00  0.00    +0.000 A 
ATOM      2  C   UNL     1       1.851   8.563  17.924  0.00  0.00    +0.000 A 
ATOM      3  C   UNL     1       0.807   9.507  17.959  0.00  0.00    +0.000 A 
ATOM      4  C   UNL     1       0.113   9.737  19.153  0.00  0.00    +0.000 A 
ATOM      5  C   UNL     1       0.488   9.003  20.289  0.00  0.00    +0.000 A 
ATOM      6  C   UNL     1       1.525   8.063  20.249  0.00  0.00    +0.000 A 
ENDROOT
BRANCH   4   7
ATOM      7  C   UNL     1      -1.050  10.622  19.273  0.00  0.00    +0.000 A 
ATOM      8  N   UNL     1      -1.143  11.580  20.175  0.00  0.00    +0.000 NA
ATOM      9  C   UNL     1      -2.382  12.135  20.027  0.00  0.00    +0.000 A 
ATOM     10  C   UNL     1      -2.980  13.155  20.777  0.00  0.00    +0.000 A 
ATOM     11  C   UNL     1      -4.287  13.540  20.459  0.00  0.00    +0.000 A 
ATOM     12  C   UNL     1      -4.970  12.927  19.409  0.00  0.00    +0.000 A 
ATOM     13  C   UNL     1      -4.377  11.918  18.632  0.00  0.00    +0.000 A 
ATOM     14  C   UNL     1      -3.072  11.542  18.980  0.00  0.00    +0.000 A 
ATOM     15  N   UNL     1      -2.186  10.609  18.483  0.00  0.00    +0.000 N 
ATOM     16  H   UNL     1      -2.340  10.022  17.679  0.00  0.00    +0.000 HD
ENDBRANCH   4   7
BRANCH   1  19
ATOM     17  C   UNL     1       3.168   5.586  18.634  0.00  0.00    +0.000 C 
ATOM     18  O   UNL     1       2.192   5.157  18.029  0.00  0.00    +0.000 OA
ATOM     19  N   UNL     1       3.274   6.888  19.083  0.00  0.00    +0.000 N 
ATOM     20  H   UNL     1       4.207   7.236  19.278  0.00  0.00    +0.000 HD
BRANCH  17  24
ATOM     21  N   UNL     1       5.773   4.715  16.240  0.00  0.00    +0.000 NA
ATOM     22  C   UNL     1       5.853   5.886  17.124  0.00  0.00    +0.000 C 
ATOM     23  C   UNL     1       5.699   5.521  18.604  0.00  0.00    +0.000 C 
ATOM     24  C   UNL     1       4.417   4.718  18.856  0.00  0.00    +0.000 C 
ATOM     25  C   UNL     1       4.463   3.470  17.969  0.00  0.00    +0.000 C 
ATOM     26  C   UNL     1       4.627   3.842  16.491  0.00  0.00    +0.000 C 
BRANCH  21  27
ATOM     27  C   UNL     1       5.870   5.110  14.824  0.00  0.00    +0.000 C 
BRANCH  27  31
ATOM     28  C   UNL     1       5.807   2.597  11.816  0.00  0.00    +0.000 C 
ATOM     29  C   UNL     1       6.260   3.731  12.697  0.00  0.00    +0.000 C 
ATOM     30  C   UNL     1       7.460   4.515  12.251  0.00  0.00    +0.000 C 
ATOM     31  C   UNL     1       5.577   4.012  13.827  0.00  0.00    +0.000 C 
ENDBRANCH  27  31
ENDBRANCH  21  27
ENDBRANCH  17  24
ENDBRANCH   1  19
TORSDOF 5
ENDMDL
MODEL 4
REMARK VINA RESULT:      -8.1      1.513      2.017
REMARK  Name = 
REMARK  7 active torsions:
REMARK  status: ('A' for Active; 'I' for Inactive)
REMARK    1  A    between atoms: C_1  and  C_2
REMARK    2  A    between atoms: C_2  and  C_3
REMARK    3  A    between atoms: C_4  and  C_5
REMARK    4  A    between atoms: C_5  and  N_6
REMARK    5  A    between atoms: C_9  and  C_10
REMARK    6  A    between atoms: N_12  and  C_13
REMARK    7  A    between atoms: C_16  and  C_17
REMARK                            x       y       z     vdW  Elec       q    Type
REMARK                         _______ _______ _______ _____ _____    ______ ____
ROOT
ATOM      1  C   UNL     1       3.021   6.932  18.887  0.00  0.00    +0.000 A 
ATOM      2  C   UNL     1       2.731   7.792  17.819  0.00  0.00    +0.000 A 
ATOM      3  C   UNL     1       1.808   8.847  17.954  0.00  0.00    +0.000 A 
ATOM      4  C   UNL     1       1.147   9.046  19.172  0.00  0.00    +0.000 A 
ATOM      5  C   UNL     1       1.430   8.168  20.230  0.00  0.00    +0.000 A 
ATOM      6  C   UNL     1       2.346   7.118  20.091  0.00  0.00    +0.000 A 
ENDROOT
BRANCH   4   7
ATOM      7  C   UNL     1       0.100  10.049  19.387  0.00  0.00    +0.000 A 
ATOM      8  N   UNL     1       0.088  10.878  20.413  0.00  0.00    +0.000 NA
ATOM      9  C   UNL     1      -1.065  11.604  20.314  0.00  0.00    +0.000 A 
ATOM     10  C   UNL     1      -1.563  12.580  21.186  0.00  0.00    +0.000 A 
ATOM     11  C   UNL     1      -2.797  13.171  20.893  0.00  0.00    +0.000 A 
ATOM     12  C   UNL     1      -3.504  12.801  19.750  0.00  0.00    +0.000 A 
ATOM     13  C   UNL     1      -3.009  11.841  18.852  0.00  0.00    +0.000 A 
ATOM     14  C   UNL     1      -1.778  11.255  19.177  0.00  0.00    +0.000 A 
ATOM     15  N   UNL     1      -0.994  10.292  18.575  0.00  0.00    +0.000 N 
ATOM     16  H   UNL     1      -1.185   9.845  17.692  0.00  0.00    +0.000 HD
ENDBRANCH   4   7
BRANCH   1  19
ATOM     17  C   UNL     1       5.205   5.929  18.249  0.00  0.00    +0.000 C 
ATOM     18  O   UNL     1       5.732   6.979  17.901  0.00  0.00    +0.000 OA
ATOM     19  N   UNL     1       3.940   5.856  18.801  0.00  0.00    +0.000 N 
ATOM     20  H   UNL     1       3.717   5.025  19.338  0.00  0.00    +0.000 HD
BRANCH  17  24
ATOM     21  N   UNL     1       6.085   3.963  15.310  0.00  0.00    +0.000 NA
ATOM     22  C   UNL     1       6.971   4.979  15.891  0.00  0.00    +0.000 C 
ATOM     23  C   UNL     1       7.260   4.734  17.376  0.00  0.00    +0.000 C 
ATOM     24  C   UNL     1       5.964   4.593  18.186  0.00  0.00    +0.000 C 
ATOM     25  C   UNL     1       5.149   3.451  17.573  0.00  0.00    +0.000 C 
ATOM     26  C   UNL     1       4.873   3.699  16.085  0.00  0.00    +0.000 C 
BRANCH  21  27
ATOM     27  C   UNL     1       5.786   4.261  13.898  0.00  0.00    +0.000 C 
BRANCH  27  31
ATOM     28  C   UNL     1       6.251   1.719  10.952  0.00  0.00    +0.000 C 
ATOM     29  C   UNL     1       5.609   2.764  11.824  0.00  0.00    +0.000 C 
ATOM     30  C   UNL     1       4.232   3.227  11.446  0.00  0.00    +0.000 C 
ATOM     31  C   UNL     1       6.269   3.229  12.905  0.00  0.00    +0.000 C 
ENDBRANCH  27  31
ENDBRANCH  21  27
ENDBRANCH  17  24
ENDBRANCH   1  19
TORSDOF 5
ENDMDL
MODEL 5
REMARK VINA RESULT:      -8.0      6.970      8.659
REMARK  Name = 
REMARK  7 active torsions:
REMARK  status: ('A' for Active; 'I' for Inactive)
REMARK    1  A    between atoms: C_1  and  C_2
REMARK    2  A    between atoms: C_2  and  C_3
REMARK    3  A    between atoms: C_4  and  C_5
REMARK    4  A    between atoms: C_5  and  N_6
REMARK    5  A    between atoms: C_9  and  C_10
REMARK    6  A    between atoms: N_12  and  C_13
REMARK    7  A    between atoms: C_16  and  C_17
REMARK                            x       y       z     vdW  Elec       q    Type
REMARK                         _______ _______ _______ _____ _____    ______ ____
ROOT
ATOM      1  C   UNL     1       8.706   9.359  18.635  0.00  0.00    +0.000 A 
ATOM      2  C   UNL     1       8.150  10.106  17.587  0.00  0.00    +0.000 A 
ATOM      3  C   UNL     1       8.315  11.502  17.510  0.00  0.00    +0.000 A 
ATOM      4  C   UNL     1       9.037  12.176  18.502  0.00  0.00    +0.000 A 
ATOM      5  C   UNL     1       9.573  11.423  19.558  0.00  0.00    +0.000 A 
ATOM      6  C   UNL     1       9.404  10.036  19.633  0.00  0.00    +0.000 A 
ENDROOT
BRANCH   4   7
ATOM      7  C   UNL     1       9.183  13.634  18.568  0.00  0.00    +0.000 A 
ATOM      8  N   UNL     1       8.872  14.347  19.632  0.00  0.00    +0.000 NA
ATOM      9  C   UNL     1       9.070  15.656  19.296  0.00  0.00    +0.000 A 
ATOM     10  C   UNL     1       8.836  16.803  20.064  0.00  0.00    +0.000 A 
ATOM     11  C   UNL     1       9.086  18.055  19.490  0.00  0.00    +0.000 A 
ATOM     12  C   UNL     1       9.568  18.151  18.185  0.00  0.00    +0.000 A 
ATOM     13  C   UNL     1       9.830  17.010  17.408  0.00  0.00    +0.000 A 
ATOM     14  C   UNL     1       9.559  15.770  18.003  0.00  0.00    +0.000 A 
ATOM     15  N   UNL     1       9.666  14.464  17.571  0.00  0.00    +0.000 N 
ATOM     16  H   UNL     1      10.037  14.166  16.683  0.00  0.00    +0.000 HD
ENDBRANCH   4   7
BRANCH   1  19
ATOM     17  C   UNL     1       7.754   7.160  17.972  0.00  0.00    +0.000 C 
ATOM     18  O   UNL     1       7.171   7.569  16.975  0.00  0.00    +0.000 OA
ATOM     19  N   UNL     1       8.567   7.954  18.758  0.00  0.00    +0.000 N 
ATOM     20  H   UNL     1       9.241   7.482  19.350  0.00  0.00    +0.000 HD
BRANCH  17  24
ATOM     21  N   UNL     1       4.893   4.905  17.956  0.00  0.00    +0.000 NA
ATOM     22  C   UNL     1       5.807   5.050  16.816  0.00  0.00    +0.000 C 
ATOM     23  C   UNL     1       7.270   4.799  17.197  0.00  0.00    +0.000 C 
ATOM     24  C   UNL     1       7.705   5.678  18.376  0.00  0.00    +0.000 C 
ATOM     25  C   UNL     1       6.761   5.392  19.548  0.00  0.00    +0.000 C 
ATOM     26  C   UNL     1       5.298   5.636  19.157  0.00  0.00    +0.000 C 
BRANCH  21  27
ATOM     27  C   UNL     1       3.504   5.207  17.566  0.00  0.00    +0.000 C 
BRANCH  27  31
ATOM     28  C   UNL     1       0.836   2.603  18.776  0.00  0.00    +0.000 C 
ATOM     29  C   UNL     1       1.744   3.803  18.795  0.00  0.00    +0.000 C 
ATOM     30  C   UNL     1       1.742   4.651  20.034  0.00  0.00    +0.000 C 
ATOM     31  C   UNL     1       2.527   4.065  17.727  0.00  0.00    +0.000 C 
ENDBRANCH  27  31
ENDBRANCH  21  27
ENDBRANCH  17  24
ENDBRANCH   1  19
TORSDOF 5
ENDMDL
MODEL 6
REMARK VINA RESULT:      -8.0      7.051      8.847
REMARK  Name = 
REMARK  7 active torsions:
REMARK  status: ('A' for Active; 'I' for Inactive)
REMARK    1  A    between atoms: C_1  and  C_2
REMARK    2  A    between atoms: C_2  and  C_3
REMARK    3  A    between atoms: C_4  and  C_5
REMARK    4  A    between atoms: C_5  and  N_6
REMARK    5  A    between atoms: C_9  and  C_10
REMARK    6  A    between atoms: N_12  and  C_13
REMARK    7  A    between atoms: C_16  and  C_17
REMARK                            x       y       z     vdW  Elec       q    Type
REMARK                         _______ _______ _______ _____ _____    ______ ____
ROOT
ATOM      1  C   UNL     1       8.786   9.373  18.770  0.00  0.00    +0.000 A 
ATOM      2  C   UNL     1       9.425  10.074  19.801  0.00  0.00    +0.000 A 
ATOM      3  C   UNL     1       9.573  11.473  19.758  0.00  0.00    +0.000 A 
ATOM      4  C   UNL     1       9.088  12.194  18.661  0.00  0.00    +0.000 A 
ATOM      5  C   UNL     1       8.465  11.482  17.624  0.00  0.00    +0.000 A 
ATOM      6  C   UNL     1       8.324  10.090  17.669  0.00  0.00    +0.000 A 
ENDROOT
BRANCH   4   7
ATOM      7  C   UNL     1       9.277  13.636  18.473  0.00  0.00    +0.000 A 
ATOM      8  N   UNL     1       8.602  14.549  19.143  0.00  0.00    +0.000 NA
ATOM      9  C   UNL     1       8.993  15.762  18.651  0.00  0.00    +0.000 A 
ATOM     10  C   UNL     1       8.534  17.038  18.999  0.00  0.00    +0.000 A 
ATOM     11  C   UNL     1       9.064  18.146  18.327  0.00  0.00    +0.000 A 
ATOM     12  C   UNL     1      10.038  17.976  17.344  0.00  0.00    +0.000 A 
ATOM     13  C   UNL     1      10.527  16.706  16.998  0.00  0.00    +0.000 A 
ATOM     14  C   UNL     1       9.969  15.613  17.677  0.00  0.00    +0.000 A 
ATOM     15  N   UNL     1      10.168  14.250  17.610  0.00  0.00    +0.000 N 
ATOM     16  H   UNL     1      10.849  13.782  17.034  0.00  0.00    +0.000 HD
ENDBRANCH   4   7
BRANCH   1  19
ATOM     17  C   UNL     1       7.734   7.272  17.958  0.00  0.00    +0.000 C 
ATOM     18  O   UNL     1       7.105   7.788  17.042  0.00  0.00    +0.000 OA
ATOM     19  N   UNL     1       8.613   7.966  18.766  0.00  0.00    +0.000 N 
ATOM     20  H   UNL     1       9.307   7.423  19.268  0.00  0.00    +0.000 HD
BRANCH  17  24
ATOM     21  N   UNL     1       4.803   5.107  17.962  0.00  0.00    +0.000 NA
ATOM     22  C   UNL     1       5.628   5.338  16.770  0.00  0.00    +0.000 C 
ATOM     23  C   UNL     1       7.107   5.012  17.002  0.00  0.00    +0.000 C 
ATOM     24  C   UNL     1       7.665   5.759  18.221  0.00  0.00    +0.000 C 
ATOM     25  C   UNL     1       6.807   5.384  19.433  0.00  0.00    +0.000 C 
ATOM     26  C   UNL     1       5.328   5.705  19.190  0.00  0.00    +0.000 C 
BRANCH  21  27
ATOM     27  C   UNL     1       3.399   5.483  17.719  0.00  0.00    +0.000 C 
BRANCH  27  31
ATOM     28  C   UNL     1       0.787   2.743  18.736  0.00  0.00    +0.000 C 
ATOM     29  C   UNL     1       1.732   3.908  18.866  0.00  0.00    +0.000 C 
ATOM     30  C   UNL     1       1.890   4.520  20.228  0.00  0.00    +0.000 C 
ATOM     31  C   UNL     1       2.406   4.345  17.782  0.00  0.00    +0.000 C 
ENDBRANCH  27  31
ENDBRANCH  21  27
ENDBRANCH  17  24
ENDBRANCH   1  19
TORSDOF 5
ENDMDL
MODEL 7
REMARK VINA RESULT:      -8.0      0.244      1.103
REMARK  Name = 
REMARK  7 active torsions:
REMARK  status: ('A' for Active; 'I' for Inactive)
REMARK    1  A    between atoms: C_1  and  C_2
REMARK    2  A    between atoms: C_2  and  C_3
REMARK    3  A    between atoms: C_4  and  C_5
REMARK    4  A    between atoms: C_5  and  N_6
REMARK    5  A    between atoms: C_9  and  C_10
REMARK    6  A    between atoms: N_12  and  C_13
REMARK    7  A    between atoms: C_16  and  C_17
REMARK                            x       y       z     vdW  Elec       q    Type
REMARK                         _______ _______ _______ _____ _____    ______ ____
ROOT
ATOM      1  C   UNL     1       2.335   7.241  19.870  0.00  0.00    +0.000 A 
ATOM      2  C   UNL     1       2.094   8.202  18.879  0.00  0.00    +0.000 A 
ATOM      3  C   UNL     1       1.231   9.292  19.104  0.00  0.00    +0.000 A 
ATOM      4  C   UNL     1       0.582   9.426  20.338  0.00  0.00    +0.000 A 
ATOM      5  C   UNL     1       0.815   8.449  21.318  0.00  0.00    +0.000 A 
ATOM      6  C   UNL     1       1.670   7.365  21.088  0.00  0.00    +0.000 A 
ENDROOT
BRANCH   4   7
ATOM      7  C   UNL     1      -0.407  10.465  20.639  0.00  0.00    +0.000 A 
ATOM      8  N   UNL     1      -1.253  10.943  19.747  0.00  0.00    +0.000 NA
ATOM      9  C   UNL     1      -1.958  11.934  20.369  0.00  0.00    +0.000 A 
ATOM     10  C   UNL     1      -2.940  12.777  19.836  0.00  0.00    +0.000 A 
ATOM     11  C   UNL     1      -3.506  13.752  20.666  0.00  0.00    +0.000 A 
ATOM     12  C   UNL     1      -3.105  13.868  21.997  0.00  0.00    +0.000 A 
ATOM     13  C   UNL     1      -2.138  13.015  22.554  0.00  0.00    +0.000 A 
ATOM     14  C   UNL     1      -1.578  12.056  21.698  0.00  0.00    +0.000 A 
ATOM     15  N   UNL     1      -0.618  11.079  21.861  0.00  0.00    +0.000 N 
ATOM     16  H   UNL     1      -0.154  10.850  22.726  0.00  0.00    +0.000 HD
ENDBRANCH   4   7
BRANCH   1  19
ATOM     17  C   UNL     1       2.793   4.870  19.279  0.00  0.00    +0.000 C 
ATOM     18  O   UNL     1       1.663   4.618  18.876  0.00  0.00    +0.000 OA
ATOM     19  N   UNL     1       3.192   6.127  19.692  0.00  0.00    +0.000 N 
ATOM     20  H   UNL     1       4.188   6.315  19.702  0.00  0.00    +0.000 HD
BRANCH  17  24
ATOM     21  N   UNL     1       5.347   4.305  16.744  0.00  0.00    +0.000 NA
ATOM     22  C   UNL     1       5.550   5.178  17.907  0.00  0.00    +0.000 C 
ATOM     23  C   UNL     1       5.291   4.461  19.237  0.00  0.00    +0.000 C 
ATOM     24  C   UNL     1       3.903   3.807  19.264  0.00  0.00    +0.000 C 
ATOM     25  C   UNL     1       3.815   2.843  18.077  0.00  0.00    +0.000 C 
ATOM     26  C   UNL     1       4.084   3.566  16.752  0.00  0.00    +0.000 C 
BRANCH  21  27
ATOM     27  C   UNL     1       5.550   5.041  15.484  0.00  0.00    +0.000 C 
BRANCH  27  31
ATOM     28  C   UNL     1       6.331   3.273  12.074  0.00  0.00    +0.000 C 
ATOM     29  C   UNL     1       6.495   4.189  13.257  0.00  0.00    +0.000 C 
ATOM     30  C   UNL     1       7.701   5.084  13.275  0.00  0.00    +0.000 C 
ATOM     31  C   UNL     1       5.565   4.190  14.234  0.00  0.00    +0.000 C 
ENDBRANCH  27  31
ENDBRANCH  21  27
ENDBRANCH  17  24
ENDBRANCH   1  19
TORSDOF 5
ENDMDL
MODEL 8
REMARK VINA RESULT:      -8.0      6.520     10.238
REMARK  Name = 
REMARK  7 active torsions:
REMARK  status: ('A' for Active; 'I' for Inactive)
REMARK    1  A    between atoms: C_1  and  C_2
REMARK    2  A    between atoms: C_2  and  C_3
REMARK    3  A    between atoms: C_4  and  C_5
REMARK    4  A    between atoms: C_5  and  N_6
REMARK    5  A    between atoms: C_9  and  C_10
REMARK    6  A    between atoms: N_12  and  C_13
REMARK    7  A    between atoms: C_16  and  C_17
REMARK                            x       y       z     vdW  Elec       q    Type
REMARK                         _______ _______ _______ _____ _____    ______ ____
ROOT
ATOM      1  C   UNL     1       7.942   8.161  17.821  0.00  0.00    +0.000 A 
ATOM      2  C   UNL     1       8.218   7.057  18.640  0.00  0.00    +0.000 A 
ATOM      3  C   UNL     1       7.304   5.994  18.776  0.00  0.00    +0.000 A 
ATOM      4  C   UNL     1       6.081   6.033  18.095  0.00  0.00    +0.000 A 
ATOM      5  C   UNL     1       5.806   7.152  17.293  0.00  0.00    +0.000 A 
ATOM      6  C   UNL     1       6.716   8.207  17.163  0.00  0.00    +0.000 A 
ENDROOT
BRANCH   4   7
ATOM      7  C   UNL     1       5.023   5.030  18.245  0.00  0.00    +0.000 A 
ATOM      8  N   UNL     1       3.785   5.213  17.827  0.00  0.00    +0.000 NA
ATOM      9  C   UNL     1       3.079   4.105  18.202  0.00  0.00    +0.000 A 
ATOM     10  C   UNL     1       1.716   3.837  18.034  0.00  0.00    +0.000 A 
ATOM     11  C   UNL     1       1.204   2.634  18.535  0.00  0.00    +0.000 A 
ATOM     12  C   UNL     1       2.042   1.722  19.176  0.00  0.00    +0.000 A 
ATOM     13  C   UNL     1       3.417   1.965  19.333  0.00  0.00    +0.000 A 
ATOM     14  C   UNL     1       3.900   3.182  18.833  0.00  0.00    +0.000 A 
ATOM     15  N   UNL     1       5.146   3.773  18.810  0.00  0.00    +0.000 N 
ATOM     16  H   UNL     1       6.001   3.357  19.145  0.00  0.00    +0.000 HD
ENDBRANCH   4   7
BRANCH   1  19
ATOM     17  C   UNL     1       9.206  10.136  18.647  0.00  0.00    +0.000 C 
ATOM     18  O   UNL     1       8.930   9.980  19.830  0.00  0.00    +0.000 OA
ATOM     19  N   UNL     1       8.828   9.254  17.653  0.00  0.00    +0.000 N 
ATOM     20  H   UNL     1       9.351   9.284  16.785  0.00  0.00    +0.000 HD
BRANCH  17  24
ATOM     21  N   UNL     1       9.862  13.301  20.328  0.00  0.00    +0.000 NA
ATOM     22  C   UNL     1      10.700  12.109  20.506  0.00  0.00    +0.000 C 
ATOM     23  C   UNL     1      11.233  11.557  19.180  0.00  0.00    +0.000 C 
ATOM     24  C   UNL     1      10.098  11.298  18.180  0.00  0.00    +0.000 C 
ATOM     25  C   UNL     1       9.340  12.613  17.980  0.00  0.00    +0.000 C 
ATOM     26  C   UNL     1       8.818  13.164  19.313  0.00  0.00    +0.000 C 
BRANCH  21  27
ATOM     27  C   UNL     1       9.323  13.770  21.617  0.00  0.00    +0.000 C 
BRANCH  27  31
ATOM     28  C   UNL     1       7.779  11.618  24.506  0.00  0.00    +0.000 C 
ATOM     29  C   UNL     1       8.350  12.811  23.787  0.00  0.00    +0.000 C 
ATOM     30  C   UNL     1       8.490  14.085  24.568  0.00  0.00    +0.000 C 
ATOM     31  C   UNL     1       8.724  12.696  22.496  0.00  0.00    +0.000 C 
ENDBRANCH  27  31
ENDBRANCH  21  27
ENDBRANCH  17  24
ENDBRANCH   1  19
TORSDOF 5
ENDMDL
MODEL 9
REMARK VINA RESULT:      -8.0      2.434      2.869
REMARK  Name = 
REMARK  7 active torsions:
REMARK  status: ('A' for Active; 'I' for Inactive)
REMARK    1  A    between atoms: C_1  and  C_2
REMARK    2  A    between atoms: C_2  and  C_3
REMARK    3  A    between atoms: C_4  and  C_5
REMARK    4  A    between atoms: C_5  and  N_6
REMARK    5  A    between atoms: C_9  and  C_10
REMARK    6  A    between atoms: N_12  and  C_13
REMARK    7  A    between atoms: C_16  and  C_17
REMARK                            x       y       z     vdW  Elec       q    Type
REMARK                         _______ _______ _______ _____ _____    ______ ____
ROOT
ATOM      1  C   UNL     1       2.122   6.488  19.673  0.00  0.00    +0.000 A 
ATOM      2  C   UNL     1       1.609   7.078  20.836  0.00  0.00    +0.000 A 
ATOM      3  C   UNL     1       1.202   8.426  20.861  0.00  0.00    +0.000 A 
ATOM      4  C   UNL     1       1.319   9.212  19.708  0.00  0.00    +0.000 A 
ATOM      5  C   UNL     1       1.852   8.618  18.553  0.00  0.00    +0.000 A 
ATOM      6  C   UNL     1       2.258   7.279  18.534  0.00  0.00    +0.000 A 
ENDROOT
BRANCH   4   7
ATOM      7  C   UNL     1       1.018  10.646  19.655  0.00  0.00    +0.000 A 
ATOM      8  N   UNL     1       1.121  11.448  20.696  0.00  0.00    +0.000 NA
ATOM      9  C   UNL     1       0.692  12.678  20.285  0.00  0.00    +0.000 A 
ATOM     10  C   UNL     1       0.564  13.856  21.031  0.00  0.00    +0.000 A 
ATOM     11  C   UNL     1       0.065  14.999  20.396  0.00  0.00    +0.000 A 
ATOM     12  C   UNL     1      -0.283  14.962  19.046  0.00  0.00    +0.000 A 
ATOM     13  C   UNL     1      -0.140  13.796  18.277  0.00  0.00    +0.000 A 
ATOM     14  C   UNL     1       0.350  12.662  18.941  0.00  0.00    +0.000 A 
ATOM     15  N   UNL     1       0.608  11.366  18.547  0.00  0.00    +0.000 N 
ATOM     16  H   UNL     1       0.517  11.007  17.609  0.00  0.00    +0.000 HD
ENDBRANCH   4   7
BRANCH   1  19
ATOM     17  C   UNL     1       1.786   4.042  19.960  0.00  0.00    +0.000 C 
ATOM     18  O   UNL     1       0.597   4.108  20.248  0.00  0.00    +0.000 OA
ATOM     19  N   UNL     1       2.545   5.138  19.598  0.00  0.00    +0.000 N 
ATOM     20  H   UNL     1       3.400   4.958  19.082  0.00  0.00    +0.000 HD
BRANCH  17  24
ATOM     21  N   UNL     1       4.424   3.027  17.661  0.00  0.00    +0.000 NA
ATOM     22  C   UNL     1       4.691   3.627  18.974  0.00  0.00    +0.000 C 
ATOM     23  C   UNL     1       4.020   2.862  20.121  0.00  0.00    +0.000 C 
ATOM     24  C   UNL     1       2.515   2.691  19.880  0.00  0.00    +0.000 C 
ATOM     25  C   UNL     1       2.333   1.972  18.540  0.00  0.00    +0.000 C 
ATOM     26  C   UNL     1       3.014   2.738  17.400  0.00  0.00    +0.000 C 
BRANCH  21  27
ATOM     27  C   UNL     1       5.037   3.819  16.579  0.00  0.00    +0.000 C 
BRANCH  27  31
ATOM     28  C   UNL     1       7.276   6.950  17.317  0.00  0.00    +0.000 C 
ATOM     29  C   UNL     1       6.119   6.132  16.808  0.00  0.00    +0.000 C 
ATOM     30  C   UNL     1       5.038   6.857  16.060  0.00  0.00    +0.000 C 
ATOM     31  C   UNL     1       6.099   4.800  17.021  0.00  0.00    +0.000 C 
ENDBRANCH  27  31
ENDBRANCH  21  27
ENDBRANCH  17  24
ENDBRANCH   1  19
TORSDOF 5
ENDMDL
