MODEL 1
REMARK VINA RESULT:      -7.5      0.000      0.000
REMARK  Name = 
REMARK  7 active torsions:
REMARK  status: ('A' for Active; 'I' for Inactive)
REMARK    1  A    between atoms: C_2  and  O_3
REMARK    2  A    between atoms: C_2  and  C_4
REMARK    3  A    between atoms: C_4  and  C_16
REMARK    4  A    between atoms: C_5  and  C_6
REMARK    5  A    between atoms: C_11  and  N_12
REMARK    6  A    between atoms: C_19  and  S_20
REMARK    7  A    between atoms: S_20  and  N_23
REMARK                            x       y       z     vdW  Elec       q    Type
REMARK                         _______ _______ _______ _____ _____    ______ ____
ROOT
ATOM      1  C   UNL     1       0.408  10.142  19.736  0.00  0.00    +0.000 C 
ATOM      2  C   UNL     1       0.506  10.668  20.977  0.00  0.00    +0.000 C 
ENDROOT
BRANCH   2   3
ATOM      3  C   UNL     1      -0.302  11.792  21.471  0.00  0.00    +0.000 A 
ATOM      4  C   UNL     1       0.242  13.079  21.558  0.00  0.00    +0.000 A 
ATOM      5  C   UNL     1      -0.486  14.120  22.151  0.00  0.00    +0.000 A 
ATOM      6  C   UNL     1      -1.767  13.892  22.665  0.00  0.00    +0.000 A 
ATOM      7 CL   UNL     1      -2.597  15.229  23.371  0.00  0.00    +0.000 Cl
ATOM      8  C   UNL     1      -2.307  12.612  22.557  0.00  0.00    +0.000 A 
ATOM      9  C   UNL     1      -1.597  11.562  21.953  0.00  0.00    +0.000 A 
BRANCH   8  10
ATOM     10  N   UNL     1      -3.632  12.320  23.059  0.00  0.00    +0.000 N 
ATOM     11  O   UNL     1      -3.737  11.952  24.235  0.00  0.00    +0.000 OA
ATOM     12  O   UNL     1      -4.566  12.421  22.250  0.00  0.00    +0.000 OA
ENDBRANCH   8  10
ENDBRANCH   2   3
BRANCH   1  13
ATOM     13  C   UNL     1       1.350   9.146  19.327  0.00  0.00    +0.000 A 
ATOM     14  C   UNL     1       1.962   9.042  18.091  0.00  0.00    +0.000 A 
ATOM     15  C   UNL     1       2.634   7.804  17.913  0.00  0.00    +0.000 A 
ATOM     16  C   UNL     1       2.625   7.033  19.057  0.00  0.00    +0.000 A 
ATOM     17  S   UNL     1       1.757   7.799  20.321  0.00  0.00    +0.000 S 
BRANCH  16  18
ATOM     18  S   UNL     1       3.331   5.432  19.400  0.00  0.00    +0.000 S 
ATOM     19  O   UNL     1       4.763   5.643  19.428  0.00  0.00    +0.000 OA
ATOM     20  O   UNL     1       2.619   4.961  20.568  0.00  0.00    +0.000 OA
BRANCH  18  21
ATOM     21  N   UNL     1       2.952   4.400  18.100  0.00  0.00    +0.000 NA
ATOM     22  C   UNL     1       1.509   4.141  17.870  0.00  0.00    +0.000 C 
ATOM     23  C   UNL     1       1.259   2.777  18.486  0.00  0.00    +0.000 C 
ATOM     24  C   UNL     1       2.535   2.016  18.186  0.00  0.00    +0.000 C 
ATOM     25  C   UNL     1       3.634   3.073  18.150  0.00  0.00    +0.000 C 
ENDBRANCH  18  21
ENDBRANCH  16  18
ENDBRANCH   1  13
BRANCH   1  27
ATOM     26  O   UNL     1      -1.635  10.185  18.447  0.00  0.00    +0.000 OA
ATOM     27  C   UNL     1      -0.551  10.679  18.712  0.00  0.00    +0.000 C 
BRANCH  27  28
ATOM     28  O   UNL     1      -0.126  11.810  18.102  0.00  0.00    +0.000 OA
ATOM     29  H   UNL     1       0.781  12.095  18.319  0.00  0.00    +0.000 HD
ENDBRANCH  27  28
ENDBRANCH   1  27
TORSDOF 7
ENDMDL
MODEL 2
REMARK VINA RESULT:      -7.4      2.708      3.646
REMARK  Name = 
REMARK  7 active torsions:
REMARK  status: ('A' for Active; 'I' for Inactive)
REMARK    1  A    between atoms: C_2  and  O_3
REMARK    2  A    between atoms: C_2  and  C_4
REMARK    3  A    between atoms: C_4  and  C_16
REMARK    4  A    between atoms: C_5  and  C_6
REMARK    5  A    between atoms: C_11  and  N_12
REMARK    6  A    between atoms: C_19  and  S_20
REMARK    7  A    between atoms: S_20  and  N_23
REMARK                            x       y       z     vdW  Elec       q    Type
REMARK                         _______ _______ _______ _____ _____    ______ ____
ROOT
ATOM      1  C   UNL     1       1.418   8.383  20.230  0.00  0.00    +0.000 C 
ATOM      2  C   UNL     1       1.319   9.214  19.168  0.00  0.00    +0.000 C 
ENDROOT
BRANCH   2   3
ATOM      3  C   UNL     1       0.713  10.552  19.212  0.00  0.00    +0.000 A 
ATOM      4  C   UNL     1       1.491  11.678  19.506  0.00  0.00    +0.000 A 
ATOM      5  C   UNL     1       0.889  12.933  19.676  0.00  0.00    +0.000 A 
ATOM      6  C   UNL     1      -0.497  13.081  19.557  0.00  0.00    +0.000 A 
ATOM      7 CL   UNL     1      -1.155  14.660  19.774  0.00  0.00    +0.000 Cl
ATOM      8  C   UNL     1      -1.260  11.958  19.245  0.00  0.00    +0.000 A 
ATOM      9  C   UNL     1      -0.671  10.697  19.057  0.00  0.00    +0.000 A 
BRANCH   8  10
ATOM     10  N   UNL     1      -2.696  12.054  19.095  0.00  0.00    +0.000 N 
ATOM     11  O   UNL     1      -3.362  12.362  20.091  0.00  0.00    +0.000 OA
ATOM     12  O   UNL     1      -3.156  11.773  17.979  0.00  0.00    +0.000 OA
ENDBRANCH   8  10
ENDBRANCH   2   3
BRANCH   1  13
ATOM     13  C   UNL     1       1.897   7.050  20.027  0.00  0.00    +0.000 A 
ATOM     14  C   UNL     1       1.705   5.965  20.863  0.00  0.00    +0.000 A 
ATOM     15  C   UNL     1       2.523   4.856  20.520  0.00  0.00    +0.000 A 
ATOM     16  C   UNL     1       3.237   5.071  19.359  0.00  0.00    +0.000 A 
ATOM     17  S   UNL     1       2.946   6.636  18.726  0.00  0.00    +0.000 S 
BRANCH  16  18
ATOM     18  S   UNL     1       4.375   4.024  18.470  0.00  0.00    +0.000 S 
ATOM     19  O   UNL     1       5.230   3.441  19.484  0.00  0.00    +0.000 OA
ATOM     20  O   UNL     1       3.534   3.199  17.632  0.00  0.00    +0.000 OA
BRANCH  18  21
ATOM     21  N   UNL     1       5.320   5.014  17.458  0.00  0.00    +0.000 NA
ATOM     22  C   UNL     1       5.039   4.918  16.004  0.00  0.00    +0.000 C 
ATOM     23  C   UNL     1       6.136   4.022  15.457  0.00  0.00    +0.000 C 
ATOM     24  C   UNL     1       7.348   4.407  16.282  0.00  0.00    +0.000 C 
ATOM     25  C   UNL     1       6.793   4.845  17.634  0.00  0.00    +0.000 C 
ENDBRANCH  18  21
ENDBRANCH  16  18
ENDBRANCH   1  13
BRANCH   1  27
ATOM     26  O   UNL     1      -0.276   8.653  21.932  0.00  0.00    +0.000 OA
ATOM     27  C   UNL     1       0.890   8.752  21.588  0.00  0.00    +0.000 C 
BRANCH  27  28
ATOM     28  O   UNL     1       1.842   9.191  22.445  0.00  0.00    +0.000 OA
ATOM     29  H   UNL     1       2.454   9.862  22.093  0.00  0.00    +0.000 HD
ENDBRANCH  27  28
ENDBRANCH   1  27
TORSDOF 7
ENDMDL
MODEL 3
REMARK VINA RESULT:      -7.3      1.135      1.297
REMARK  Name = 
REMARK  7 active torsions:
REMARK  status: ('A' for Active; 'I' for Inactive)
REMARK    1  A    between atoms: C_2  and  O_3
REMARK    2  A    between atoms: C_2  and  C_4
REMARK    3  A    between atoms: C_4  and  C_16
REMARK    4  A    between atoms: C_5  and  C_6
REMARK    5  A    between atoms: C_11  and  N_12
REMARK    6  A    between atoms: C_19  and  S_20
REMARK    7  A    between atoms: S_20  and  N_23
REMARK                            x       y       z     vdW  Elec       q    Type
REMARK                         _______ _______ _______ _____ _____    ______ ____
ROOT
ATOM      1  C   UNL     1       0.358  10.425  19.647  0.00  0.00    +0.000 C 
ATOM      2  C   UNL     1       0.369  10.754  20.958  0.00  0.00    +0.000 C 
ENDROOT
BRANCH   2   3
ATOM      3  C   UNL     1      -0.404  11.857  21.546  0.00  0.00    +0.000 A 
ATOM      4  C   UNL     1       0.185  13.110  21.754  0.00  0.00    +0.000 A 
ATOM      5  C   UNL     1      -0.512  14.120  22.433  0.00  0.00    +0.000 A 
ATOM      6  C   UNL     1      -1.805  13.892  22.916  0.00  0.00    +0.000 A 
ATOM      7 CL   UNL     1      -2.594  15.190  23.734  0.00  0.00    +0.000 Cl
ATOM      8  C   UNL     1      -2.390  12.648  22.687  0.00  0.00    +0.000 A 
ATOM      9  C   UNL     1      -1.711  11.632  21.995  0.00  0.00    +0.000 A 
BRANCH   8  10
ATOM     10  N   UNL     1      -3.730  12.361  23.151  0.00  0.00    +0.000 N 
ATOM     11  O   UNL     1      -3.869  11.986  24.321  0.00  0.00    +0.000 OA
ATOM     12  O   UNL     1      -4.640  12.472  22.317  0.00  0.00    +0.000 OA
ENDBRANCH   8  10
ENDBRANCH   2   3
BRANCH   1  13
ATOM     13  C   UNL     1       1.265   9.425  19.174  0.00  0.00    +0.000 A 
ATOM     14  C   UNL     1       1.949   9.429  17.972  0.00  0.00    +0.000 A 
ATOM     15  C   UNL     1       2.557   8.178  17.682  0.00  0.00    +0.000 A 
ATOM     16  C   UNL     1       2.426   7.279  18.720  0.00  0.00    +0.000 A 
ATOM     17  S   UNL     1       1.523   7.944  20.015  0.00  0.00    +0.000 S 
BRANCH  16  18
ATOM     18  S   UNL     1       3.011   5.604  18.902  0.00  0.00    +0.000 S 
ATOM     19  O   UNL     1       3.098   5.080  17.555  0.00  0.00    +0.000 OA
ATOM     20  O   UNL     1       4.183   5.715  19.742  0.00  0.00    +0.000 OA
BRANCH  18  21
ATOM     21  N   UNL     1       1.832   4.724  19.759  0.00  0.00    +0.000 NA
ATOM     22  C   UNL     1       2.191   4.324  21.142  0.00  0.00    +0.000 C 
ATOM     23  C   UNL     1       2.600   2.867  21.028  0.00  0.00    +0.000 C 
ATOM     24  C   UNL     1       1.657   2.319  19.975  0.00  0.00    +0.000 C 
ATOM     25  C   UNL     1       1.350   3.498  19.057  0.00  0.00    +0.000 C 
ENDBRANCH  18  21
ENDBRANCH  16  18
ENDBRANCH   1  13
BRANCH   1  27
ATOM     26  O   UNL     1      -1.557  10.851  18.237  0.00  0.00    +0.000 OA
ATOM     27  C   UNL     1      -0.455  11.186  18.638  0.00  0.00    +0.000 C 
BRANCH  27  28
ATOM     28  O   UNL     1       0.131  12.330  18.211  0.00  0.00    +0.000 OA
ATOM     29  H   UNL     1       1.054  12.247  17.909  0.00  0.00    +0.000 HD
ENDBRANCH  27  28
ENDBRANCH   1  27
TORSDOF 7
ENDMDL
MODEL 4
REMARK VINA RESULT:      -7.2      3.156      4.124
REMARK  Name = 
REMARK  7 active torsions:
REMARK  status: ('A' for Active; 'I' for Inactive)
REMARK    1  A    between atoms: C_2  and  O_3
REMARK    2  A    between atoms: C_2  and  C_4
REMARK    3  A    between atoms: C_4  and  C_16
REMARK    4  A    between atoms: C_5  and  C_6
REMARK    5  A    between atoms: C_11  and  N_12
REMARK    6  A    between atoms: C_19  and  S_20
REMARK    7  A    between atoms: S_20  and  N_23
REMARK                            x       y       z     vdW  Elec       q    Type
REMARK                         _______ _______ _______ _____ _____    ______ ____
ROOT
ATOM      1  C   UNL     1       1.388   8.491  20.368  0.00  0.00    +0.000 C 
ATOM      2  C   UNL     1       1.290   9.361  19.338  0.00  0.00    +0.000 C 
ENDROOT
BRANCH   2   3
ATOM      3  C   UNL     1       0.743  10.720  19.445  0.00  0.00    +0.000 A 
ATOM      4  C   UNL     1      -0.439  11.069  18.781  0.00  0.00    +0.000 A 
ATOM      5  C   UNL     1      -0.888  12.397  18.778  0.00  0.00    +0.000 A 
ATOM      6  C   UNL     1      -0.164  13.396  19.437  0.00  0.00    +0.000 A 
ATOM      7 CL   UNL     1      -0.790  15.002  19.390  0.00  0.00    +0.000 Cl
ATOM      8  C   UNL     1       1.001  13.036  20.111  0.00  0.00    +0.000 A 
ATOM      9  C   UNL     1       1.456  11.707  20.136  0.00  0.00    +0.000 A 
BRANCH   8  10
ATOM     10  N   UNL     1       1.783  14.024  20.821  0.00  0.00    +0.000 N 
ATOM     11  O   UNL     1       2.677  14.611  20.199  0.00  0.00    +0.000 OA
ATOM     12  O   UNL     1       1.524  14.177  22.023  0.00  0.00    +0.000 OA
ENDBRANCH   8  10
ENDBRANCH   2   3
BRANCH   1  13
ATOM     13  C   UNL     1       1.804   7.148  20.106  0.00  0.00    +0.000 A 
ATOM     14  C   UNL     1       1.493   6.024  20.851  0.00  0.00    +0.000 A 
ATOM     15  C   UNL     1       2.269   4.892  20.487  0.00  0.00    +0.000 A 
ATOM     16  C   UNL     1       3.074   5.137  19.394  0.00  0.00    +0.000 A 
ATOM     17  S   UNL     1       2.917   6.755  18.852  0.00  0.00    +0.000 S 
BRANCH  16  18
ATOM     18  S   UNL     1       4.211   4.083  18.513  0.00  0.00    +0.000 S 
ATOM     19  O   UNL     1       5.080   3.524  19.528  0.00  0.00    +0.000 OA
ATOM     20  O   UNL     1       3.367   3.236  17.699  0.00  0.00    +0.000 OA
BRANCH  18  21
ATOM     21  N   UNL     1       5.138   5.060  17.473  0.00  0.00    +0.000 NA
ATOM     22  C   UNL     1       5.017   4.769  16.023  0.00  0.00    +0.000 C 
ATOM     23  C   UNL     1       6.255   3.958  15.688  0.00  0.00    +0.000 C 
ATOM     24  C   UNL     1       7.328   4.577  16.561  0.00  0.00    +0.000 C 
ATOM     25  C   UNL     1       6.594   5.092  17.795  0.00  0.00    +0.000 C 
ENDBRANCH  18  21
ENDBRANCH  16  18
ENDBRANCH   1  13
BRANCH   1  27
ATOM     26  O   UNL     1      -0.241   8.809  22.123  0.00  0.00    +0.000 OA
ATOM     27  C   UNL     1       0.921   8.836  21.754  0.00  0.00    +0.000 C 
BRANCH  27  28
ATOM     28  O   UNL     1       1.922   9.162  22.605  0.00  0.00    +0.000 OA
ATOM     29  H   UNL     1       2.347   8.416  23.066  0.00  0.00    +0.000 HD
ENDBRANCH  27  28
ENDBRANCH   1  27
TORSDOF 7
ENDMDL
MODEL 5
REMARK VINA RESULT:      -7.2      2.482      3.078
REMARK  Name = 
REMARK  7 active torsions:
REMARK  status: ('A' for Active; 'I' for Inactive)
REMARK    1  A    between atoms: C_2  and  O_3
REMARK    2  A    between atoms: C_2  and  C_4
REMARK    3  A    between atoms: C_4  and  C_16
REMARK    4  A    between atoms: C_5  and  C_6
REMARK    5  A    between atoms: C_11  and  N_12
REMARK    6  A    between atoms: C_19  and  S_20
REMARK    7  A    between atoms: S_20  and  N_23
REMARK                            x       y       z     vdW  Elec       q    Type
REMARK                         _______ _______ _______ _____ _____    ______ ____
ROOT
ATOM      1  C   UNL     1       0.732   9.565  19.466  0.00  0.00    +0.000 C 
ATOM      2  C   UNL     1       0.038  10.320  18.586  0.00  0.00    +0.000 C 
ENDROOT
BRANCH   2   3
ATOM      3  C   UNL     1      -1.132  11.138  18.933  0.00  0.00    +0.000 A 
ATOM      4  C   UNL     1      -1.078  12.046  19.997  0.00  0.00    +0.000 A 
ATOM      5  C   UNL     1      -2.232  12.729  20.409  0.00  0.00    +0.000 A 
ATOM      6  C   UNL     1      -3.455  12.514  19.766  0.00  0.00    +0.000 A 
ATOM      7 CL   UNL     1      -4.823  13.400  20.330  0.00  0.00    +0.000 Cl
ATOM      8  C   UNL     1      -3.495  11.623  18.695  0.00  0.00    +0.000 A 
ATOM      9  C   UNL     1      -2.345  10.943  18.260  0.00  0.00    +0.000 A 
BRANCH   8  10
ATOM     10  N   UNL     1      -4.729  11.372  17.983  0.00  0.00    +0.000 N 
ATOM     11  O   UNL     1      -4.913  11.971  16.916  0.00  0.00    +0.000 OA
ATOM     12  O   UNL     1      -5.534  10.603  18.525  0.00  0.00    +0.000 OA
ENDBRANCH   8  10
ENDBRANCH   2   3
BRANCH   1  13
ATOM     13  C   UNL     1       1.762   8.700  18.978  0.00  0.00    +0.000 A 
ATOM     14  C   UNL     1       2.454   8.825  17.787  0.00  0.00    +0.000 A 
ATOM     15  C   UNL     1       3.217   7.670  17.471  0.00  0.00    +0.000 A 
ATOM     16  C   UNL     1       3.189   6.731  18.481  0.00  0.00    +0.000 A 
ATOM     17  S   UNL     1       2.196   7.240  19.782  0.00  0.00    +0.000 S 
BRANCH  16  18
ATOM     18  S   UNL     1       3.978   5.138  18.626  0.00  0.00    +0.000 S 
ATOM     19  O   UNL     1       4.196   4.694  17.265  0.00  0.00    +0.000 OA
ATOM     20  O   UNL     1       5.086   5.360  19.529  0.00  0.00    +0.000 OA
BRANCH  18  21
ATOM     21  N   UNL     1       2.886   4.075  19.383  0.00  0.00    +0.000 NA
ATOM     22  C   UNL     1       3.448   2.785  19.852  0.00  0.00    +0.000 C 
ATOM     23  C   UNL     1       3.046   1.779  18.789  0.00  0.00    +0.000 C 
ATOM     24  C   UNL     1       1.667   2.246  18.368  0.00  0.00    +0.000 C 
ATOM     25  C   UNL     1       1.674   3.758  18.571  0.00  0.00    +0.000 C 
ENDBRANCH  18  21
ENDBRANCH  16  18
ENDBRANCH   1  13
BRANCH   1  27
ATOM     26  O   UNL     1      -0.555   8.792  21.359  0.00  0.00    +0.000 OA
ATOM     27  C   UNL     1       0.354   9.475  20.917  0.00  0.00    +0.000 C 
BRANCH  27  28
ATOM     28  O   UNL     1       1.142  10.211  21.736  0.00  0.00    +0.000 OA
ATOM     29  H   UNL     1       1.932  10.605  21.323  0.00  0.00    +0.000 HD
ENDBRANCH  27  28
ENDBRANCH   1  27
TORSDOF 7
ENDMDL
MODEL 6
REMARK VINA RESULT:      -7.2      2.253      2.959
REMARK  Name = 
REMARK  7 active torsions:
REMARK  status: ('A' for Active; 'I' for Inactive)
REMARK    1  A    between atoms: C_2  and  O_3
REMARK    2  A    between atoms: C_2  and  C_4
REMARK    3  A    between atoms: C_4  and  C_16
REMARK    4  A    between atoms: C_5  and  C_6
REMARK    5  A    between atoms: C_11  and  N_12
REMARK    6  A    between atoms: C_19  and  S_20
REMARK    7  A    between atoms: S_20  and  N_23
REMARK                            x       y       z     vdW  Elec       q    Type
REMARK                         _______ _______ _______ _____ _____    ______ ____
ROOT
ATOM      1  C   UNL     1       1.373   8.578  20.344  0.00  0.00    +0.000 C 
ATOM      2  C   UNL     1       1.195   9.435  19.313  0.00  0.00    +0.000 C 
ENDROOT
BRANCH   2   3
ATOM      3  C   UNL     1       0.528  10.740  19.421  0.00  0.00    +0.000 A 
ATOM      4  C   UNL     1       1.248  11.881  19.796  0.00  0.00    +0.000 A 
ATOM      5  C   UNL     1       0.587  13.096  20.025  0.00  0.00    +0.000 A 
ATOM      6  C   UNL     1      -0.802  13.189  19.885  0.00  0.00    +0.000 A 
ATOM      7 CL   UNL     1      -1.536  14.722  20.178  0.00  0.00    +0.000 Cl
ATOM      8  C   UNL     1      -1.507  12.053  19.493  0.00  0.00    +0.000 A 
ATOM      9  C   UNL     1      -0.858  10.832  19.245  0.00  0.00    +0.000 A 
BRANCH   8  10
ATOM     10  N   UNL     1      -2.943  12.094  19.318  0.00  0.00    +0.000 N 
ATOM     11  O   UNL     1      -3.635  12.416  20.292  0.00  0.00    +0.000 OA
ATOM     12  O   UNL     1      -3.376  11.756  18.207  0.00  0.00    +0.000 OA
ENDBRANCH   8  10
ENDBRANCH   2   3
BRANCH   1  13
ATOM     13  C   UNL     1       1.906   7.277  20.082  0.00  0.00    +0.000 A 
ATOM     14  C   UNL     1       1.762   6.149  20.868  0.00  0.00    +0.000 A 
ATOM     15  C   UNL     1       2.625   5.092  20.476  0.00  0.00    +0.000 A 
ATOM     16  C   UNL     1       3.328   5.388  19.326  0.00  0.00    +0.000 A 
ATOM     17  S   UNL     1       2.969   6.966  18.763  0.00  0.00    +0.000 S 
BRANCH  16  18
ATOM     18  S   UNL     1       4.507   4.431  18.392  0.00  0.00    +0.000 S 
ATOM     19  O   UNL     1       4.871   5.266  17.266  0.00  0.00    +0.000 OA
ATOM     20  O   UNL     1       5.492   4.013  19.365  0.00  0.00    +0.000 OA
BRANCH  18  21
ATOM     21  N   UNL     1       3.716   3.039  17.812  0.00  0.00    +0.000 NA
ATOM     22  C   UNL     1       2.393   3.257  17.177  0.00  0.00    +0.000 C 
ATOM     23  C   UNL     1       1.385   2.879  18.247  0.00  0.00    +0.000 C 
ATOM     24  C   UNL     1       2.044   1.712  18.955  0.00  0.00    +0.000 C 
ATOM     25  C   UNL     1       3.544   1.962  18.830  0.00  0.00    +0.000 C 
ENDBRANCH  18  21
ENDBRANCH  16  18
ENDBRANCH   1  13
BRANCH   1  27
ATOM     26  O   UNL     1      -0.279   8.761  22.098  0.00  0.00    +0.000 OA
ATOM     27  C   UNL     1       0.878   8.881  21.730  0.00  0.00    +0.000 C 
BRANCH  27  28
ATOM     28  O   UNL     1       1.850   9.282  22.584  0.00  0.00    +0.000 OA
ATOM     29  H   UNL     1       1.641   9.203  23.532  0.00  0.00    +0.000 HD
ENDBRANCH  27  28
ENDBRANCH   1  27
TORSDOF 7
ENDMDL
MODEL 7
REMARK VINA RESULT:      -7.1      2.227      3.023
REMARK  Name = 
REMARK  7 active torsions:
REMARK  status: ('A' for Active; 'I' for Inactive)
REMARK    1  A    between atoms: C_2  and  O_3
REMARK    2  A    between atoms: C_2  and  C_4
REMARK    3  A    between atoms: C_4  and  C_16
REMARK    4  A    between atoms: C_5  and  C_6
REMARK    5  A    between atoms: C_11  and  N_12
REMARK    6  A    between atoms: C_19  and  S_20
REMARK    7  A    between atoms: S_20  and  N_23
REMARK                            x       y       z     vdW  Elec       q    Type
REMARK                         _______ _______ _______ _____ _____    ______ ____
ROOT
ATOM      1  C   UNL     1       1.699   8.399  19.588  0.00  0.00    +0.000 C 
ATOM      2  C   UNL     1       1.171   9.430  18.890  0.00  0.00    +0.000 C 
ENDROOT
BRANCH   2   3
ATOM      3  C   UNL     1       0.080  10.288  19.371  0.00  0.00    +0.000 A 
ATOM      4  C   UNL     1      -1.093  10.440  18.621  0.00  0.00    +0.000 A 
ATOM      5  C   UNL     1      -2.075  11.359  19.015  0.00  0.00    +0.000 A 
ATOM      6  C   UNL     1      -1.901  12.140  20.163  0.00  0.00    +0.000 A 
ATOM      7 CL   UNL     1      -3.162  13.240  20.581  0.00  0.00    +0.000 Cl
ATOM      8  C   UNL     1      -0.740  11.968  20.913  0.00  0.00    +0.000 A 
ATOM      9  C   UNL     1       0.248  11.041  20.539  0.00  0.00    +0.000 A 
BRANCH   8  10
ATOM     10  N   UNL     1      -0.512  12.738  22.116  0.00  0.00    +0.000 N 
ATOM     11  O   UNL     1       0.103  13.807  22.011  0.00  0.00    +0.000 OA
ATOM     12  O   UNL     1      -0.916  12.241  23.177  0.00  0.00    +0.000 OA
ENDBRANCH   8  10
ENDBRANCH   2   3
BRANCH   1  13
ATOM     13  C   UNL     1       2.658   7.548  18.953  0.00  0.00    +0.000 A 
ATOM     14  C   UNL     1       3.210   7.716  17.696  0.00  0.00    +0.000 A 
ATOM     15  C   UNL     1       3.921   6.570  17.251  0.00  0.00    +0.000 A 
ATOM     16  C   UNL     1       3.999   5.592  18.221  0.00  0.00    +0.000 A 
ATOM     17  S   UNL     1       3.166   6.055  19.645  0.00  0.00    +0.000 S 
BRANCH  16  18
ATOM     18  S   UNL     1       4.782   3.990  18.213  0.00  0.00    +0.000 S 
ATOM     19  O   UNL     1       5.697   4.017  17.090  0.00  0.00    +0.000 OA
ATOM     20  O   UNL     1       5.261   3.811  19.566  0.00  0.00    +0.000 OA
BRANCH  18  21
ATOM     21  N   UNL     1       3.584   2.818  17.919  0.00  0.00    +0.000 NA
ATOM     22  C   UNL     1       2.386   3.281  17.176  0.00  0.00    +0.000 C 
ATOM     23  C   UNL     1       1.329   3.494  18.243  0.00  0.00    +0.000 C 
ATOM     24  C   UNL     1       1.599   2.380  19.234  0.00  0.00    +0.000 C 
ATOM     25  C   UNL     1       3.098   2.115  19.142  0.00  0.00    +0.000 C 
ENDBRANCH  18  21
ENDBRANCH  16  18
ENDBRANCH   1  13
BRANCH   1  27
ATOM     26  O   UNL     1       0.198   7.348  21.161  0.00  0.00    +0.000 OA
ATOM     27  C   UNL     1       1.197   8.015  20.951  0.00  0.00    +0.000 C 
BRANCH  27  28
ATOM     28  O   UNL     1       1.978   8.452  21.967  0.00  0.00    +0.000 OA
ATOM     29  H   UNL     1       2.481   9.268  21.795  0.00  0.00    +0.000 HD
ENDBRANCH  27  28
ENDBRANCH   1  27
TORSDOF 7
ENDMDL
MODEL 8
REMARK VINA RESULT:      -7.1      1.860      2.327
REMARK  Name = 
REMARK  7 active torsions:
REMARK  status: ('A' for Active; 'I' for Inactive)
REMARK    1  A    between atoms: C_2  and  O_3
REMARK    2  A    between atoms: C_2  and  C_4
REMARK    3  A    between atoms: C_4  and  C_16
REMARK    4  A    between atoms: C_5  and  C_6
REMARK    5  A    between atoms: C_11  and  N_12
REMARK    6  A    between atoms: C_19  and  S_20
REMARK    7  A    between atoms: S_20  and  N_23
REMARK                            x       y       z     vdW  Elec       q    Type
REMARK                         _______ _______ _______ _____ _____    ______ ____
ROOT
ATOM      1  C   UNL     1       0.627   9.808  19.822  0.00  0.00    +0.000 C 
ATOM      2  C   UNL     1       0.781  10.131  21.126  0.00  0.00    +0.000 C 
ENDROOT
BRANCH   2   3
ATOM      3  C   UNL     1      -0.014  11.147  21.831  0.00  0.00    +0.000 A 
ATOM      4  C   UNL     1      -1.147  10.781  22.567  0.00  0.00    +0.000 A 
ATOM      5  C   UNL     1      -1.977  11.762  23.129  0.00  0.00    +0.000 A 
ATOM      6  C   UNL     1      -1.687  13.121  22.963  0.00  0.00    +0.000 A 
ATOM      7 CL   UNL     1      -2.755  14.262  23.693  0.00  0.00    +0.000 Cl
ATOM      8  C   UNL     1      -0.547  13.474  22.245  0.00  0.00    +0.000 A 
ATOM      9  C   UNL     1       0.303  12.503  21.689  0.00  0.00    +0.000 A 
BRANCH   8  10
ATOM     10  N   UNL     1      -0.190  14.863  22.053  0.00  0.00    +0.000 N 
ATOM     11  O   UNL     1      -0.716  15.471  21.113  0.00  0.00    +0.000 OA
ATOM     12  O   UNL     1       0.657  15.329  22.827  0.00  0.00    +0.000 OA
ENDBRANCH   8  10
ENDBRANCH   2   3
BRANCH   1  13
ATOM     13  C   UNL     1       1.558   8.908  19.215  0.00  0.00    +0.000 A 
ATOM     14  C   UNL     1       2.089   9.000  17.941  0.00  0.00    +0.000 A 
ATOM     15  C   UNL     1       2.770   7.819  17.543  0.00  0.00    +0.000 A 
ATOM     16  C   UNL     1       2.850   6.892  18.561  0.00  0.00    +0.000 A 
ATOM     17  S   UNL     1       2.053   7.444  19.975  0.00  0.00    +0.000 S 
BRANCH  16  18
ATOM     18  S   UNL     1       3.606   5.278  18.623  0.00  0.00    +0.000 S 
ATOM     19  O   UNL     1       3.692   4.843  17.244  0.00  0.00    +0.000 OA
ATOM     20  O   UNL     1       4.794   5.460  19.427  0.00  0.00    +0.000 OA
BRANCH  18  21
ATOM     21  N   UNL     1       2.555   4.235  19.463  0.00  0.00    +0.000 NA
ATOM     22  C   UNL     1       3.154   2.980  19.980  0.00  0.00    +0.000 C 
ATOM     23  C   UNL     1       2.741   1.916  18.980  0.00  0.00    +0.000 C 
ATOM     24  C   UNL     1       1.342   2.337  18.576  0.00  0.00    +0.000 C 
ATOM     25  C   UNL     1       1.327   3.857  18.704  0.00  0.00    +0.000 C 
ENDBRANCH  18  21
ENDBRANCH  16  18
ENDBRANCH   1  13
BRANCH   1  27
ATOM     26  O   UNL     1      -1.540  10.115  18.799  0.00  0.00    +0.000 OA
ATOM     27  C   UNL     1      -0.387  10.485  18.943  0.00  0.00    +0.000 C 
BRANCH  27  28
ATOM     28  O   UNL     1       0.078  11.595  18.324  0.00  0.00    +0.000 OA
ATOM     29  H   UNL     1       1.016  11.573  18.060  0.00  0.00    +0.000 HD
ENDBRANCH  27  28
ENDBRANCH   1  27
TORSDOF 7
ENDMDL
MODEL 9
REMARK VINA RESULT:      -7.1      1.727      2.007
REMARK  Name = 
REMARK  7 active torsions:
REMARK  status: ('A' for Active; 'I' for Inactive)
REMARK    1  A    between atoms: C_2  and  O_3
REMARK    2  A    between atoms: C_2  and  C_4
REMARK    3  A    between atoms: C_4  and  C_16
REMARK    4  A    between atoms: C_5  and  C_6
REMARK    5  A    between atoms: C_11  and  N_12
REMARK    6  A    between atoms: C_19  and  S_20
REMARK    7  A    between atoms: S_20  and  N_23
REMARK                            x       y       z     vdW  Elec       q    Type
REMARK                         _______ _______ _______ _____ _____    ______ ____
ROOT
ATOM      1  C   UNL     1       0.622   9.980  20.724  0.00  0.00    +0.000 C 
ATOM      2  C   UNL     1       0.230  11.175  20.231  0.00  0.00    +0.000 C 
ENDROOT
BRANCH   2   3
ATOM      3  C   UNL     1      -0.634  12.127  20.944  0.00  0.00    +0.000 A 
ATOM      4  C   UNL     1      -0.091  13.039  21.856  0.00  0.00    +0.000 A 
ATOM      5  C   UNL     1      -0.928  13.855  22.630  0.00  0.00    +0.000 A 
ATOM      6  C   UNL     1      -2.319  13.771  22.505  0.00  0.00    +0.000 A 
ATOM      7 CL   UNL     1      -3.276  14.815  23.490  0.00  0.00    +0.000 Cl
ATOM      8  C   UNL     1      -2.849  12.874  21.580  0.00  0.00    +0.000 A 
ATOM      9  C   UNL     1      -2.024  12.061  20.787  0.00  0.00    +0.000 A 
BRANCH   8  10
ATOM     10  N   UNL     1      -4.279  12.754  21.398  0.00  0.00    +0.000 N 
ATOM     11  O   UNL     1      -4.770  13.210  20.358  0.00  0.00    +0.000 OA
ATOM     12  O   UNL     1      -4.915  12.238  22.328  0.00  0.00    +0.000 OA
ENDBRANCH   8  10
ENDBRANCH   2   3
BRANCH   1  13
ATOM     13  C   UNL     1       1.343   9.081  19.876  0.00  0.00    +0.000 A 
ATOM     14  C   UNL     1       1.585   9.232  18.523  0.00  0.00    +0.000 A 
ATOM     15  C   UNL     1       2.092   8.051  17.920  0.00  0.00    +0.000 A 
ATOM     16  C   UNL     1       2.340   7.056  18.842  0.00  0.00    +0.000 A 
ATOM     17  S   UNL     1       1.908   7.549  20.426  0.00  0.00    +0.000 S 
BRANCH  16  18
ATOM     18  S   UNL     1       2.996   5.410  18.646  0.00  0.00    +0.000 S 
ATOM     19  O   UNL     1       3.629   5.403  17.343  0.00  0.00    +0.000 OA
ATOM     20  O   UNL     1       3.758   5.173  19.852  0.00  0.00    +0.000 OA
BRANCH  18  21
ATOM     21  N   UNL     1       1.688   4.320  18.628  0.00  0.00    +0.000 NA
ATOM     22  C   UNL     1       1.044   4.050  19.937  0.00  0.00    +0.000 C 
ATOM     23  C   UNL     1       1.613   2.715  20.379  0.00  0.00    +0.000 C 
ATOM     24  C   UNL     1       1.746   1.943  19.081  0.00  0.00    +0.000 C 
ATOM     25  C   UNL     1       1.999   2.998  18.009  0.00  0.00    +0.000 C 
ENDBRANCH  18  21
ENDBRANCH  16  18
ENDBRANCH   1  13
BRANCH   1  27
ATOM     26  O   UNL     1      -0.807   8.816  22.287  0.00  0.00    +0.000 OA
ATOM     27  C   UNL     1       0.188   9.490  22.077  0.00  0.00    +0.000 C 
BRANCH  27  28
ATOM     28  O   UNL     1       1.028   9.838  23.081  0.00  0.00    +0.000 OA
ATOM     29  H   UNL     1       1.472   9.100  23.538  0.00  0.00    +0.000 HD
ENDBRANCH  27  28
ENDBRANCH   1  27
TORSDOF 7
ENDMDL
