MODEL 1
REMARK VINA RESULT:      -8.7      0.000      0.000
REMARK  Name = 
REMARK  4 active torsions:
REMARK  status: ('A' for Active; 'I' for Inactive)
REMARK    1  A    between atoms: C_1  and  O_2
REMARK    2  A    between atoms: O_2  and  C_3
REMARK    3  A    between atoms: C_6  and  C_7
REMARK    4  A    between atoms: C_19  and  C_20
REMARK                            x       y       z     vdW  Elec       q    Type
REMARK                         _______ _______ _______ _____ _____    ______ ____
ROOT
ATOM      1  C   UNL     1       3.351   5.300  19.050  0.00  0.00    +0.000 C 
ATOM      2  O   UNL     1       3.310   4.291  19.752  0.00  0.00    +0.000 OA
ATOM      3  N   UNL     1       2.486   6.371  19.237  0.00  0.00    +0.000 N 
ATOM      4  C   UNL     1       1.675   6.425  20.467  0.00  0.00    +0.000 C 
ATOM      5  C   UNL     1       1.711   7.842  21.087  0.00  0.00    +0.000 C 
ATOM      6  N   UNL     1       1.313   8.806  20.048  0.00  0.00    +0.000 N 
ATOM      7  C   UNL     1       0.696   9.956  20.416  0.00  0.00    +0.000 A 
ATOM      8  N   UNL     1       0.780  10.657  21.530  0.00  0.00    +0.000 NA
ATOM      9  N   UNL     1      -0.117  11.705  21.457  0.00  0.00    +0.000 NA
ATOM     10  C   UNL     1      -0.779  11.587  20.326  0.00  0.00    +0.000 A 
ATOM     11  C   UNL     1      -1.845  12.320  19.737  0.00  0.00    +0.000 A 
ATOM     12  C   UNL     1      -2.370  11.912  18.560  0.00  0.00    +0.000 A 
ATOM     13  C   UNL     1      -1.873  10.726  17.860  0.00  0.00    +0.000 A 
ATOM     14  C   UNL     1      -0.859  10.047  18.430  0.00  0.00    +0.000 A 
ATOM     15  N   UNL     1      -0.315  10.487  19.633  0.00  0.00    +0.000 N 
ATOM     16  C   UNL     1       2.196   8.798  18.870  0.00  0.00    +0.000 C 
ATOM     17  C   UNL     1       2.127   7.395  18.239  0.00  0.00    +0.000 C 
ENDROOT
BRANCH   1  21
ATOM     18  C   UNL     1       6.422   5.441  16.049  0.00  0.00    +0.000 A 
ATOM     19  C   UNL     1       5.270   4.675  15.857  0.00  0.00    +0.000 A 
ATOM     20  C   UNL     1       4.260   4.653  16.824  0.00  0.00    +0.000 A 
ATOM     21  C   UNL     1       4.412   5.378  18.009  0.00  0.00    +0.000 A 
ATOM     22  C   UNL     1       5.610   6.067  18.235  0.00  0.00    +0.000 A 
ATOM     23  C   UNL     1       6.592   6.133  17.245  0.00  0.00    +0.000 A 
BRANCH  18  25
ATOM     24  C   UNL     1       6.943   4.658  13.882  0.00  0.00    +0.000 C 
ATOM     25  O   UNL     1       7.337   5.398  15.033  0.00  0.00    +0.000 OA
ENDBRANCH  18  25
ENDBRANCH   1  21
BRANCH  13  26
ATOM     26  C   UNL     1      -2.482  10.279  16.563  0.00  0.00    +0.000 C 
ATOM     27  F   UNL     1      -2.405  11.215  15.587  0.00  0.00    +0.000 F 
ATOM     28  F   UNL     1      -1.868   9.163  16.094  0.00  0.00    +0.000 F 
ATOM     29  F   UNL     1      -3.795   9.968  16.711  0.00  0.00    +0.000 F 
ENDBRANCH  13  26
TORSDOF 3
ENDMDL
MODEL 2
REMARK VINA RESULT:      -8.6      0.204      1.160
REMARK  Name = 
REMARK  4 active torsions:
REMARK  status: ('A' for Active; 'I' for Inactive)
REMARK    1  A    between atoms: C_1  and  O_2
REMARK    2  A    between atoms: O_2  and  C_3
REMARK    3  A    between atoms: C_6  and  C_7
REMARK    4  A    between atoms: C_19  and  C_20
REMARK                            x       y       z     vdW  Elec       q    Type
REMARK                         _______ _______ _______ _____ _____    ______ ____
ROOT
ATOM      1  C   UNL     1       3.283   5.096  19.053  0.00  0.00    +0.000 C 
ATOM      2  O   UNL     1       3.215   4.082  19.746  0.00  0.00    +0.000 OA
ATOM      3  N   UNL     1       2.460   6.195  19.262  0.00  0.00    +0.000 N 
ATOM      4  C   UNL     1       1.667   6.266  20.503  0.00  0.00    +0.000 C 
ATOM      5  C   UNL     1       1.763   7.674  21.137  0.00  0.00    +0.000 C 
ATOM      6  N   UNL     1       1.386   8.663  20.112  0.00  0.00    +0.000 N 
ATOM      7  C   UNL     1       0.817   9.831  20.500  0.00  0.00    +0.000 A 
ATOM      8  N   UNL     1       0.941  10.516  21.619  0.00  0.00    +0.000 NA
ATOM      9  N   UNL     1       0.081  11.597  21.569  0.00  0.00    +0.000 NA
ATOM     10  C   UNL     1      -0.600  11.514  20.446  0.00  0.00    +0.000 A 
ATOM     11  C   UNL     1      -1.646  12.291  19.878  0.00  0.00    +0.000 A 
ATOM     12  C   UNL     1      -2.200  11.915  18.704  0.00  0.00    +0.000 A 
ATOM     13  C   UNL     1      -1.755  10.719  17.986  0.00  0.00    +0.000 A 
ATOM     14  C   UNL     1      -0.759   9.997  18.536  0.00  0.00    +0.000 A 
ATOM     15  N   UNL     1      -0.185  10.406  19.736  0.00  0.00    +0.000 N 
ATOM     16  C   UNL     1       2.254   8.635  18.923  0.00  0.00    +0.000 C 
ATOM     17  C   UNL     1       2.126   7.242  18.279  0.00  0.00    +0.000 C 
ENDROOT
BRANCH   1  21
ATOM     18  C   UNL     1       6.298   5.323  16.002  0.00  0.00    +0.000 A 
ATOM     19  C   UNL     1       6.365   6.140  17.133  0.00  0.00    +0.000 A 
ATOM     20  C   UNL     1       5.396   6.043  18.138  0.00  0.00    +0.000 A 
ATOM     21  C   UNL     1       4.333   5.146  17.999  0.00  0.00    +0.000 A 
ATOM     22  C   UNL     1       4.223   4.401  16.819  0.00  0.00    +0.000 A 
ATOM     23  C   UNL     1       5.220   4.457  15.844  0.00  0.00    +0.000 A 
BRANCH  18  25
ATOM     24  C   UNL     1       7.145   4.797  13.859  0.00  0.00    +0.000 C 
ATOM     25  O   UNL     1       7.305   5.494  15.091  0.00  0.00    +0.000 OA
ENDBRANCH  18  25
ENDBRANCH   1  21
BRANCH  13  26
ATOM     26  C   UNL     1      -2.397  10.307  16.693  0.00  0.00    +0.000 C 
ATOM     27  F   UNL     1      -3.695   9.944  16.834  0.00  0.00    +0.000 F 
ATOM     28  F   UNL     1      -2.361  11.316  15.786  0.00  0.00    +0.000 F 
ATOM     29  F   UNL     1      -1.751   9.254  16.129  0.00  0.00    +0.000 F 
ENDBRANCH  13  26
TORSDOF 3
ENDMDL
MODEL 3
REMARK VINA RESULT:      -7.7      0.723      1.213
REMARK  Name = 
REMARK  4 active torsions:
REMARK  status: ('A' for Active; 'I' for Inactive)
REMARK    1  A    between atoms: C_1  and  O_2
REMARK    2  A    between atoms: O_2  and  C_3
REMARK    3  A    between atoms: C_6  and  C_7
REMARK    4  A    between atoms: C_19  and  C_20
REMARK                            x       y       z     vdW  Elec       q    Type
REMARK                         _______ _______ _______ _____ _____    ______ ____
ROOT
ATOM      1  C   UNL     1       2.986   5.312  19.148  0.00  0.00    +0.000 C 
ATOM      2  O   UNL     1       3.026   4.336  19.894  0.00  0.00    +0.000 OA
ATOM      3  N   UNL     1       2.183   6.415  19.409  0.00  0.00    +0.000 N 
ATOM      4  C   UNL     1       1.564   6.546  20.740  0.00  0.00    +0.000 C 
ATOM      5  C   UNL     1       1.725   7.987  21.281  0.00  0.00    +0.000 C 
ATOM      6  N   UNL     1       1.200   8.917  20.267  0.00  0.00    +0.000 N 
ATOM      7  C   UNL     1       0.671  10.100  20.668  0.00  0.00    +0.000 A 
ATOM      8  N   UNL     1       0.935  10.844  21.723  0.00  0.00    +0.000 NA
ATOM      9  N   UNL     1       0.061  11.915  21.734  0.00  0.00    +0.000 NA
ATOM     10  C   UNL     1      -0.763  11.768  20.718  0.00  0.00    +0.000 A 
ATOM     11  C   UNL     1      -1.886  12.507  20.257  0.00  0.00    +0.000 A 
ATOM     12  C   UNL     1      -2.588  12.066  19.190  0.00  0.00    +0.000 A 
ATOM     13  C   UNL     1      -2.228  10.836  18.481  0.00  0.00    +0.000 A 
ATOM     14  C   UNL     1      -1.157  10.152  18.928  0.00  0.00    +0.000 A 
ATOM     15  N   UNL     1      -0.432  10.627  20.017  0.00  0.00    +0.000 N 
ATOM     16  C   UNL     1       1.900   8.832  18.975  0.00  0.00    +0.000 C 
ATOM     17  C   UNL     1       1.706   7.406  18.427  0.00  0.00    +0.000 C 
ENDROOT
BRANCH   1  21
ATOM     18  C   UNL     1       5.546   5.390  15.698  0.00  0.00    +0.000 A 
ATOM     19  C   UNL     1       5.564   6.436  16.625  0.00  0.00    +0.000 A 
ATOM     20  C   UNL     1       4.749   6.394  17.761  0.00  0.00    +0.000 A 
ATOM     21  C   UNL     1       3.884   5.314  17.960  0.00  0.00    +0.000 A 
ATOM     22  C   UNL     1       3.804   4.317  16.980  0.00  0.00    +0.000 A 
ATOM     23  C   UNL     1       4.658   4.333  15.876  0.00  0.00    +0.000 A 
BRANCH  18  25
ATOM     24  C   UNL     1       7.574   4.737  14.676  0.00  0.00    +0.000 C 
ATOM     25  O   UNL     1       6.392   5.531  14.633  0.00  0.00    +0.000 OA
ENDBRANCH  18  25
ENDBRANCH   1  21
BRANCH  13  26
ATOM     26  C   UNL     1      -3.031  10.352  17.310  0.00  0.00    +0.000 C 
ATOM     27  F   UNL     1      -2.265   9.901  16.287  0.00  0.00    +0.000 F 
ATOM     28  F   UNL     1      -3.856   9.336  17.668  0.00  0.00    +0.000 F 
ATOM     29  F   UNL     1      -3.821  11.335  16.807  0.00  0.00    +0.000 F 
ENDBRANCH  13  26
TORSDOF 3
ENDMDL
MODEL 4
REMARK VINA RESULT:      -7.1      4.230      8.700
REMARK  Name = 
REMARK  4 active torsions:
REMARK  status: ('A' for Active; 'I' for Inactive)
REMARK    1  A    between atoms: C_1  and  O_2
REMARK    2  A    between atoms: O_2  and  C_3
REMARK    3  A    between atoms: C_6  and  C_7
REMARK    4  A    between atoms: C_19  and  C_20
REMARK                            x       y       z     vdW  Elec       q    Type
REMARK                         _______ _______ _______ _____ _____    ______ ____
ROOT
ATOM      1  C   UNL     1       0.583   9.064  21.160  0.00  0.00    +0.000 C 
ATOM      2  O   UNL     1       0.167   8.796  22.286  0.00  0.00    +0.000 OA
ATOM      3  N   UNL     1       1.426   8.212  20.458  0.00  0.00    +0.000 N 
ATOM      4  C   UNL     1       1.619   6.837  20.949  0.00  0.00    +0.000 C 
ATOM      5  C   UNL     1       1.523   5.819  19.787  0.00  0.00    +0.000 C 
ATOM      6  N   UNL     1       2.469   6.233  18.737  0.00  0.00    +0.000 N 
ATOM      7  C   UNL     1       3.023   5.288  17.939  0.00  0.00    +0.000 A 
ATOM      8  N   UNL     1       2.566   4.114  17.554  0.00  0.00    +0.000 NA
ATOM      9  N   UNL     1       3.547   3.482  16.814  0.00  0.00    +0.000 NA
ATOM     10  C   UNL     1       4.610   4.257  16.816  0.00  0.00    +0.000 A 
ATOM     11  C   UNL     1       5.920   4.120  16.281  0.00  0.00    +0.000 A 
ATOM     12  C   UNL     1       6.839   5.086  16.500  0.00  0.00    +0.000 A 
ATOM     13  C   UNL     1       6.530   6.286  17.280  0.00  0.00    +0.000 A 
ATOM     14  C   UNL     1       5.282   6.403  17.775  0.00  0.00    +0.000 A 
ATOM     15  N   UNL     1       4.340   5.409  17.526  0.00  0.00    +0.000 N 
ATOM     16  C   UNL     1       2.195   7.575  18.196  0.00  0.00    +0.000 C 
ATOM     17  C   UNL     1       2.327   8.585  19.352  0.00  0.00    +0.000 C 
ENDROOT
BRANCH   1  21
ATOM     18  C   UNL     1      -0.825  12.724  19.405  0.00  0.00    +0.000 A 
ATOM     19  C   UNL     1       0.126  12.742  20.428  0.00  0.00    +0.000 A 
ATOM     20  C   UNL     1       0.602  11.547  20.978  0.00  0.00    +0.000 A 
ATOM     21  C   UNL     1       0.104  10.323  20.525  0.00  0.00    +0.000 A 
ATOM     22  C   UNL     1      -0.917  10.317  19.567  0.00  0.00    +0.000 A 
ATOM     23  C   UNL     1      -1.350  11.506  18.979  0.00  0.00    +0.000 A 
BRANCH  18  25
ATOM     24  C   UNL     1      -0.289  15.012  19.162  0.00  0.00    +0.000 C 
ATOM     25  O   UNL     1      -1.208  13.949  18.933  0.00  0.00    +0.000 OA
ENDBRANCH  18  25
ENDBRANCH   1  21
BRANCH  13  26
ATOM     26  C   UNL     1       7.570   7.339  17.529  0.00  0.00    +0.000 C 
ATOM     27  F   UNL     1       8.380   7.052  18.577  0.00  0.00    +0.000 F 
ATOM     28  F   UNL     1       8.367   7.506  16.444  0.00  0.00    +0.000 F 
ATOM     29  F   UNL     1       7.005   8.547  17.786  0.00  0.00    +0.000 F 
ENDBRANCH  13  26
TORSDOF 3
ENDMDL
MODEL 5
REMARK VINA RESULT:      -7.0      4.241      8.594
REMARK  Name = 
REMARK  4 active torsions:
REMARK  status: ('A' for Active; 'I' for Inactive)
REMARK    1  A    between atoms: C_1  and  O_2
REMARK    2  A    between atoms: O_2  and  C_3
REMARK    3  A    between atoms: C_6  and  C_7
REMARK    4  A    between atoms: C_19  and  C_20
REMARK                            x       y       z     vdW  Elec       q    Type
REMARK                         _______ _______ _______ _____ _____    ______ ____
ROOT
ATOM      1  C   UNL     1       0.665   9.081  21.294  0.00  0.00    +0.000 C 
ATOM      2  O   UNL     1       0.281   8.846  22.438  0.00  0.00    +0.000 OA
ATOM      3  N   UNL     1       1.432   8.179  20.568  0.00  0.00    +0.000 N 
ATOM      4  C   UNL     1       1.572   6.800  21.067  0.00  0.00    +0.000 C 
ATOM      5  C   UNL     1       1.375   5.778  19.921  0.00  0.00    +0.000 C 
ATOM      6  N   UNL     1       2.299   6.131  18.830  0.00  0.00    +0.000 N 
ATOM      7  C   UNL     1       2.770   5.151  18.021  0.00  0.00    +0.000 A 
ATOM      8  N   UNL     1       2.236   3.999  17.668  0.00  0.00    +0.000 NA
ATOM      9  N   UNL     1       3.151   3.308  16.897  0.00  0.00    +0.000 NA
ATOM     10  C   UNL     1       4.254   4.026  16.848  0.00  0.00    +0.000 A 
ATOM     11  C   UNL     1       5.532   3.814  16.264  0.00  0.00    +0.000 A 
ATOM     12  C   UNL     1       6.509   4.731  16.436  0.00  0.00    +0.000 A 
ATOM     13  C   UNL     1       6.295   5.953  17.214  0.00  0.00    +0.000 A 
ATOM     14  C   UNL     1       5.076   6.141  17.756  0.00  0.00    +0.000 A 
ATOM     15  N   UNL     1       4.073   5.197  17.556  0.00  0.00    +0.000 N 
ATOM     16  C   UNL     1       2.075   7.481  18.286  0.00  0.00    +0.000 C 
ATOM     17  C   UNL     1       2.307   8.493  19.424  0.00  0.00    +0.000 C 
ENDROOT
BRANCH   1  21
ATOM     18  C   UNL     1      -0.576  12.733  19.402  0.00  0.00    +0.000 A 
ATOM     19  C   UNL     1      -1.148  11.511  19.040  0.00  0.00    +0.000 A 
ATOM     20  C   UNL     1      -0.761  10.328  19.677  0.00  0.00    +0.000 A 
ATOM     21  C   UNL     1       0.228  10.358  20.664  0.00  0.00    +0.000 A 
ATOM     22  C   UNL     1       0.862  11.572  20.954  0.00  0.00    +0.000 A 
ATOM     23  C   UNL     1       0.435  12.760  20.359  0.00  0.00    +0.000 A 
BRANCH  18  25
ATOM     24  C   UNL     1      -0.288  15.024  18.896  0.00  0.00    +0.000 C 
ATOM     25  O   UNL     1      -1.039  13.826  18.722  0.00  0.00    +0.000 OA
ENDBRANCH  18  25
ENDBRANCH   1  21
BRANCH  13  26
ATOM     26  C   UNL     1       7.399   6.951  17.410  0.00  0.00    +0.000 C 
ATOM     27  F   UNL     1       6.948   8.202  17.668  0.00  0.00    +0.000 F 
ATOM     28  F   UNL     1       8.202   6.596  18.445  0.00  0.00    +0.000 F 
ATOM     29  F   UNL     1       8.194   7.036  16.312  0.00  0.00    +0.000 F 
ENDBRANCH  13  26
TORSDOF 3
ENDMDL
MODEL 6
REMARK VINA RESULT:      -6.8      7.413     10.208
REMARK  Name = 
REMARK  4 active torsions:
REMARK  status: ('A' for Active; 'I' for Inactive)
REMARK    1  A    between atoms: C_1  and  O_2
REMARK    2  A    between atoms: O_2  and  C_3
REMARK    3  A    between atoms: C_6  and  C_7
REMARK    4  A    between atoms: C_19  and  C_20
REMARK                            x       y       z     vdW  Elec       q    Type
REMARK                         _______ _______ _______ _____ _____    ______ ____
ROOT
ATOM      1  C   UNL     1       0.621  14.309  19.185  0.00  0.00    +0.000 C 
ATOM      2  O   UNL     1      -0.284  14.706  18.453  0.00  0.00    +0.000 OA
ATOM      3  N   UNL     1       1.937  14.725  19.032  0.00  0.00    +0.000 N 
ATOM      4  C   UNL     1       2.224  15.868  18.147  0.00  0.00    +0.000 C 
ATOM      5  C   UNL     1       3.209  16.852  18.823  0.00  0.00    +0.000 C 
ATOM      6  N   UNL     1       4.397  16.091  19.246  0.00  0.00    +0.000 N 
ATOM      7  C   UNL     1       5.598  16.718  19.299  0.00  0.00    +0.000 A 
ATOM      8  N   UNL     1       5.897  17.983  19.518  0.00  0.00    +0.000 NA
ATOM      9  N   UNL     1       7.262  18.141  19.380  0.00  0.00    +0.000 NA
ATOM     10  C   UNL     1       7.765  16.981  19.015  0.00  0.00    +0.000 A 
ATOM     11  C   UNL     1       9.075  16.546  18.677  0.00  0.00    +0.000 A 
ATOM     12  C   UNL     1       9.276  15.272  18.275  0.00  0.00    +0.000 A 
ATOM     13  C   UNL     1       8.178  14.309  18.174  0.00  0.00    +0.000 A 
ATOM     14  C   UNL     1       6.944  14.736  18.504  0.00  0.00    +0.000 A 
ATOM     15  N   UNL     1       6.752  16.046  18.934  0.00  0.00    +0.000 N 
ATOM     16  C   UNL     1       4.094  15.014  20.203  0.00  0.00    +0.000 C 
ATOM     17  C   UNL     1       3.141  14.022  19.511  0.00  0.00    +0.000 C 
ENDROOT
BRANCH   1  21
ATOM     18  C   UNL     1      -0.485  11.644  22.368  0.00  0.00    +0.000 A 
ATOM     19  C   UNL     1      -0.015  11.146  21.150  0.00  0.00    +0.000 A 
ATOM     20  C   UNL     1       0.370  12.017  20.127  0.00  0.00    +0.000 A 
ATOM     21  C   UNL     1       0.256  13.399  20.306  0.00  0.00    +0.000 A 
ATOM     22  C   UNL     1      -0.304  13.886  21.493  0.00  0.00    +0.000 A 
ATOM     23  C   UNL     1      -0.635  13.018  22.534  0.00  0.00    +0.000 A 
BRANCH  18  25
ATOM     24  C   UNL     1      -0.128   9.461  23.200  0.00  0.00    +0.000 C 
ATOM     25  O   UNL     1      -0.821  10.702  23.301  0.00  0.00    +0.000 OA
ENDBRANCH  18  25
ENDBRANCH   1  21
BRANCH  13  26
ATOM     26  C   UNL     1       8.419  12.903  17.707  0.00  0.00    +0.000 C 
ATOM     27  F   UNL     1       7.434  12.430  16.906  0.00  0.00    +0.000 F 
ATOM     28  F   UNL     1       9.579  12.812  17.008  0.00  0.00    +0.000 F 
ATOM     29  F   UNL     1       8.526  12.042  18.752  0.00  0.00    +0.000 F 
ENDBRANCH  13  26
TORSDOF 3
ENDMDL
MODEL 7
REMARK VINA RESULT:      -6.6      6.732      8.292
REMARK  Name = 
REMARK  4 active torsions:
REMARK  status: ('A' for Active; 'I' for Inactive)
REMARK    1  A    between atoms: C_1  and  O_2
REMARK    2  A    between atoms: O_2  and  C_3
REMARK    3  A    between atoms: C_6  and  C_7
REMARK    4  A    between atoms: C_19  and  C_20
REMARK                            x       y       z     vdW  Elec       q    Type
REMARK                         _______ _______ _______ _____ _____    ______ ____
ROOT
ATOM      1  C   UNL     1       1.024  13.355  20.772  0.00  0.00    +0.000 C 
ATOM      2  O   UNL     1       1.919  12.691  21.292  0.00  0.00    +0.000 OA
ATOM      3  N   UNL     1      -0.321  13.120  21.029  0.00  0.00    +0.000 N 
ATOM      4  C   UNL     1      -0.688  12.236  22.149  0.00  0.00    +0.000 C 
ATOM      5  C   UNL     1      -1.827  12.859  22.991  0.00  0.00    +0.000 C 
ATOM      6  N   UNL     1      -2.938  13.190  22.082  0.00  0.00    +0.000 N 
ATOM      7  C   UNL     1      -4.207  13.173  22.559  0.00  0.00    +0.000 A 
ATOM      8  N   UNL     1      -4.672  13.390  23.773  0.00  0.00    +0.000 NA
ATOM      9  N   UNL     1      -6.035  13.164  23.768  0.00  0.00    +0.000 NA
ATOM     10  C   UNL     1      -6.367  12.749  22.564  0.00  0.00    +0.000 A 
ATOM     11  C   UNL     1      -7.590  12.318  21.982  0.00  0.00    +0.000 A 
ATOM     12  C   UNL     1      -7.608  11.884  20.702  0.00  0.00    +0.000 A 
ATOM     13  C   UNL     1      -6.396  11.843  19.881  0.00  0.00    +0.000 A 
ATOM     14  C   UNL     1      -5.247  12.261  20.447  0.00  0.00    +0.000 A 
ATOM     15  N   UNL     1      -5.245  12.722  21.760  0.00  0.00    +0.000 N 
ATOM     16  C   UNL     1      -2.568  14.150  21.029  0.00  0.00    +0.000 C 
ATOM     17  C   UNL     1      -1.458  13.508  20.175  0.00  0.00    +0.000 C 
ENDROOT
BRANCH   1  21
ATOM     18  C   UNL     1       2.096  16.626  18.201  0.00  0.00    +0.000 A 
ATOM     19  C   UNL     1       1.212  16.815  19.266  0.00  0.00    +0.000 A 
ATOM     20  C   UNL     1       0.887  15.754  20.117  0.00  0.00    +0.000 A 
ATOM     21  C   UNL     1       1.423  14.484  19.887  0.00  0.00    +0.000 A 
ATOM     22  C   UNL     1       2.233  14.282  18.763  0.00  0.00    +0.000 A 
ATOM     23  C   UNL     1       2.602  15.353  17.948  0.00  0.00    +0.000 A 
BRANCH  18  25
ATOM     24  C   UNL     1       1.223  18.307  16.788  0.00  0.00    +0.000 C 
ATOM     25  O   UNL     1       2.352  17.735  17.442  0.00  0.00    +0.000 OA
ENDBRANCH  18  25
ENDBRANCH   1  21
BRANCH  13  26
ATOM     26  C   UNL     1      -6.433  11.340  18.468  0.00  0.00    +0.000 C 
ATOM     27  F   UNL     1      -7.134  12.146  17.633  0.00  0.00    +0.000 F 
ATOM     28  F   UNL     1      -5.182  11.228  17.955  0.00  0.00    +0.000 F 
ATOM     29  F   UNL     1      -6.997  10.107  18.392  0.00  0.00    +0.000 F 
ENDBRANCH  13  26
TORSDOF 3
ENDMDL
