MODEL 1
REMARK VINA RESULT:      -7.9      0.000      0.000
REMARK  Name = 
REMARK  8 active torsions:
REMARK  status: ('A' for Active; 'I' for Inactive)
REMARK    1  A    between atoms: C_1  and  C_2
REMARK    2  A    between atoms: C_2  and  C_3
REMARK    3  A    between atoms: C_3  and  C_4
REMARK    4  A    between atoms: C_10  and  C_11
REMARK    5  A    between atoms: C_11  and  O_12
REMARK    6  A    between atoms: O_12  and  C_13
REMARK    7  A    between atoms: C_17  and  N_18
REMARK    8  A    between atoms: C_19  and  C_21
REMARK                            x       y       z     vdW  Elec       q    Type
REMARK                         _______ _______ _______ _____ _____    ______ ____
ROOT
ATOM      1  O   UNL     1       4.229   5.042  19.904  0.00  0.00    +0.000 OA
ENDROOT
BRANCH   1   2
ATOM      2  C   UNL     1       5.247   4.923  19.005  0.00  0.00    +0.000 A 
ATOM      3  C   UNL     1       6.493   5.301  19.508  0.00  0.00    +0.000 A 
ATOM      4  C   UNL     1       7.627   5.228  18.708  0.00  0.00    +0.000 A 
ATOM      5  C   UNL     1       7.521   4.763  17.399  0.00  0.00    +0.000 A 
ATOM      6  C   UNL     1       6.285   4.372  16.879  0.00  0.00    +0.000 A 
ATOM      7  C   UNL     1       5.141   4.473  17.686  0.00  0.00    +0.000 A 
BRANCH   6   8
ATOM      8  N   UNL     1       6.126   3.884  15.566  0.00  0.00    +0.000 N 
ATOM      9  C   UNL     1       5.972   4.638  14.413  0.00  0.00    +0.000 C 
ATOM     10  O   UNL     1       5.995   5.864  14.360  0.00  0.00    +0.000 OA
ATOM     11  H   UNL     1       6.201   2.884  15.419  0.00  0.00    +0.000 HD
BRANCH   9  12
ATOM     12  C   UNL     1       5.816   3.833  13.218  0.00  0.00    +0.000 A 
ATOM     13  C   UNL     1       6.751   3.122  12.490  0.00  0.00    +0.000 A 
ATOM     14  C   UNL     1       6.056   2.513  11.419  0.00  0.00    +0.000 A 
ATOM     15  C   UNL     1       4.740   2.891  11.554  0.00  0.00    +0.000 A 
ATOM     16  O   UNL     1       4.581   3.690  12.642  0.00  0.00    +0.000 OA
ENDBRANCH   9  12
ENDBRANCH   6   8
ENDBRANCH   1   2
BRANCH   1  17
ATOM     17  C   UNL     1       2.890   5.070  19.415  0.00  0.00    +0.000 C 
BRANCH  17  24
ATOM     18  C   UNL     1       0.483  10.386  20.873  0.00  0.00    +0.000 A 
ATOM     19  N   UNL     1       0.922  10.292  19.659  0.00  0.00    +0.000 NA
ATOM     20  N   UNL     1       1.427   9.030  19.467  0.00  0.00    +0.000 N 
ATOM     21  C   UNL     1       1.961   8.644  18.260  0.00  0.00    +0.000 A 
ATOM     22  O   UNL     1       2.047   9.319  17.241  0.00  0.00    +0.000 OA
ATOM     23  C   UNL     1       2.467   7.257  18.264  0.00  0.00    +0.000 A 
ATOM     24  C   UNL     1       2.376   6.504  19.376  0.00  0.00    +0.000 A 
ATOM     25  N   UNL     1       1.814   6.960  20.556  0.00  0.00    +0.000 NA
ATOM     26  C   UNL     1       1.379   8.175  20.535  0.00  0.00    +0.000 A 
ATOM     27  S   UNL     1       0.637   8.972  21.887  0.00  0.00    +0.000 S 
BRANCH  18  28
ATOM     28  C   UNL     1      -0.128  11.638  21.427  0.00  0.00    +0.000 C 
BRANCH  28  30
ATOM     29  C   UNL     1      -1.796  12.450  23.133  0.00  0.00    +0.000 C 
ATOM     30  C   UNL     1      -0.835  11.339  22.748  0.00  0.00    +0.000 C 
ENDBRANCH  28  30
ENDBRANCH  18  28
ENDBRANCH  17  24
ENDBRANCH   1  17
TORSDOF 7
ENDMDL
MODEL 2
REMARK VINA RESULT:      -7.8      2.408      3.374
REMARK  Name = 
REMARK  8 active torsions:
REMARK  status: ('A' for Active; 'I' for Inactive)
REMARK    1  A    between atoms: C_1  and  C_2
REMARK    2  A    between atoms: C_2  and  C_3
REMARK    3  A    between atoms: C_3  and  C_4
REMARK    4  A    between atoms: C_10  and  C_11
REMARK    5  A    between atoms: C_11  and  O_12
REMARK    6  A    between atoms: O_12  and  C_13
REMARK    7  A    between atoms: C_17  and  N_18
REMARK    8  A    between atoms: C_19  and  C_21
REMARK                            x       y       z     vdW  Elec       q    Type
REMARK                         _______ _______ _______ _____ _____    ______ ____
ROOT
ATOM      1  O   UNL     1       2.606   7.284  19.332  0.00  0.00    +0.000 OA
ENDROOT
BRANCH   1   2
ATOM      2  C   UNL     1       3.253   6.174  18.875  0.00  0.00    +0.000 A 
ATOM      3  C   UNL     1       3.212   5.093  19.758  0.00  0.00    +0.000 A 
ATOM      4  C   UNL     1       3.825   3.890  19.426  0.00  0.00    +0.000 A 
ATOM      5  C   UNL     1       4.472   3.759  18.199  0.00  0.00    +0.000 A 
ATOM      6  C   UNL     1       4.517   4.826  17.299  0.00  0.00    +0.000 A 
ATOM      7  C   UNL     1       3.918   6.045  17.653  0.00  0.00    +0.000 A 
BRANCH   6   8
ATOM      8  N   UNL     1       5.149   4.741  16.042  0.00  0.00    +0.000 N 
ATOM      9  C   UNL     1       6.513   4.750  15.797  0.00  0.00    +0.000 C 
ATOM     10  O   UNL     1       7.387   4.790  16.657  0.00  0.00    +0.000 OA
ATOM     11  H   UNL     1       4.567   4.585  15.228  0.00  0.00    +0.000 HD
BRANCH   9  12
ATOM     12  C   UNL     1       6.843   4.663  14.388  0.00  0.00    +0.000 A 
ATOM     13  C   UNL     1       6.338   3.840  13.400  0.00  0.00    +0.000 A 
ATOM     14  C   UNL     1       7.011   4.180  12.203  0.00  0.00    +0.000 A 
ATOM     15  C   UNL     1       7.889   5.186  12.532  0.00  0.00    +0.000 A 
ATOM     16  O   UNL     1       7.797   5.490  13.853  0.00  0.00    +0.000 OA
ENDBRANCH   9  12
ENDBRANCH   6   8
ENDBRANCH   1   2
BRANCH   1  17
ATOM     17  C   UNL     1       1.828   7.175  20.523  0.00  0.00    +0.000 C 
BRANCH  17  24
ATOM     18  C   UNL     1      -0.565  12.677  20.118  0.00  0.00    +0.000 A 
ATOM     19  N   UNL     1      -0.585  12.151  21.301  0.00  0.00    +0.000 NA
ATOM     20  N   UNL     1       0.002  10.911  21.244  0.00  0.00    +0.000 N 
ATOM     21  C   UNL     1       0.124  10.121  22.362  0.00  0.00    +0.000 A 
ATOM     22  O   UNL     1      -0.235  10.393  23.502  0.00  0.00    +0.000 OA
ATOM     23  C   UNL     1       0.764   8.819  22.088  0.00  0.00    +0.000 A 
ATOM     24  C   UNL     1       1.166   8.509  20.841  0.00  0.00    +0.000 A 
ATOM     25  N   UNL     1       1.017   9.364  19.762  0.00  0.00    +0.000 NA
ATOM     26  C   UNL     1       0.454  10.497  20.021  0.00  0.00    +0.000 A 
ATOM     27  S   UNL     1       0.156  11.733  18.838  0.00  0.00    +0.000 S 
BRANCH  18  28
ATOM     28  C   UNL     1      -1.136  14.030  19.815  0.00  0.00    +0.000 C 
BRANCH  28  30
ATOM     29  C   UNL     1       1.051  15.250  20.092  0.00  0.00    +0.000 C 
ATOM     30  C   UNL     1      -0.083  14.908  19.142  0.00  0.00    +0.000 C 
ENDBRANCH  28  30
ENDBRANCH  18  28
ENDBRANCH  17  24
ENDBRANCH   1  17
TORSDOF 7
ENDMDL
MODEL 3
REMARK VINA RESULT:      -7.4      3.523      4.833
REMARK  Name = 
REMARK  8 active torsions:
REMARK  status: ('A' for Active; 'I' for Inactive)
REMARK    1  A    between atoms: C_1  and  C_2
REMARK    2  A    between atoms: C_2  and  C_3
REMARK    3  A    between atoms: C_3  and  C_4
REMARK    4  A    between atoms: C_10  and  C_11
REMARK    5  A    between atoms: C_11  and  O_12
REMARK    6  A    between atoms: O_12  and  C_13
REMARK    7  A    between atoms: C_17  and  N_18
REMARK    8  A    between atoms: C_19  and  C_21
REMARK                            x       y       z     vdW  Elec       q    Type
REMARK                         _______ _______ _______ _____ _____    ______ ____
ROOT
ATOM      1  O   UNL     1       1.536   8.566  20.078  0.00  0.00    +0.000 OA
ENDROOT
BRANCH   1   2
ATOM      2  C   UNL     1       2.007   7.319  19.791  0.00  0.00    +0.000 A 
ATOM      3  C   UNL     1       1.607   6.341  20.704  0.00  0.00    +0.000 A 
ATOM      4  C   UNL     1       2.006   5.019  20.539  0.00  0.00    +0.000 A 
ATOM      5  C   UNL     1       2.798   4.667  19.449  0.00  0.00    +0.000 A 
ATOM      6  C   UNL     1       3.201   5.629  18.520  0.00  0.00    +0.000 A 
ATOM      7  C   UNL     1       2.816   6.966  18.709  0.00  0.00    +0.000 A 
BRANCH   6   8
ATOM      8  N   UNL     1       3.993   5.323  17.395  0.00  0.00    +0.000 N 
ATOM      9  C   UNL     1       5.347   5.025  17.389  0.00  0.00    +0.000 C 
ATOM     10  O   UNL     1       6.059   4.941  18.385  0.00  0.00    +0.000 OA
ATOM     11  H   UNL     1       3.530   5.235  16.498  0.00  0.00    +0.000 HD
BRANCH   9  12
ATOM     12  C   UNL     1       5.873   4.770  16.062  0.00  0.00    +0.000 A 
ATOM     13  C   UNL     1       7.096   5.094  15.506  0.00  0.00    +0.000 A 
ATOM     14  C   UNL     1       7.084   4.602  14.181  0.00  0.00    +0.000 A 
ATOM     15  C   UNL     1       5.854   4.011  14.004  0.00  0.00    +0.000 A 
ATOM     16  O   UNL     1       5.110   4.104  15.138  0.00  0.00    +0.000 OA
ENDBRANCH   9  12
ENDBRANCH   6   8
ENDBRANCH   1   2
BRANCH   1  17
ATOM     17  C   UNL     1       1.480   9.529  19.028  0.00  0.00    +0.000 C 
BRANCH  17  24
ATOM     18  C   UNL     1      -4.021  11.501  17.605  0.00  0.00    +0.000 A 
ATOM     19  N   UNL     1      -3.551  11.936  18.731  0.00  0.00    +0.000 NA
ATOM     20  N   UNL     1      -2.293  11.418  18.916  0.00  0.00    +0.000 N 
ATOM     21  C   UNL     1      -1.549  11.716  20.032  0.00  0.00    +0.000 A 
ATOM     22  O   UNL     1      -1.870  12.450  20.960  0.00  0.00    +0.000 OA
ATOM     23  C   UNL     1      -0.234  11.045  20.052  0.00  0.00    +0.000 A 
ATOM     24  C   UNL     1       0.132  10.238  19.038  0.00  0.00    +0.000 A 
ATOM     25  N   UNL     1      -0.671   9.992  17.937  0.00  0.00    +0.000 NA
ATOM     26  C   UNL     1      -1.818  10.586  17.938  0.00  0.00    +0.000 A 
ATOM     27  S   UNL     1      -2.998  10.435  16.673  0.00  0.00    +0.000 S 
BRANCH  18  28
ATOM     28  C   UNL     1      -5.383  11.862  17.093  0.00  0.00    +0.000 C 
BRANCH  28  30
ATOM     29  C   UNL     1      -6.831  10.541  18.676  0.00  0.00    +0.000 C 
ATOM     30  C   UNL     1      -6.381  11.927  18.247  0.00  0.00    +0.000 C 
ENDBRANCH  28  30
ENDBRANCH  18  28
ENDBRANCH  17  24
ENDBRANCH   1  17
TORSDOF 7
ENDMDL
MODEL 4
REMARK VINA RESULT:      -7.4      2.883      9.135
REMARK  Name = 
REMARK  8 active torsions:
REMARK  status: ('A' for Active; 'I' for Inactive)
REMARK    1  A    between atoms: C_1  and  C_2
REMARK    2  A    between atoms: C_2  and  C_3
REMARK    3  A    between atoms: C_3  and  C_4
REMARK    4  A    between atoms: C_10  and  C_11
REMARK    5  A    between atoms: C_11  and  O_12
REMARK    6  A    between atoms: O_12  and  C_13
REMARK    7  A    between atoms: C_17  and  N_18
REMARK    8  A    between atoms: C_19  and  C_21
REMARK                            x       y       z     vdW  Elec       q    Type
REMARK                         _______ _______ _______ _____ _____    ______ ____
ROOT
ATOM      1  O   UNL     1       4.807   3.444  19.833  0.00  0.00    +0.000 OA
ENDROOT
BRANCH   1   2
ATOM      2  C   UNL     1       3.489   3.743  20.011  0.00  0.00    +0.000 A 
ATOM      3  C   UNL     1       2.628   2.670  19.771  0.00  0.00    +0.000 A 
ATOM      4  C   UNL     1       1.254   2.823  19.918  0.00  0.00    +0.000 A 
ATOM      5  C   UNL     1       0.734   4.051  20.319  0.00  0.00    +0.000 A 
ATOM      6  C   UNL     1       1.579   5.134  20.573  0.00  0.00    +0.000 A 
ATOM      7  C   UNL     1       2.963   4.979  20.397  0.00  0.00    +0.000 A 
BRANCH   6   8
ATOM      8  N   UNL     1       1.104   6.393  20.992  0.00  0.00    +0.000 N 
ATOM      9  C   UNL     1       1.427   7.626  20.447  0.00  0.00    +0.000 C 
ATOM     10  O   UNL     1       2.154   7.802  19.475  0.00  0.00    +0.000 OA
ATOM     11  H   UNL     1       0.397   6.416  21.718  0.00  0.00    +0.000 HD
BRANCH   9  12
ATOM     12  C   UNL     1       0.780   8.737  21.118  0.00  0.00    +0.000 A 
ATOM     13  C   UNL     1      -0.190   8.746  22.102  0.00  0.00    +0.000 A 
ATOM     14  C   UNL     1      -0.456  10.103  22.398  0.00  0.00    +0.000 A 
ATOM     15  C   UNL     1       0.362  10.841  21.576  0.00  0.00    +0.000 A 
ATOM     16  O   UNL     1       1.119  10.026  20.796  0.00  0.00    +0.000 OA
ENDBRANCH   9  12
ENDBRANCH   6   8
ENDBRANCH   1   2
BRANCH   1  17
ATOM     17  C   UNL     1       5.757   4.507  19.875  0.00  0.00    +0.000 C 
BRANCH  17  24
ATOM     18  C   UNL     1       6.673   4.520  13.931  0.00  0.00    +0.000 A 
ATOM     19  N   UNL     1       7.174   5.529  14.570  0.00  0.00    +0.000 NA
ATOM     20  N   UNL     1       6.900   5.386  15.908  0.00  0.00    +0.000 N 
ATOM     21  C   UNL     1       7.318   6.313  16.831  0.00  0.00    +0.000 A 
ATOM     22  O   UNL     1       7.967   7.331  16.614  0.00  0.00    +0.000 OA
ATOM     23  C   UNL     1       6.907   5.988  18.211  0.00  0.00    +0.000 A 
ATOM     24  C   UNL     1       6.198   4.872  18.463  0.00  0.00    +0.000 A 
ATOM     25  N   UNL     1       5.819   3.976  17.478  0.00  0.00    +0.000 NA
ATOM     26  C   UNL     1       6.186   4.278  16.277  0.00  0.00    +0.000 A 
ATOM     27  S   UNL     1       5.832   3.316  14.876  0.00  0.00    +0.000 S 
BRANCH  18  28
ATOM     28  C   UNL     1       6.777   4.360  12.444  0.00  0.00    +0.000 C 
BRANCH  28  30
ATOM     29  C   UNL     1       4.679   3.381  11.448  0.00  0.00    +0.000 C 
ATOM     30  C   UNL     1       6.063   3.085  11.999  0.00  0.00    +0.000 C 
ENDBRANCH  28  30
ENDBRANCH  18  28
ENDBRANCH  17  24
ENDBRANCH   1  17
TORSDOF 7
ENDMDL
MODEL 5
REMARK VINA RESULT:      -7.3      2.424      3.370
REMARK  Name = 
REMARK  8 active torsions:
REMARK  status: ('A' for Active; 'I' for Inactive)
REMARK    1  A    between atoms: C_1  and  C_2
REMARK    2  A    between atoms: C_2  and  C_3
REMARK    3  A    between atoms: C_3  and  C_4
REMARK    4  A    between atoms: C_10  and  C_11
REMARK    5  A    between atoms: C_11  and  O_12
REMARK    6  A    between atoms: O_12  and  C_13
REMARK    7  A    between atoms: C_17  and  N_18
REMARK    8  A    between atoms: C_19  and  C_21
REMARK                            x       y       z     vdW  Elec       q    Type
REMARK                         _______ _______ _______ _____ _____    ______ ____
ROOT
ATOM      1  O   UNL     1       3.057   5.683  20.279  0.00  0.00    +0.000 OA
ENDROOT
BRANCH   1   2
ATOM      2  C   UNL     1       3.318   4.697  19.373  0.00  0.00    +0.000 A 
ATOM      3  C   UNL     1       2.787   3.454  19.723  0.00  0.00    +0.000 A 
ATOM      4  C   UNL     1       2.967   2.353  18.893  0.00  0.00    +0.000 A 
ATOM      5  C   UNL     1       3.671   2.495  17.700  0.00  0.00    +0.000 A 
ATOM      6  C   UNL     1       4.203   3.732  17.328  0.00  0.00    +0.000 A 
ATOM      7  C   UNL     1       4.039   4.832  18.184  0.00  0.00    +0.000 A 
BRANCH   6   8
ATOM      8  N   UNL     1       4.913   3.929  16.126  0.00  0.00    +0.000 N 
ATOM      9  C   UNL     1       6.227   4.352  15.999  0.00  0.00    +0.000 C 
ATOM     10  O   UNL     1       6.992   4.578  16.930  0.00  0.00    +0.000 OA
ATOM     11  H   UNL     1       4.457   3.674  15.258  0.00  0.00    +0.000 HD
BRANCH   9  12
ATOM     12  C   UNL     1       6.659   4.472  14.620  0.00  0.00    +0.000 A 
ATOM     13  C   UNL     1       6.230   3.807  13.487  0.00  0.00    +0.000 A 
ATOM     14  C   UNL     1       6.987   4.316  12.406  0.00  0.00    +0.000 A 
ATOM     15  C   UNL     1       7.835   5.256  12.943  0.00  0.00    +0.000 A 
ATOM     16  O   UNL     1       7.645   5.363  14.284  0.00  0.00    +0.000 OA
ENDBRANCH   9  12
ENDBRANCH   6   8
ENDBRANCH   1   2
BRANCH   1  17
ATOM     17  C   UNL     1       1.697   5.971  20.596  0.00  0.00    +0.000 C 
BRANCH  17  24
ATOM     18  C   UNL     1       1.269  11.747  18.972  0.00  0.00    +0.000 A 
ATOM     19  N   UNL     1       0.938  11.490  20.197  0.00  0.00    +0.000 NA
ATOM     20  N   UNL     1       1.097  10.146  20.427  0.00  0.00    +0.000 N 
ATOM     21  C   UNL     1       0.822   9.589  21.653  0.00  0.00    +0.000 A 
ATOM     22  O   UNL     1       0.435  10.171  22.660  0.00  0.00    +0.000 OA
ATOM     23  C   UNL     1       1.037   8.128  21.690  0.00  0.00    +0.000 A 
ATOM     24  C   UNL     1       1.466   7.477  20.592  0.00  0.00    +0.000 A 
ATOM     25  N   UNL     1       1.732   8.110  19.391  0.00  0.00    +0.000 NA
ATOM     26  C   UNL     1       1.536   9.387  19.377  0.00  0.00    +0.000 A 
ATOM     27  S   UNL     1       1.797  10.401  17.991  0.00  0.00    +0.000 S 
BRANCH  18  28
ATOM     28  C   UNL     1       1.205  13.121  18.377  0.00  0.00    +0.000 C 
BRANCH  28  30
ATOM     29  C   UNL     1       2.993  14.544  19.441  0.00  0.00    +0.000 C 
ATOM     30  C   UNL     1       2.611  13.701  18.236  0.00  0.00    +0.000 C 
ENDBRANCH  28  30
ENDBRANCH  18  28
ENDBRANCH  17  24
ENDBRANCH   1  17
TORSDOF 7
ENDMDL
MODEL 6
REMARK VINA RESULT:      -7.3      1.855      3.157
REMARK  Name = 
REMARK  8 active torsions:
REMARK  status: ('A' for Active; 'I' for Inactive)
REMARK    1  A    between atoms: C_1  and  C_2
REMARK    2  A    between atoms: C_2  and  C_3
REMARK    3  A    between atoms: C_3  and  C_4
REMARK    4  A    between atoms: C_10  and  C_11
REMARK    5  A    between atoms: C_11  and  O_12
REMARK    6  A    between atoms: O_12  and  C_13
REMARK    7  A    between atoms: C_17  and  N_18
REMARK    8  A    between atoms: C_19  and  C_21
REMARK                            x       y       z     vdW  Elec       q    Type
REMARK                         _______ _______ _______ _____ _____    ______ ____
ROOT
ATOM      1  O   UNL     1       1.328   5.393  20.608  0.00  0.00    +0.000 OA
ENDROOT
BRANCH   1   2
ATOM      2  C   UNL     1       1.664   4.473  19.659  0.00  0.00    +0.000 A 
ATOM      3  C   UNL     1       0.939   3.283  19.744  0.00  0.00    +0.000 A 
ATOM      4  C   UNL     1       1.168   2.252  18.839  0.00  0.00    +0.000 A 
ATOM      5  C   UNL     1       2.118   2.414  17.833  0.00  0.00    +0.000 A 
ATOM      6  C   UNL     1       2.848   3.601  17.726  0.00  0.00    +0.000 A 
ATOM      7  C   UNL     1       2.629   4.626  18.659  0.00  0.00    +0.000 A 
BRANCH   6   8
ATOM      8  N   UNL     1       3.811   3.818  16.720  0.00  0.00    +0.000 N 
ATOM      9  C   UNL     1       5.150   4.128  16.906  0.00  0.00    +0.000 C 
ATOM     10  O   UNL     1       5.712   4.217  17.993  0.00  0.00    +0.000 OA
ATOM     11  H   UNL     1       3.535   3.667  15.757  0.00  0.00    +0.000 HD
BRANCH   9  12
ATOM     12  C   UNL     1       5.875   4.306  15.663  0.00  0.00    +0.000 A 
ATOM     13  C   UNL     1       7.050   4.985  15.402  0.00  0.00    +0.000 A 
ATOM     14  C   UNL     1       7.310   4.833  14.021  0.00  0.00    +0.000 A 
ATOM     15  C   UNL     1       6.277   4.075  13.519  0.00  0.00    +0.000 A 
ATOM     16  O   UNL     1       5.401   3.747  14.505  0.00  0.00    +0.000 OA
ENDBRANCH   9  12
ENDBRANCH   6   8
ENDBRANCH   1   2
BRANCH   1  17
ATOM     17  C   UNL     1       2.231   6.467  20.862  0.00  0.00    +0.000 C 
BRANCH  17  24
ATOM     18  C   UNL     1      -0.933  11.540  21.518  0.00  0.00    +0.000 A 
ATOM     19  N   UNL     1      -0.410  11.361  20.347  0.00  0.00    +0.000 NA
ATOM     20  N   UNL     1       0.266  10.166  20.341  0.00  0.00    +0.000 N 
ATOM     21  C   UNL     1       0.919   9.715  19.220  0.00  0.00    +0.000 A 
ATOM     22  O   UNL     1       0.980  10.268  18.127  0.00  0.00    +0.000 OA
ATOM     23  C   UNL     1       1.601   8.421  19.423  0.00  0.00    +0.000 A 
ATOM     24  C   UNL     1       1.539   7.802  20.617  0.00  0.00    +0.000 A 
ATOM     25  N   UNL     1       0.850   8.316  21.703  0.00  0.00    +0.000 NA
ATOM     26  C   UNL     1       0.263   9.449  21.506  0.00  0.00    +0.000 A 
ATOM     27  S   UNL     1      -0.660  10.294  22.711  0.00  0.00    +0.000 S 
BRANCH  18  28
ATOM     28  C   UNL     1      -1.734  12.754  21.880  0.00  0.00    +0.000 C 
BRANCH  28  30
ATOM     29  C   UNL     1      -3.670  12.655  23.490  0.00  0.00    +0.000 C 
ATOM     30  C   UNL     1      -2.159  12.688  23.345  0.00  0.00    +0.000 C 
ENDBRANCH  28  30
ENDBRANCH  18  28
ENDBRANCH  17  24
ENDBRANCH   1  17
TORSDOF 7
ENDMDL
MODEL 7
REMARK VINA RESULT:      -7.3      2.446      3.793
REMARK  Name = 
REMARK  8 active torsions:
REMARK  status: ('A' for Active; 'I' for Inactive)
REMARK    1  A    between atoms: C_1  and  C_2
REMARK    2  A    between atoms: C_2  and  C_3
REMARK    3  A    between atoms: C_3  and  C_4
REMARK    4  A    between atoms: C_10  and  C_11
REMARK    5  A    between atoms: C_11  and  O_12
REMARK    6  A    between atoms: O_12  and  C_13
REMARK    7  A    between atoms: C_17  and  N_18
REMARK    8  A    between atoms: C_19  and  C_21
REMARK                            x       y       z     vdW  Elec       q    Type
REMARK                         _______ _______ _______ _____ _____    ______ ____
ROOT
ATOM      1  O   UNL     1       1.515   6.133  20.539  0.00  0.00    +0.000 OA
ENDROOT
BRANCH   1   2
ATOM      2  C   UNL     1       1.811   5.080  19.725  0.00  0.00    +0.000 A 
ATOM      3  C   UNL     1       1.055   3.935  19.985  0.00  0.00    +0.000 A 
ATOM      4  C   UNL     1       1.242   2.781  19.231  0.00  0.00    +0.000 A 
ATOM      5  C   UNL     1       2.180   2.773  18.201  0.00  0.00    +0.000 A 
ATOM      6  C   UNL     1       2.940   3.911  17.920  0.00  0.00    +0.000 A 
ATOM      7  C   UNL     1       2.764   5.063  18.703  0.00  0.00    +0.000 A 
BRANCH   6   8
ATOM      8  N   UNL     1       3.894   3.957  16.883  0.00  0.00    +0.000 N 
ATOM      9  C   UNL     1       4.627   5.062  16.478  0.00  0.00    +0.000 C 
ATOM     10  O   UNL     1       4.584   6.171  17.000  0.00  0.00    +0.000 OA
ATOM     11  H   UNL     1       4.135   3.088  16.421  0.00  0.00    +0.000 HD
BRANCH   9  12
ATOM     12  C   UNL     1       5.516   4.784  15.367  0.00  0.00    +0.000 A 
ATOM     13  C   UNL     1       5.409   3.861  14.344  0.00  0.00    +0.000 A 
ATOM     14  C   UNL     1       6.554   4.020  13.530  0.00  0.00    +0.000 A 
ATOM     15  C   UNL     1       7.294   5.026  14.105  0.00  0.00    +0.000 A 
ATOM     16  O   UNL     1       6.676   5.500  15.219  0.00  0.00    +0.000 OA
ENDBRANCH   9  12
ENDBRANCH   6   8
ENDBRANCH   1   2
BRANCH   1  17
ATOM     17  C   UNL     1       2.103   7.400  20.251  0.00  0.00    +0.000 C 
BRANCH  17  24
ATOM     18  C   UNL     1      -1.651  12.087  20.599  0.00  0.00    +0.000 A 
ATOM     19  N   UNL     1      -1.279  11.590  21.735  0.00  0.00    +0.000 NA
ATOM     20  N   UNL     1      -0.421  10.544  21.502  0.00  0.00    +0.000 N 
ATOM     21  C   UNL     1       0.138   9.828  22.534  0.00  0.00    +0.000 A 
ATOM     22  O   UNL     1      -0.025  10.013  23.735  0.00  0.00    +0.000 OA
ATOM     23  C   UNL     1       1.016   8.733  22.075  0.00  0.00    +0.000 A 
ATOM     24  C   UNL     1       1.205   8.521  20.759  0.00  0.00    +0.000 A 
ATOM     25  N   UNL     1       0.613   9.293  19.774  0.00  0.00    +0.000 NA
ATOM     26  C   UNL     1      -0.152  10.244  20.194  0.00  0.00    +0.000 A 
ATOM     27  S   UNL     1      -1.005  11.344  19.155  0.00  0.00    +0.000 S 
BRANCH  18  28
ATOM     28  C   UNL     1      -2.601  13.240  20.481  0.00  0.00    +0.000 C 
BRANCH  28  30
ATOM     29  C   UNL     1      -4.038  13.853  22.458  0.00  0.00    +0.000 C 
ATOM     30  C   UNL     1      -3.887  12.945  21.250  0.00  0.00    +0.000 C 
ENDBRANCH  28  30
ENDBRANCH  18  28
ENDBRANCH  17  24
ENDBRANCH   1  17
TORSDOF 7
ENDMDL
MODEL 8
REMARK VINA RESULT:      -7.3      1.678      2.475
REMARK  Name = 
REMARK  8 active torsions:
REMARK  status: ('A' for Active; 'I' for Inactive)
REMARK    1  A    between atoms: C_1  and  C_2
REMARK    2  A    between atoms: C_2  and  C_3
REMARK    3  A    between atoms: C_3  and  C_4
REMARK    4  A    between atoms: C_10  and  C_11
REMARK    5  A    between atoms: C_11  and  O_12
REMARK    6  A    between atoms: O_12  and  C_13
REMARK    7  A    between atoms: C_17  and  N_18
REMARK    8  A    between atoms: C_19  and  C_21
REMARK                            x       y       z     vdW  Elec       q    Type
REMARK                         _______ _______ _______ _____ _____    ______ ____
ROOT
ATOM      1  O   UNL     1       2.449   6.884  19.330  0.00  0.00    +0.000 OA
ENDROOT
BRANCH   1   2
ATOM      2  C   UNL     1       3.158   5.796  18.915  0.00  0.00    +0.000 A 
ATOM      3  C   UNL     1       3.289   4.803  19.888  0.00  0.00    +0.000 A 
ATOM      4  C   UNL     1       3.983   3.631  19.608  0.00  0.00    +0.000 A 
ATOM      5  C   UNL     1       4.539   3.441  18.345  0.00  0.00    +0.000 A 
ATOM      6  C   UNL     1       4.412   4.419  17.356  0.00  0.00    +0.000 A 
ATOM      7  C   UNL     1       3.733   5.610  17.655  0.00  0.00    +0.000 A 
BRANCH   6   8
ATOM      8  N   UNL     1       4.946   4.271  16.060  0.00  0.00    +0.000 N 
ATOM      9  C   UNL     1       6.119   4.831  15.577  0.00  0.00    +0.000 C 
ATOM     10  O   UNL     1       6.899   5.515  16.230  0.00  0.00    +0.000 OA
ATOM     11  H   UNL     1       4.479   3.636  15.423  0.00  0.00    +0.000 HD
BRANCH   9  12
ATOM     12  C   UNL     1       6.384   4.498  14.190  0.00  0.00    +0.000 A 
ATOM     13  C   UNL     1       7.432   4.865  13.367  0.00  0.00    +0.000 A 
ATOM     14  C   UNL     1       7.196   4.257  12.113  0.00  0.00    +0.000 A 
ATOM     15  C   UNL     1       6.018   3.558  12.243  0.00  0.00    +0.000 A 
ATOM     16  O   UNL     1       5.516   3.695  13.498  0.00  0.00    +0.000 OA
ENDBRANCH   9  12
ENDBRANCH   6   8
ENDBRANCH   1   2
BRANCH   1  17
ATOM     17  C   UNL     1       2.349   8.005  18.453  0.00  0.00    +0.000 C 
BRANCH  17  24
ATOM     18  C   UNL     1      -1.139  11.284  22.093  0.00  0.00    +0.000 A 
ATOM     19  N   UNL     1      -1.220  11.579  20.835  0.00  0.00    +0.000 NA
ATOM     20  N   UNL     1      -0.386  10.748  20.130  0.00  0.00    +0.000 N 
ATOM     21  C   UNL     1      -0.272  10.833  18.763  0.00  0.00    +0.000 A 
ATOM     22  O   UNL     1      -0.868  11.603  18.019  0.00  0.00    +0.000 OA
ATOM     23  C   UNL     1       0.690   9.866  18.197  0.00  0.00    +0.000 A 
ATOM     24  C   UNL     1       1.350   9.014  19.003  0.00  0.00    +0.000 A 
ATOM     25  N   UNL     1       1.174   8.980  20.376  0.00  0.00    +0.000 NA
ATOM     26  C   UNL     1       0.331   9.833  20.853  0.00  0.00    +0.000 A 
ATOM     27  S   UNL     1      -0.058   9.986  22.539  0.00  0.00    +0.000 S 
BRANCH  18  28
ATOM     28  C   UNL     1      -1.913  12.005  23.155  0.00  0.00    +0.000 C 
BRANCH  28  30
ATOM     29  C   UNL     1      -2.513  14.452  23.212  0.00  0.00    +0.000 C 
ATOM     30  C   UNL     1      -1.392  13.432  23.309  0.00  0.00    +0.000 C 
ENDBRANCH  28  30
ENDBRANCH  18  28
ENDBRANCH  17  24
ENDBRANCH   1  17
TORSDOF 7
ENDMDL
MODEL 9
REMARK VINA RESULT:      -7.3      3.714      5.506
REMARK  Name = 
REMARK  8 active torsions:
REMARK  status: ('A' for Active; 'I' for Inactive)
REMARK    1  A    between atoms: C_1  and  C_2
REMARK    2  A    between atoms: C_2  and  C_3
REMARK    3  A    between atoms: C_3  and  C_4
REMARK    4  A    between atoms: C_10  and  C_11
REMARK    5  A    between atoms: C_11  and  O_12
REMARK    6  A    between atoms: O_12  and  C_13
REMARK    7  A    between atoms: C_17  and  N_18
REMARK    8  A    between atoms: C_19  and  C_21
REMARK                            x       y       z     vdW  Elec       q    Type
REMARK                         _______ _______ _______ _____ _____    ______ ____
ROOT
ATOM      1  O   UNL     1       1.009  10.062  18.251  0.00  0.00    +0.000 OA
ENDROOT
BRANCH   1   2
ATOM      2  C   UNL     1       1.649   8.900  18.563  0.00  0.00    +0.000 A 
ATOM      3  C   UNL     1       1.434   8.471  19.874  0.00  0.00    +0.000 A 
ATOM      4  C   UNL     1       2.019   7.297  20.336  0.00  0.00    +0.000 A 
ATOM      5  C   UNL     1       2.814   6.538  19.480  0.00  0.00    +0.000 A 
ATOM      6  C   UNL     1       3.034   6.945  18.162  0.00  0.00    +0.000 A 
ATOM      7  C   UNL     1       2.461   8.145  17.712  0.00  0.00    +0.000 A 
BRANCH   6   8
ATOM      8  N   UNL     1       3.821   6.208  17.254  0.00  0.00    +0.000 N 
ATOM      9  C   UNL     1       5.144   6.446  16.918  0.00  0.00    +0.000 C 
ATOM     10  O   UNL     1       5.851   7.323  17.403  0.00  0.00    +0.000 OA
ATOM     11  H   UNL     1       3.418   5.370  16.849  0.00  0.00    +0.000 HD
BRANCH   9  12
ATOM     12  C   UNL     1       5.664   5.513  15.938  0.00  0.00    +0.000 A 
ATOM     13  C   UNL     1       5.254   4.233  15.615  0.00  0.00    +0.000 A 
ATOM     14  C   UNL     1       6.108   3.780  14.583  0.00  0.00    +0.000 A 
ATOM     15  C   UNL     1       6.990   4.807  14.340  0.00  0.00    +0.000 A 
ATOM     16  O   UNL     1       6.731   5.864  15.153  0.00  0.00    +0.000 OA
ENDBRANCH   9  12
ENDBRANCH   6   8
ENDBRANCH   1   2
BRANCH   1  17
ATOM     17  C   UNL     1       0.920  11.078  19.249  0.00  0.00    +0.000 C 
BRANCH  17  24
ATOM     18  C   UNL     1      -5.005  11.839  18.552  0.00  0.00    +0.000 A 
ATOM     19  N   UNL     1      -4.475  12.493  19.536  0.00  0.00    +0.000 NA
ATOM     20  N   UNL     1      -3.127  12.235  19.565  0.00  0.00    +0.000 N 
ATOM     21  C   UNL     1      -2.306  12.803  20.509  0.00  0.00    +0.000 A 
ATOM     22  O   UNL     1      -2.630  13.583  21.397  0.00  0.00    +0.000 OA
ATOM     23  C   UNL     1      -0.895  12.384  20.381  0.00  0.00    +0.000 A 
ATOM     24  C   UNL     1      -0.526  11.531  19.408  0.00  0.00    +0.000 A 
ATOM     25  N   UNL     1      -1.412  11.006  18.483  0.00  0.00    +0.000 NA
ATOM     26  C   UNL     1      -2.641  11.381  18.612  0.00  0.00    +0.000 A 
ATOM     27  S   UNL     1      -3.936  10.861  17.578  0.00  0.00    +0.000 S 
BRANCH  18  28
ATOM     28  C   UNL     1      -6.470  11.883  18.235  0.00  0.00    +0.000 C 
BRANCH  28  30
ATOM     29  C   UNL     1      -7.365  10.640  20.236  0.00  0.00    +0.000 C 
ATOM     30  C   UNL     1      -7.286  11.979  19.523  0.00  0.00    +0.000 C 
ENDBRANCH  28  30
ENDBRANCH  18  28
ENDBRANCH  17  24
ENDBRANCH   1  17
TORSDOF 7
ENDMDL
