MODEL 1
REMARK VINA RESULT:      -8.7      0.000      0.000
REMARK  Name = 
REMARK  6 active torsions:
REMARK  status: ('A' for Active; 'I' for Inactive)
REMARK    1  A    between atoms: C_1  and  C_2
REMARK    2  A    between atoms: C_9  and  S_10
REMARK    3  A    between atoms: S_10  and  C_13
REMARK    4  A    between atoms: C_13  and  C_14
REMARK    5  A    between atoms: C_14  and  C_15
REMARK    6  A    between atoms: N_17  and  C_18
REMARK                            x       y       z     vdW  Elec       q    Type
REMARK                         _______ _______ _______ _____ _____    ______ ____
ROOT
ATOM      1  C   UNL     1       1.193   4.520  20.201  0.00  0.00    +0.000 C 
ENDROOT
BRANCH   1   2
ATOM      2  S   UNL     1       2.186   3.079  19.947  0.00  0.00    +0.000 S 
ATOM      3  O   UNL     1       1.373   2.081  19.281  0.00  0.00    +0.000 OA
ATOM      4  O   UNL     1       2.855   2.771  21.195  0.00  0.00    +0.000 OA
BRANCH   2  13
ATOM      5  C   UNL     1       5.965   4.238  13.936  0.00  0.00    +0.000 C 
ATOM      6  C   UNL     1       6.897   4.849  14.943  0.00  0.00    +0.000 C 
ATOM      7  O   UNL     1       7.943   5.376  14.549  0.00  0.00    +0.000 OA
ATOM      8  N   UNL     1       6.550   4.851  16.279  0.00  0.00    +0.000 N 
ATOM      9  C   UNL     1       7.379   5.620  17.222  0.00  0.00    +0.000 C 
ATOM     10  C   UNL     1       6.808   5.401  18.623  0.00  0.00    +0.000 C 
ATOM     11  C   UNL     1       5.524   4.688  18.325  0.00  0.00    +0.000 A 
ATOM     12  C   UNL     1       4.540   4.336  19.244  0.00  0.00    +0.000 A 
ATOM     13  C   UNL     1       3.443   3.599  18.788  0.00  0.00    +0.000 A 
ATOM     14  C   UNL     1       3.374   3.186  17.449  0.00  0.00    +0.000 A 
ATOM     15  C   UNL     1       4.375   3.560  16.536  0.00  0.00    +0.000 A 
ATOM     16  C   UNL     1       5.442   4.330  16.973  0.00  0.00    +0.000 A 
ENDBRANCH   2  13
ENDBRANCH   1   2
BRANCH   1  17
ATOM     17  C   UNL     1       1.852   5.550  21.125  0.00  0.00    +0.000 C 
BRANCH  17  18
ATOM     18  C   UNL     1       1.853   6.885  20.409  0.00  0.00    +0.000 C 
ATOM     19  O   UNL     1       2.513   7.020  19.381  0.00  0.00    +0.000 OA
ATOM     20  N   UNL     1       1.097   7.885  21.009  0.00  0.00    +0.000 N 
ATOM     21  H   UNL     1       0.747   7.728  21.946  0.00  0.00    +0.000 HD
BRANCH  20  22
ATOM     22  C   UNL     1       0.911   9.182  20.461  0.00  0.00    +0.000 A 
ATOM     23  C   UNL     1       0.697   9.388  19.090  0.00  0.00    +0.000 A 
ATOM     24  C   UNL     1       0.522  10.660  18.561  0.00  0.00    +0.000 A 
ATOM     25  C   UNL     1       0.555  11.768  19.397  0.00  0.00    +0.000 A 
ATOM     26  C   UNL     1       0.747  11.588  20.773  0.00  0.00    +0.000 A 
ATOM     27  C   UNL     1       0.921  10.303  21.306  0.00  0.00    +0.000 A 
ATOM     28  O   UNL     1       0.793  12.641  21.651  0.00  0.00    +0.000 OA
ATOM     29  C   UNL     1       0.255  13.839  21.070  0.00  0.00    +0.000 C 
ATOM     30  C   UNL     1       0.775  14.053  19.658  0.00  0.00    +0.000 C 
ATOM     31  O   UNL     1       0.377  12.979  18.799  0.00  0.00    +0.000 OA
ENDBRANCH  20  22
ENDBRANCH  17  18
ENDBRANCH   1  17
TORSDOF 5
ENDMDL
MODEL 2
REMARK VINA RESULT:      -8.6      4.953      7.522
REMARK  Name = 
REMARK  6 active torsions:
REMARK  status: ('A' for Active; 'I' for Inactive)
REMARK    1  A    between atoms: C_1  and  C_2
REMARK    2  A    between atoms: C_9  and  S_10
REMARK    3  A    between atoms: S_10  and  C_13
REMARK    4  A    between atoms: C_13  and  C_14
REMARK    5  A    between atoms: C_14  and  C_15
REMARK    6  A    between atoms: N_17  and  C_18
REMARK                            x       y       z     vdW  Elec       q    Type
REMARK                         _______ _______ _______ _____ _____    ______ ____
ROOT
ATOM      1  C   UNL     1       6.488   5.854  17.259  0.00  0.00    +0.000 C 
ENDROOT
BRANCH   1   2
ATOM      2  S   UNL     1       5.208   4.875  17.986  0.00  0.00    +0.000 S 
ATOM      3  O   UNL     1       5.744   4.235  19.171  0.00  0.00    +0.000 OA
ATOM      4  O   UNL     1       4.597   4.084  16.935  0.00  0.00    +0.000 OA
BRANCH   2  13
ATOM      5  C   UNL     1       0.226   8.378  21.816  0.00  0.00    +0.000 C 
ATOM      6  C   UNL     1       0.257   9.243  20.589  0.00  0.00    +0.000 C 
ATOM      7  O   UNL     1      -0.460  10.248  20.546  0.00  0.00    +0.000 OA
ATOM      8  N   UNL     1       1.114   8.928  19.554  0.00  0.00    +0.000 N 
ATOM      9  C   UNL     1       1.270   9.887  18.449  0.00  0.00    +0.000 C 
ATOM     10  C   UNL     1       2.220   9.264  17.427  0.00  0.00    +0.000 C 
ATOM     11  C   UNL     1       2.722   8.061  18.165  0.00  0.00    +0.000 A 
ATOM     12  C   UNL     1       3.709   7.179  17.736  0.00  0.00    +0.000 A 
ATOM     13  C   UNL     1       3.988   6.062  18.530  0.00  0.00    +0.000 A 
ATOM     14  C   UNL     1       3.249   5.821  19.698  0.00  0.00    +0.000 A 
ATOM     15  C   UNL     1       2.263   6.730  20.117  0.00  0.00    +0.000 A 
ATOM     16  C   UNL     1       2.014   7.863  19.358  0.00  0.00    +0.000 A 
ENDBRANCH   2  13
ENDBRANCH   1   2
BRANCH   1  17
ATOM     17  C   UNL     1       7.559   6.289  18.266  0.00  0.00    +0.000 C 
BRANCH  17  18
ATOM     18  C   UNL     1       7.833   7.763  18.047  0.00  0.00    +0.000 C 
ATOM     19  O   UNL     1       7.330   8.335  17.082  0.00  0.00    +0.000 OA
ATOM     20  N   UNL     1       8.676   8.358  18.977  0.00  0.00    +0.000 N 
ATOM     21  H   UNL     1       9.183   7.762  19.620  0.00  0.00    +0.000 HD
BRANCH  20  22
ATOM     22  C   UNL     1       9.000   9.741  18.991  0.00  0.00    +0.000 A 
ATOM     23  C   UNL     1       8.963  10.526  17.830  0.00  0.00    +0.000 A 
ATOM     24  C   UNL     1       9.288  11.876  17.850  0.00  0.00    +0.000 A 
ATOM     25  C   UNL     1       9.659  12.481  19.044  0.00  0.00    +0.000 A 
ATOM     26  C   UNL     1       9.685  11.724  20.222  0.00  0.00    +0.000 A 
ATOM     27  C   UNL     1       9.354  10.361  20.200  0.00  0.00    +0.000 A 
ATOM     28  O   UNL     1      10.046  12.261  21.431  0.00  0.00    +0.000 OA
ATOM     29  C   UNL     1      10.009  13.695  21.406  0.00  0.00    +0.000 C 
ATOM     30  C   UNL     1      10.661  14.245  20.147  0.00  0.00    +0.000 C 
ATOM     31  O   UNL     1       9.963  13.808  18.977  0.00  0.00    +0.000 OA
ENDBRANCH  20  22
ENDBRANCH  17  18
ENDBRANCH   1  17
TORSDOF 5
ENDMDL
MODEL 3
REMARK VINA RESULT:      -8.6      5.210      7.451
REMARK  Name = 
REMARK  6 active torsions:
REMARK  status: ('A' for Active; 'I' for Inactive)
REMARK    1  A    between atoms: C_1  and  C_2
REMARK    2  A    between atoms: C_9  and  S_10
REMARK    3  A    between atoms: S_10  and  C_13
REMARK    4  A    between atoms: C_13  and  C_14
REMARK    5  A    between atoms: C_14  and  C_15
REMARK    6  A    between atoms: N_17  and  C_18
REMARK                            x       y       z     vdW  Elec       q    Type
REMARK                         _______ _______ _______ _____ _____    ______ ____
ROOT
ATOM      1  C   UNL     1       7.234   6.892  16.814  0.00  0.00    +0.000 C 
ENDROOT
BRANCH   1   2
ATOM      2  S   UNL     1       7.075   5.164  16.473  0.00  0.00    +0.000 S 
ATOM      3  O   UNL     1       8.228   4.485  17.031  0.00  0.00    +0.000 OA
ATOM      4  O   UNL     1       6.739   5.014  15.070  0.00  0.00    +0.000 OA
BRANCH   2  13
ATOM      5  C   UNL     1       2.105   4.463  21.626  0.00  0.00    +0.000 C 
ATOM      6  C   UNL     1       1.605   3.436  20.651  0.00  0.00    +0.000 C 
ATOM      7  O   UNL     1       0.567   2.818  20.911  0.00  0.00    +0.000 OA
ATOM      8  N   UNL     1       2.285   3.233  19.467  0.00  0.00    +0.000 N 
ATOM      9  C   UNL     1       1.678   2.367  18.444  0.00  0.00    +0.000 C 
ATOM     10  C   UNL     1       2.660   2.272  17.276  0.00  0.00    +0.000 C 
ATOM     11  C   UNL     1       3.677   3.310  17.644  0.00  0.00    +0.000 A 
ATOM     12  C   UNL     1       4.755   3.723  16.867  0.00  0.00    +0.000 A 
ATOM     13  C   UNL     1       5.647   4.649  17.416  0.00  0.00    +0.000 A 
ATOM     14  C   UNL     1       5.479   5.101  18.734  0.00  0.00    +0.000 A 
ATOM     15  C   UNL     1       4.378   4.676  19.497  0.00  0.00    +0.000 A 
ATOM     16  C   UNL     1       3.465   3.793  18.941  0.00  0.00    +0.000 A 
ENDBRANCH   2  13
ENDBRANCH   1   2
BRANCH   1  17
ATOM     17  C   UNL     1       7.999   7.183  18.110  0.00  0.00    +0.000 C 
BRANCH  17  18
ATOM     18  C   UNL     1       8.198   8.682  18.207  0.00  0.00    +0.000 C 
ATOM     19  O   UNL     1       7.505   9.431  17.522  0.00  0.00    +0.000 OA
ATOM     20  N   UNL     1       9.198   9.096  19.078  0.00  0.00    +0.000 N 
ATOM     21  H   UNL     1       9.833   8.400  19.450  0.00  0.00    +0.000 HD
BRANCH  20  22
ATOM     22  C   UNL     1       9.495  10.455  19.365  0.00  0.00    +0.000 A 
ATOM     23  C   UNL     1      10.061  11.312  18.410  0.00  0.00    +0.000 A 
ATOM     24  C   UNL     1      10.353  12.638  18.700  0.00  0.00    +0.000 A 
ATOM     25  C   UNL     1      10.083  13.146  19.964  0.00  0.00    +0.000 A 
ATOM     26  C   UNL     1       9.499  12.317  20.930  0.00  0.00    +0.000 A 
ATOM     27  C   UNL     1       9.202  10.978  20.634  0.00  0.00    +0.000 A 
ATOM     28  O   UNL     1       9.211  12.757  22.197  0.00  0.00    +0.000 OA
ATOM     29  C   UNL     1       9.216  14.190  22.274  0.00  0.00    +0.000 C 
ATOM     30  C   UNL     1      10.422  14.780  21.561  0.00  0.00    +0.000 C 
ATOM     31  O   UNL     1      10.402  14.455  20.167  0.00  0.00    +0.000 OA
ENDBRANCH  20  22
ENDBRANCH  17  18
ENDBRANCH   1  17
TORSDOF 5
ENDMDL
MODEL 4
REMARK VINA RESULT:      -8.5      5.014      7.870
REMARK  Name = 
REMARK  6 active torsions:
REMARK  status: ('A' for Active; 'I' for Inactive)
REMARK    1  A    between atoms: C_1  and  C_2
REMARK    2  A    between atoms: C_9  and  S_10
REMARK    3  A    between atoms: S_10  and  C_13
REMARK    4  A    between atoms: C_13  and  C_14
REMARK    5  A    between atoms: C_14  and  C_15
REMARK    6  A    between atoms: N_17  and  C_18
REMARK                            x       y       z     vdW  Elec       q    Type
REMARK                         _______ _______ _______ _____ _____    ______ ____
ROOT
ATOM      1  C   UNL     1       6.465   6.418  17.041  0.00  0.00    +0.000 C 
ENDROOT
BRANCH   1   2
ATOM      2  S   UNL     1       5.210   5.334  17.655  0.00  0.00    +0.000 S 
ATOM      3  O   UNL     1       5.762   4.584  18.765  0.00  0.00    +0.000 OA
ATOM      4  O   UNL     1       4.619   4.647  16.523  0.00  0.00    +0.000 OA
BRANCH   2  13
ATOM      5  C   UNL     1       0.202   8.320  21.870  0.00  0.00    +0.000 C 
ATOM      6  C   UNL     1       0.167   9.280  20.716  0.00  0.00    +0.000 C 
ATOM      7  O   UNL     1      -0.589  10.256  20.772  0.00  0.00    +0.000 OA
ATOM      8  N   UNL     1       1.007   9.082  19.640  0.00  0.00    +0.000 N 
ATOM      9  C   UNL     1       1.097  10.132  18.612  0.00  0.00    +0.000 C 
ATOM     10  C   UNL     1       2.043   9.631  17.521  0.00  0.00    +0.000 C 
ATOM     11  C   UNL     1       2.610   8.394  18.148  0.00  0.00    +0.000 A 
ATOM     12  C   UNL     1       3.618   7.589  17.626  0.00  0.00    +0.000 A 
ATOM     13  C   UNL     1       3.960   6.425  18.321  0.00  0.00    +0.000 A 
ATOM     14  C   UNL     1       3.262   6.062  19.483  0.00  0.00    +0.000 A 
ATOM     15  C   UNL     1       2.254   6.895  19.997  0.00  0.00    +0.000 A 
ATOM     16  C   UNL     1       1.942   8.074  19.337  0.00  0.00    +0.000 A 
ENDBRANCH   2  13
ENDBRANCH   1   2
BRANCH   1  17
ATOM     17  C   UNL     1       7.577   6.691  18.060  0.00  0.00    +0.000 C 
BRANCH  17  18
ATOM     18  C   UNL     1       7.867   8.177  18.047  0.00  0.00    +0.000 C 
ATOM     19  O   UNL     1       7.260   8.906  17.265  0.00  0.00    +0.000 OA
ATOM     20  N   UNL     1       8.846   8.603  18.937  0.00  0.00    +0.000 N 
ATOM     21  H   UNL     1       9.414   7.904  19.400  0.00  0.00    +0.000 HD
BRANCH  20  22
ATOM     22  C   UNL     1       9.214   9.961  19.130  0.00  0.00    +0.000 A 
ATOM     23  C   UNL     1       9.208  10.563  20.396  0.00  0.00    +0.000 A 
ATOM     24  C   UNL     1       9.563  11.893  20.575  0.00  0.00    +0.000 A 
ATOM     25  C   UNL     1       9.939  12.662  19.481  0.00  0.00    +0.000 A 
ATOM     26  C   UNL     1       9.972  12.080  18.207  0.00  0.00    +0.000 A 
ATOM     27  C   UNL     1       9.616  10.735  18.030  0.00  0.00    +0.000 A 
ATOM     28  O   UNL     1      10.331  12.786  17.088  0.00  0.00    +0.000 OA
ATOM     29  C   UNL     1      11.006  14.007  17.424  0.00  0.00    +0.000 C 
ATOM     30  C   UNL     1      10.293  14.745  18.547  0.00  0.00    +0.000 C 
ATOM     31  O   UNL     1      10.270  13.958  19.742  0.00  0.00    +0.000 OA
ENDBRANCH  20  22
ENDBRANCH  17  18
ENDBRANCH   1  17
TORSDOF 5
ENDMDL
MODEL 5
REMARK VINA RESULT:      -8.4      1.445      1.810
REMARK  Name = 
REMARK  6 active torsions:
REMARK  status: ('A' for Active; 'I' for Inactive)
REMARK    1  A    between atoms: C_1  and  C_2
REMARK    2  A    between atoms: C_9  and  S_10
REMARK    3  A    between atoms: S_10  and  C_13
REMARK    4  A    between atoms: C_13  and  C_14
REMARK    5  A    between atoms: C_14  and  C_15
REMARK    6  A    between atoms: N_17  and  C_18
REMARK                            x       y       z     vdW  Elec       q    Type
REMARK                         _______ _______ _______ _____ _____    ______ ____
ROOT
ATOM      1  C   UNL     1       1.547   6.182  20.959  0.00  0.00    +0.000 C 
ENDROOT
BRANCH   1   2
ATOM      2  S   UNL     1       1.940   4.514  20.523  0.00  0.00    +0.000 S 
ATOM      3  O   UNL     1       0.784   3.932  19.872  0.00  0.00    +0.000 OA
ATOM      4  O   UNL     1       2.532   3.876  21.683  0.00  0.00    +0.000 OA
BRANCH   2  13
ATOM      5  C   UNL     1       5.591   4.410  14.325  0.00  0.00    +0.000 C 
ATOM      6  C   UNL     1       6.682   4.857  15.254  0.00  0.00    +0.000 C 
ATOM      7  O   UNL     1       7.800   5.108  14.789  0.00  0.00    +0.000 OA
ATOM      8  N   UNL     1       6.409   5.022  16.597  0.00  0.00    +0.000 N 
ATOM      9  C   UNL     1       7.432   5.642  17.454  0.00  0.00    +0.000 C 
ATOM     10  C   UNL     1       6.895   5.646  18.885  0.00  0.00    +0.000 C 
ATOM     11  C   UNL     1       5.471   5.224  18.681  0.00  0.00    +0.000 A 
ATOM     12  C   UNL     1       4.479   5.161  19.655  0.00  0.00    +0.000 A 
ATOM     13  C   UNL     1       3.225   4.663  19.289  0.00  0.00    +0.000 A 
ATOM     14  C   UNL     1       3.002   4.192  17.987  0.00  0.00    +0.000 A 
ATOM     15  C   UNL     1       4.016   4.273  17.017  0.00  0.00    +0.000 A 
ATOM     16  C   UNL     1       5.247   4.809  17.363  0.00  0.00    +0.000 A 
ENDBRANCH   2  13
ENDBRANCH   1   2
BRANCH   1  17
ATOM     17  C   UNL     1       2.040   7.206  19.930  0.00  0.00    +0.000 C 
BRANCH  17  18
ATOM     18  C   UNL     1       1.432   8.549  20.281  0.00  0.00    +0.000 C 
ATOM     19  O   UNL     1       1.268   8.849  21.462  0.00  0.00    +0.000 OA
ATOM     20  N   UNL     1       1.080   9.346  19.199  0.00  0.00    +0.000 N 
ATOM     21  H   UNL     1       1.082   8.933  18.274  0.00  0.00    +0.000 HD
BRANCH  20  22
ATOM     22  C   UNL     1       0.563  10.664  19.313  0.00  0.00    +0.000 A 
ATOM     23  C   UNL     1      -0.745  10.916  19.754  0.00  0.00    +0.000 A 
ATOM     24  C   UNL     1      -1.244  12.208  19.857  0.00  0.00    +0.000 A 
ATOM     25  C   UNL     1      -0.441  13.290  19.521  0.00  0.00    +0.000 A 
ATOM     26  C   UNL     1       0.875  13.066  19.097  0.00  0.00    +0.000 A 
ATOM     27  C   UNL     1       1.379  11.762  18.996  0.00  0.00    +0.000 A 
ATOM     28  O   UNL     1       1.717  14.092  18.748  0.00  0.00    +0.000 OA
ATOM     29  C   UNL     1       1.236  15.358  19.224  0.00  0.00    +0.000 C 
ATOM     30  C   UNL     1      -0.252  15.522  18.958  0.00  0.00    +0.000 C 
ATOM     31  O   UNL     1      -1.008  14.522  19.649  0.00  0.00    +0.000 OA
ENDBRANCH  20  22
ENDBRANCH  17  18
ENDBRANCH   1  17
TORSDOF 5
ENDMDL
MODEL 6
REMARK VINA RESULT:      -8.4      5.582      7.967
REMARK  Name = 
REMARK  6 active torsions:
REMARK  status: ('A' for Active; 'I' for Inactive)
REMARK    1  A    between atoms: C_1  and  C_2
REMARK    2  A    between atoms: C_9  and  S_10
REMARK    3  A    between atoms: S_10  and  C_13
REMARK    4  A    between atoms: C_13  and  C_14
REMARK    5  A    between atoms: C_14  and  C_15
REMARK    6  A    between atoms: N_17  and  C_18
REMARK                            x       y       z     vdW  Elec       q    Type
REMARK                         _______ _______ _______ _____ _____    ______ ____
ROOT
ATOM      1  C   UNL     1       6.701   7.499  16.980  0.00  0.00    +0.000 C 
ENDROOT
BRANCH   1   2
ATOM      2  S   UNL     1       6.576   5.850  16.354  0.00  0.00    +0.000 S 
ATOM      3  O   UNL     1       7.794   5.142  16.695  0.00  0.00    +0.000 OA
ATOM      4  O   UNL     1       6.129   5.927  14.976  0.00  0.00    +0.000 OA
BRANCH   2  13
ATOM      5  C   UNL     1       1.027   4.834  20.818  0.00  0.00    +0.000 C 
ATOM      6  C   UNL     1       1.248   3.421  20.364  0.00  0.00    +0.000 C 
ATOM      7  O   UNL     1       0.496   2.533  20.780  0.00  0.00    +0.000 OA
ATOM      8  N   UNL     1       2.254   3.145  19.460  0.00  0.00    +0.000 N 
ATOM      9  C   UNL     1       2.333   1.794  18.882  0.00  0.00    +0.000 C 
ATOM     10  C   UNL     1       3.559   1.751  17.971  0.00  0.00    +0.000 C 
ATOM     11  C   UNL     1       3.959   3.195  17.925  0.00  0.00    +0.000 A 
ATOM     12  C   UNL     1       4.968   3.750  17.144  0.00  0.00    +0.000 A 
ATOM     13  C   UNL     1       5.250   5.110  17.297  0.00  0.00    +0.000 A 
ATOM     14  C   UNL     1       4.564   5.873  18.255  0.00  0.00    +0.000 A 
ATOM     15  C   UNL     1       3.543   5.293  19.027  0.00  0.00    +0.000 A 
ATOM     16  C   UNL     1       3.227   3.956  18.846  0.00  0.00    +0.000 A 
ENDBRANCH   2  13
ENDBRANCH   1   2
BRANCH   1  17
ATOM     17  C   UNL     1       7.844   7.676  17.986  0.00  0.00    +0.000 C 
BRANCH  17  18
ATOM     18  C   UNL     1       8.168   9.154  18.068  0.00  0.00    +0.000 C 
ATOM     19  O   UNL     1       7.451   9.964  17.485  0.00  0.00    +0.000 OA
ATOM     20  N   UNL     1       9.301   9.476  18.805  0.00  0.00    +0.000 N 
ATOM     21  H   UNL     1       9.924   8.728  19.085  0.00  0.00    +0.000 HD
BRANCH  20  22
ATOM     22  C   UNL     1       9.735  10.805  19.061  0.00  0.00    +0.000 A 
ATOM     23  C   UNL     1       9.433  11.469  20.258  0.00  0.00    +0.000 A 
ATOM     24  C   UNL     1       9.855  12.770  20.498  0.00  0.00    +0.000 A 
ATOM     25  C   UNL     1      10.599  13.445  19.538  0.00  0.00    +0.000 A 
ATOM     26  C   UNL     1      10.932  12.796  18.342  0.00  0.00    +0.000 A 
ATOM     27  C   UNL     1      10.506  11.482  18.103  0.00  0.00    +0.000 A 
ATOM     28  O   UNL     1      11.660  13.408  17.354  0.00  0.00    +0.000 OA
ATOM     29  C   UNL     1      12.332  14.580  17.840  0.00  0.00    +0.000 C 
ATOM     30  C   UNL     1      11.410  15.435  18.693  0.00  0.00    +0.000 C 
ATOM     31  O   UNL     1      10.972  14.717  19.852  0.00  0.00    +0.000 OA
ENDBRANCH  20  22
ENDBRANCH  17  18
ENDBRANCH   1  17
TORSDOF 5
ENDMDL
MODEL 7
REMARK VINA RESULT:      -8.4      1.934      2.523
REMARK  Name = 
REMARK  6 active torsions:
REMARK  status: ('A' for Active; 'I' for Inactive)
REMARK    1  A    between atoms: C_1  and  C_2
REMARK    2  A    between atoms: C_9  and  S_10
REMARK    3  A    between atoms: S_10  and  C_13
REMARK    4  A    between atoms: C_13  and  C_14
REMARK    5  A    between atoms: C_14  and  C_15
REMARK    6  A    between atoms: N_17  and  C_18
REMARK                            x       y       z     vdW  Elec       q    Type
REMARK                         _______ _______ _______ _____ _____    ______ ____
ROOT
ATOM      1  C   UNL     1       1.541   2.694  20.610  0.00  0.00    +0.000 C 
ENDROOT
BRANCH   1   2
ATOM      2  S   UNL     1       2.049   2.407  18.941  0.00  0.00    +0.000 S 
ATOM      3  O   UNL     1       0.955   2.776  18.065  0.00  0.00    +0.000 OA
ATOM      4  O   UNL     1       2.632   1.081  18.873  0.00  0.00    +0.000 OA
BRANCH   2  13
ATOM      5  C   UNL     1       8.314   5.930  19.248  0.00  0.00    +0.000 C 
ATOM      6  C   UNL     1       7.578   6.805  18.274  0.00  0.00    +0.000 C 
ATOM      7  O   UNL     1       8.161   7.780  17.786  0.00  0.00    +0.000 OA
ATOM      8  N   UNL     1       6.287   6.484  17.910  0.00  0.00    +0.000 N 
ATOM      9  C   UNL     1       5.654   7.238  16.816  0.00  0.00    +0.000 C 
ATOM     10  C   UNL     1       4.224   6.719  16.665  0.00  0.00    +0.000 C 
ATOM     11  C   UNL     1       4.235   5.517  17.559  0.00  0.00    +0.000 A 
ATOM     12  C   UNL     1       3.206   4.595  17.719  0.00  0.00    +0.000 A 
ATOM     13  C   UNL     1       3.370   3.579  18.665  0.00  0.00    +0.000 A 
ATOM     14  C   UNL     1       4.523   3.533  19.463  0.00  0.00    +0.000 A 
ATOM     15  C   UNL     1       5.554   4.470  19.278  0.00  0.00    +0.000 A 
ATOM     16  C   UNL     1       5.416   5.452  18.310  0.00  0.00    +0.000 A 
ENDBRANCH   2  13
ENDBRANCH   1   2
BRANCH   1  17
ATOM     17  C   UNL     1       2.232   3.904  21.250  0.00  0.00    +0.000 C 
BRANCH  17  18
ATOM     18  C   UNL     1       1.527   5.154  20.764  0.00  0.00    +0.000 C 
ATOM     19  O   UNL     1       0.349   5.089  20.418  0.00  0.00    +0.000 OA
ATOM     20  N   UNL     1       2.307   6.304  20.729  0.00  0.00    +0.000 N 
ATOM     21  H   UNL     1       3.307   6.212  20.854  0.00  0.00    +0.000 HD
BRANCH  20  22
ATOM     22  C   UNL     1       1.818   7.589  20.373  0.00  0.00    +0.000 A 
ATOM     23  C   UNL     1       1.930   8.094  19.069  0.00  0.00    +0.000 A 
ATOM     24  C   UNL     1       1.455   9.354  18.731  0.00  0.00    +0.000 A 
ATOM     25  C   UNL     1       0.848  10.148  19.696  0.00  0.00    +0.000 A 
ATOM     26  C   UNL     1       0.705   9.659  21.001  0.00  0.00    +0.000 A 
ATOM     27  C   UNL     1       1.183   8.385  21.340  0.00  0.00    +0.000 A 
ATOM     28  O   UNL     1       0.119  10.394  21.999  0.00  0.00    +0.000 OA
ATOM     29  C   UNL     1      -0.637  11.494  21.473  0.00  0.00    +0.000 C 
ATOM     30  C   UNL     1       0.136  12.232  20.391  0.00  0.00    +0.000 C 
ATOM     31  O   UNL     1       0.412  11.370  19.282  0.00  0.00    +0.000 OA
ENDBRANCH  20  22
ENDBRANCH  17  18
ENDBRANCH   1  17
TORSDOF 5
ENDMDL
MODEL 8
REMARK VINA RESULT:      -8.3      1.531      2.157
REMARK  Name = 
REMARK  6 active torsions:
REMARK  status: ('A' for Active; 'I' for Inactive)
REMARK    1  A    between atoms: C_1  and  C_2
REMARK    2  A    between atoms: C_9  and  S_10
REMARK    3  A    between atoms: S_10  and  C_13
REMARK    4  A    between atoms: C_13  and  C_14
REMARK    5  A    between atoms: C_14  and  C_15
REMARK    6  A    between atoms: N_17  and  C_18
REMARK                            x       y       z     vdW  Elec       q    Type
REMARK                         _______ _______ _______ _____ _____    ______ ____
ROOT
ATOM      1  C   UNL     1       1.578   6.324  20.943  0.00  0.00    +0.000 C 
ENDROOT
BRANCH   1   2
ATOM      2  S   UNL     1       1.908   4.636  20.532  0.00  0.00    +0.000 S 
ATOM      3  O   UNL     1       0.736   4.091  19.878  0.00  0.00    +0.000 OA
ATOM      4  O   UNL     1       2.464   3.991  21.706  0.00  0.00    +0.000 OA
BRANCH   2  13
ATOM      5  C   UNL     1       5.600   4.336  14.365  0.00  0.00    +0.000 C 
ATOM      6  C   UNL     1       6.705   4.728  15.303  0.00  0.00    +0.000 C 
ATOM      7  O   UNL     1       7.837   4.921  14.847  0.00  0.00    +0.000 OA
ATOM      8  N   UNL     1       6.430   4.908  16.643  0.00  0.00    +0.000 N 
ATOM      9  C   UNL     1       7.476   5.476  17.508  0.00  0.00    +0.000 C 
ATOM     10  C   UNL     1       6.928   5.510  18.935  0.00  0.00    +0.000 C 
ATOM     11  C   UNL     1       5.486   5.161  18.720  0.00  0.00    +0.000 A 
ATOM     12  C   UNL     1       4.484   5.151  19.685  0.00  0.00    +0.000 A 
ATOM     13  C   UNL     1       3.209   4.717  19.310  0.00  0.00    +0.000 A 
ATOM     14  C   UNL     1       2.973   4.257  18.005  0.00  0.00    +0.000 A 
ATOM     15  C   UNL     1       3.998   4.284  17.044  0.00  0.00    +0.000 A 
ATOM     16  C   UNL     1       5.252   4.756  17.399  0.00  0.00    +0.000 A 
ENDBRANCH   2  13
ENDBRANCH   1   2
BRANCH   1  17
ATOM     17  C   UNL     1       2.023   7.307  19.854  0.00  0.00    +0.000 C 
BRANCH  17  18
ATOM     18  C   UNL     1       1.295   8.616  20.082  0.00  0.00    +0.000 C 
ATOM     19  O   UNL     1       0.983   9.311  19.117  0.00  0.00    +0.000 OA
ATOM     20  N   UNL     1       1.053   8.942  21.411  0.00  0.00    +0.000 N 
ATOM     21  H   UNL     1       1.513   8.399  22.132  0.00  0.00    +0.000 HD
BRANCH  20  22
ATOM     22  C   UNL     1       0.325  10.086  21.832  0.00  0.00    +0.000 A 
ATOM     23  C   UNL     1      -0.680  10.012  22.808  0.00  0.00    +0.000 A 
ATOM     24  C   UNL     1      -1.392  11.135  23.210  0.00  0.00    +0.000 A 
ATOM     25  C   UNL     1      -1.113  12.371  22.642  0.00  0.00    +0.000 A 
ATOM     26  C   UNL     1      -0.101  12.476  21.680  0.00  0.00    +0.000 A 
ATOM     27  C   UNL     1       0.619  11.341  21.277  0.00  0.00    +0.000 A 
ATOM     28  O   UNL     1       0.220  13.666  21.079  0.00  0.00    +0.000 OA
ATOM     29  C   UNL     1      -0.308  14.786  21.806  0.00  0.00    +0.000 C 
ATOM     30  C   UNL     1      -1.753  14.549  22.217  0.00  0.00    +0.000 C 
ATOM     31  O   UNL     1      -1.858  13.421  23.091  0.00  0.00    +0.000 OA
ENDBRANCH  20  22
ENDBRANCH  17  18
ENDBRANCH   1  17
TORSDOF 5
ENDMDL
MODEL 9
REMARK VINA RESULT:      -8.3      6.512     10.493
REMARK  Name = 
REMARK  6 active torsions:
REMARK  status: ('A' for Active; 'I' for Inactive)
REMARK    1  A    between atoms: C_1  and  C_2
REMARK    2  A    between atoms: C_9  and  S_10
REMARK    3  A    between atoms: S_10  and  C_13
REMARK    4  A    between atoms: C_13  and  C_14
REMARK    5  A    between atoms: C_14  and  C_15
REMARK    6  A    between atoms: N_17  and  C_18
REMARK                            x       y       z     vdW  Elec       q    Type
REMARK                         _______ _______ _______ _____ _____    ______ ____
ROOT
ATOM      1  C   UNL     1       9.260   9.954  19.088  0.00  0.00    +0.000 C 
ENDROOT
BRANCH   1   2
ATOM      2  S   UNL     1      10.061  11.529  19.041  0.00  0.00    +0.000 S 
ATOM      3  O   UNL     1       9.492  12.296  17.951  0.00  0.00    +0.000 OA
ATOM      4  O   UNL     1      11.492  11.305  19.115  0.00  0.00    +0.000 OA
BRANCH   2  13
ATOM      5  C   UNL     1       8.931  16.394  24.219  0.00  0.00    +0.000 C 
ATOM      6  C   UNL     1       8.395  15.168  24.901  0.00  0.00    +0.000 C 
ATOM      7  O   UNL     1       7.911  15.276  26.033  0.00  0.00    +0.000 OA
ATOM      8  N   UNL     1       8.411  13.958  24.240  0.00  0.00    +0.000 N 
ATOM      9  C   UNL     1       7.711  12.813  24.844  0.00  0.00    +0.000 C 
ATOM     10  C   UNL     1       7.939  11.602  23.940  0.00  0.00    +0.000 C 
ATOM     11  C   UNL     1       8.578  12.230  22.739  0.00  0.00    +0.000 A 
ATOM     12  C   UNL     1       8.905  11.591  21.547  0.00  0.00    +0.000 A 
ATOM     13  C   UNL     1       9.574  12.327  20.564  0.00  0.00    +0.000 A 
ATOM     14  C   UNL     1       9.947  13.658  20.807  0.00  0.00    +0.000 A 
ATOM     15  C   UNL     1       9.599  14.285  22.015  0.00  0.00    +0.000 A 
ATOM     16  C   UNL     1       8.895  13.573  22.974  0.00  0.00    +0.000 A 
ENDBRANCH   2  13
ENDBRANCH   1   2
BRANCH   1  17
ATOM     17  C   UNL     1       8.506   9.624  17.794  0.00  0.00    +0.000 C 
BRANCH  17  18
ATOM     18  C   UNL     1       7.927   8.230  17.935  0.00  0.00    +0.000 C 
ATOM     19  O   UNL     1       8.398   7.461  18.769  0.00  0.00    +0.000 OA
ATOM     20  N   UNL     1       6.891   7.923  17.062  0.00  0.00    +0.000 N 
ATOM     21  H   UNL     1       6.705   8.555  16.292  0.00  0.00    +0.000 HD
BRANCH  20  22
ATOM     22  C   UNL     1       6.169   6.700  17.079  0.00  0.00    +0.000 A 
ATOM     23  C   UNL     1       6.744   5.490  16.664  0.00  0.00    +0.000 A 
ATOM     24  C   UNL     1       6.029   4.299  16.677  0.00  0.00    +0.000 A 
ATOM     25  C   UNL     1       4.711   4.288  17.113  0.00  0.00    +0.000 A 
ATOM     26  C   UNL     1       4.119   5.480  17.551  0.00  0.00    +0.000 A 
ATOM     27  C   UNL     1       4.843   6.680  17.539  0.00  0.00    +0.000 A 
ATOM     28  O   UNL     1       2.821   5.535  17.989  0.00  0.00    +0.000 OA
ATOM     29  C   UNL     1       2.308   4.231  18.296  0.00  0.00    +0.000 C 
ATOM     30  C   UNL     1       2.662   3.226  17.211  0.00  0.00    +0.000 C 
ATOM     31  O   UNL     1       4.081   3.080  17.093  0.00  0.00    +0.000 OA
ENDBRANCH  20  22
ENDBRANCH  17  18
ENDBRANCH   1  17
TORSDOF 5
ENDMDL
