MODEL 1
REMARK VINA RESULT:      -6.9      0.000      0.000
REMARK  Name = 
REMARK  15 active torsions:
REMARK  status: ('A' for Active; 'I' for Inactive)
REMARK    1  A    between atoms: N_1  and  CA_2
REMARK    2  A    between atoms: CA_2  and  CB_3
REMARK    3  A    between atoms: CA_2  and  C_11
REMARK    4  A    between atoms: CB_3  and  CG_4
REMARK    5  A    between atoms: CZ_7  and  OH_8
REMARK    6  A    between atoms: N_13  and  C_14
REMARK    7  A    between atoms: C_14  and  C_15
REMARK    8  A    between atoms: C_14  and  C_18
REMARK    9  A    between atoms: C_15  and  O_17
REMARK   10  A    between atoms: C_19  and  O_20
REMARK   11  A    between atoms: C_21  and  O_22
REMARK   12  A    between atoms: C_21  and  C_23
REMARK   13  A    between atoms: C_23  and  O_24
REMARK   14  A    between atoms: C_25  and  O_26
REMARK   15  A    between atoms: N_28  and  O_29
REMARK                            x       y       z     vdW  Elec       q    Type
REMARK                         _______ _______ _______ _____ _____    ______ ____
ROOT
ATOM      1  C   UNK A   2       3.477   5.704  19.302  0.00  0.00    +0.000 C 
ENDROOT
BRANCH   1   2
ATOM      2  C   UNK A   2       4.746   5.987  18.433  0.00  0.00    +0.000 C 
ATOM      3  C   UNK A   2       5.812   4.866  18.599  0.00  0.00    +0.000 C 
ATOM      4  C   UNK A   2       7.066   5.158  17.730  0.00  0.00    +0.000 C 
ATOM      5  C   UNK A   2       6.612   5.303  16.263  0.00  0.00    +0.000 C 
ATOM      6  C   UNK A   2       5.571   6.423  16.127  0.00  0.00    +0.000 C 
ATOM      7  N   UNK A   2       4.403   6.143  16.983  0.00  0.00    +0.000 NA
BRANCH   3   8
ATOM      8  O   UNK A   2       6.155   4.642  19.966  0.00  0.00    +0.000 OA
ATOM      9  H   UNK A   2       6.800   5.335  20.232  0.00  0.00    +0.000 HD
ENDBRANCH   3   8
BRANCH   4  10
ATOM     10  O   UNK A   2       7.975   4.038  17.828  0.00  0.00    +0.000 OA
ATOM     11  H   UNK A   2       8.825   4.410  18.138  0.00  0.00    +0.000 HD
ENDBRANCH   4  10
BRANCH   5  12
ATOM     12  O   UNK A   2       6.033   4.054  15.823  0.00  0.00    +0.000 OA
ATOM     13  H   UNK A   2       6.601   3.724  15.098  0.00  0.00    +0.000 HD
ENDBRANCH   5  12
BRANCH   7  14
ATOM     14  O   UNK A   2       3.602   7.360  16.890  0.00  0.00    +0.000 OA
ATOM     15  H   UNK A   2       4.233   8.056  17.172  0.00  0.00    +0.000 HD
ENDBRANCH   7  14
BRANCH   4  16
ATOM     16  C   UNK A   2       7.857   6.404  18.189  0.00  0.00    +0.000 C 
BRANCH  16  17
ATOM     17  O   UNK A   2       8.391   6.218  19.501  0.00  0.00    +0.000 OA
ATOM     18  H   UNK A   2       8.242   7.064  19.969  0.00  0.00    +0.000 HD
ENDBRANCH  16  17
ENDBRANCH   4  16
ENDBRANCH   1   2
BRANCH   1  21
ATOM     19  C   TYR A   1       1.711   6.872  20.629  0.00  0.00    +0.000 C 
ATOM     20  O   TYR A   1       1.395   5.843  21.222  0.00  0.00    +0.000 OA
ATOM     21  N   UNK A   2       2.736   6.920  19.694  0.00  0.00    +0.000 N 
ATOM     22  H   UNK A   2       3.089   7.851  19.487  0.00  0.00    +0.000 HD
BRANCH  19  23
ATOM     23  CA  TYR A   1       1.034   8.245  20.891  0.00  0.00    +0.000 C 
BRANCH  23  24
ATOM     24  N   TYR A   1       1.556   8.795  22.171  0.00  0.00    +0.000 NA
ATOM     25  H1  TYR A   1       1.767   8.000  22.785  0.00  0.00    +0.000 HD
ATOM     26  H2  TYR A   1       0.789   9.276  22.645  0.00  0.00    +0.000 HD
ENDBRANCH  23  24
BRANCH  23  27
ATOM     27  CB  TYR A   1       1.263   9.176  19.678  0.00  0.00    +0.000 C 
BRANCH  27  28
ATOM     28  CG  TYR A   1       0.045   9.933  19.183  0.00  0.00    +0.000 A 
ATOM     29  CD1 TYR A   1      -0.531  10.937  19.979  0.00  0.00    +0.000 A 
ATOM     30  CE1 TYR A   1      -1.626  11.674  19.521  0.00  0.00    +0.000 A 
ATOM     31  CZ  TYR A   1      -2.145  11.406  18.260  0.00  0.00    +0.000 A 
ATOM     32  CE2 TYR A   1      -1.586  10.425  17.457  0.00  0.00    +0.000 A 
ATOM     33  CD2 TYR A   1      -0.492   9.687  17.912  0.00  0.00    +0.000 A 
BRANCH  31  34
ATOM     34  OH  TYR A   1      -3.210  12.112  17.764  0.00  0.00    +0.000 OA
ATOM     35  HH  TYR A   1      -3.840  11.484  17.376  0.00  0.00    +0.000 HD
ENDBRANCH  31  34
ENDBRANCH  27  28
ENDBRANCH  23  27
ENDBRANCH  19  23
ENDBRANCH   1  21
BRANCH   1  36
ATOM     36  C   UNK A   2       2.599   4.612  18.660  0.00  0.00    +0.000 C 
ATOM     37  O   UNK A   2       2.603   3.441  19.018  0.00  0.00    +0.000 OA
BRANCH  36  38
ATOM     38  O   UNK A   2       1.780   5.057  17.677  0.00  0.00    +0.000 OA
ATOM     39  H   UNK A   2       1.015   5.540  18.039  0.00  0.00    +0.000 HD
ENDBRANCH  36  38
ENDBRANCH   1  36
TORSDOF 15
ENDMDL
MODEL 2
REMARK VINA RESULT:      -6.8      2.023      3.978
REMARK  Name = 
REMARK  15 active torsions:
REMARK  status: ('A' for Active; 'I' for Inactive)
REMARK    1  A    between atoms: N_1  and  CA_2
REMARK    2  A    between atoms: CA_2  and  CB_3
REMARK    3  A    between atoms: CA_2  and  C_11
REMARK    4  A    between atoms: CB_3  and  CG_4
REMARK    5  A    between atoms: CZ_7  and  OH_8
REMARK    6  A    between atoms: N_13  and  C_14
REMARK    7  A    between atoms: C_14  and  C_15
REMARK    8  A    between atoms: C_14  and  C_18
REMARK    9  A    between atoms: C_15  and  O_17
REMARK   10  A    between atoms: C_19  and  O_20
REMARK   11  A    between atoms: C_21  and  O_22
REMARK   12  A    between atoms: C_21  and  C_23
REMARK   13  A    between atoms: C_23  and  O_24
REMARK   14  A    between atoms: C_25  and  O_26
REMARK   15  A    between atoms: N_28  and  O_29
REMARK                            x       y       z     vdW  Elec       q    Type
REMARK                         _______ _______ _______ _____ _____    ______ ____
ROOT
ATOM      1  C   UNK A   2       3.690   6.127  17.325  0.00  0.00    +0.000 C 
ENDROOT
BRANCH   1   2
ATOM      2  C   UNK A   2       3.523   4.957  18.350  0.00  0.00    +0.000 C 
ATOM      3  C   UNK A   2       2.517   3.888  17.835  0.00  0.00    +0.000 C 
ATOM      4  C   UNK A   2       2.362   2.731  18.860  0.00  0.00    +0.000 C 
ATOM      5  C   UNK A   2       3.758   2.126  19.119  0.00  0.00    +0.000 C 
ATOM      6  C   UNK A   2       4.725   3.201  19.637  0.00  0.00    +0.000 C 
ATOM      7  N   UNK A   2       4.834   4.304  18.665  0.00  0.00    +0.000 NA
BRANCH   3   8
ATOM      8  O   UNK A   2       1.257   4.455  17.481  0.00  0.00    +0.000 OA
ATOM      9  H   UNK A   2       0.556   3.941  17.941  0.00  0.00    +0.000 HD
ENDBRANCH   3   8
BRANCH   4  10
ATOM     10  O   UNK A   2       1.511   1.711  18.291  0.00  0.00    +0.000 OA
ATOM     11  H   UNK A   2       0.952   1.389  19.025  0.00  0.00    +0.000 HD
ENDBRANCH   4  10
BRANCH   5  12
ATOM     12  O   UNK A   2       4.269   1.576  17.885  0.00  0.00    +0.000 OA
ATOM     13  H   UNK A   2       4.837   2.267  17.487  0.00  0.00    +0.000 HD
ENDBRANCH   5  12
BRANCH   7  14
ATOM     14  O   UNK A   2       5.625   5.311  19.366  0.00  0.00    +0.000 OA
ATOM     15  H   UNK A   2       5.111   5.454  20.189  0.00  0.00    +0.000 HD
ENDBRANCH   7  14
BRANCH   4  16
ATOM     16  C   UNK A   2       1.695   3.168  20.184  0.00  0.00    +0.000 C 
BRANCH  16  17
ATOM     17  O   UNK A   2       0.273   3.203  20.056  0.00  0.00    +0.000 OA
ATOM     18  H   UNK A   2      -0.012   4.028  20.495  0.00  0.00    +0.000 HD
ENDBRANCH  16  17
ENDBRANCH   4  16
ENDBRANCH   1   2
BRANCH   1  21
ATOM     19  C   TYR A   1       2.174   8.024  17.914  0.00  0.00    +0.000 C 
ATOM     20  O   TYR A   1       1.178   7.430  17.509  0.00  0.00    +0.000 OA
ATOM     21  N   UNK A   2       3.444   7.466  17.899  0.00  0.00    +0.000 N 
ATOM     22  H   UNK A   2       4.124   7.921  18.504  0.00  0.00    +0.000 HD
BRANCH  19  23
ATOM     23  CA  TYR A   1       2.120   9.448  18.533  0.00  0.00    +0.000 C 
BRANCH  23  24
ATOM     24  N   TYR A   1       2.063  10.443  17.428  0.00  0.00    +0.000 NA
ATOM     25  H1  TYR A   1       1.345  10.128  16.766  0.00  0.00    +0.000 HD
ATOM     26  H2  TYR A   1       2.934  10.375  16.897  0.00  0.00    +0.000 HD
ENDBRANCH  23  24
BRANCH  23  27
ATOM     27  CB  TYR A   1       0.927   9.543  19.513  0.00  0.00    +0.000 C 
BRANCH  27  28
ATOM     28  CG  TYR A   1      -0.319  10.222  18.979  0.00  0.00    +0.000 A 
ATOM     29  CD1 TYR A   1      -0.721  11.465  19.497  0.00  0.00    +0.000 A 
ATOM     30  CE1 TYR A   1      -1.841  12.126  18.988  0.00  0.00    +0.000 A 
ATOM     31  CZ  TYR A   1      -2.561  11.540  17.952  0.00  0.00    +0.000 A 
ATOM     32  CE2 TYR A   1      -2.177  10.319  17.422  0.00  0.00    +0.000 A 
ATOM     33  CD2 TYR A   1      -1.058   9.657  17.930  0.00  0.00    +0.000 A 
BRANCH  31  34
ATOM     34  OH  TYR A   1      -3.659  12.158  17.412  0.00  0.00    +0.000 OA
ATOM     35  HH  TYR A   1      -3.566  12.157  16.446  0.00  0.00    +0.000 HD
ENDBRANCH  31  34
ENDBRANCH  27  28
ENDBRANCH  23  27
ENDBRANCH  19  23
ENDBRANCH   1  21
BRANCH   1  36
ATOM     36  C   UNK A   2       5.021   6.006  16.559  0.00  0.00    +0.000 C 
ATOM     37  O   UNK A   2       5.923   6.831  16.631  0.00  0.00    +0.000 OA
BRANCH  36  38
ATOM     38  O   UNK A   2       5.138   4.881  15.811  0.00  0.00    +0.000 OA
ATOM     39  H   UNK A   2       4.659   4.133  16.211  0.00  0.00    +0.000 HD
ENDBRANCH  36  38
ENDBRANCH   1  36
TORSDOF 15
ENDMDL
MODEL 3
REMARK VINA RESULT:      -6.8      2.053      4.112
REMARK  Name = 
REMARK  15 active torsions:
REMARK  status: ('A' for Active; 'I' for Inactive)
REMARK    1  A    between atoms: N_1  and  CA_2
REMARK    2  A    between atoms: CA_2  and  CB_3
REMARK    3  A    between atoms: CA_2  and  C_11
REMARK    4  A    between atoms: CB_3  and  CG_4
REMARK    5  A    between atoms: CZ_7  and  OH_8
REMARK    6  A    between atoms: N_13  and  C_14
REMARK    7  A    between atoms: C_14  and  C_15
REMARK    8  A    between atoms: C_14  and  C_18
REMARK    9  A    between atoms: C_15  and  O_17
REMARK   10  A    between atoms: C_19  and  O_20
REMARK   11  A    between atoms: C_21  and  O_22
REMARK   12  A    between atoms: C_21  and  C_23
REMARK   13  A    between atoms: C_23  and  O_24
REMARK   14  A    between atoms: C_25  and  O_26
REMARK   15  A    between atoms: N_28  and  O_29
REMARK                            x       y       z     vdW  Elec       q    Type
REMARK                         _______ _______ _______ _____ _____    ______ ____
ROOT
ATOM      1  C   UNK A   2       3.706   6.125  17.414  0.00  0.00    +0.000 C 
ENDROOT
BRANCH   1   2
ATOM      2  C   UNK A   2       3.476   4.966  18.438  0.00  0.00    +0.000 C 
ATOM      3  C   UNK A   2       2.521   3.881  17.865  0.00  0.00    +0.000 C 
ATOM      4  C   UNK A   2       2.303   2.734  18.891  0.00  0.00    +0.000 C 
ATOM      5  C   UNK A   2       3.682   2.147  19.258  0.00  0.00    +0.000 C 
ATOM      6  C   UNK A   2       4.598   3.238  19.832  0.00  0.00    +0.000 C 
ATOM      7  N   UNK A   2       4.767   4.331  18.856  0.00  0.00    +0.000 NA
BRANCH   3   8
ATOM      8  O   UNK A   2       1.284   4.430  17.414  0.00  0.00    +0.000 OA
ATOM      9  H   UNK A   2       1.403   5.402  17.321  0.00  0.00    +0.000 HD
ENDBRANCH   3   8
BRANCH   4  10
ATOM     10  O   UNK A   2       1.506   1.699  18.274  0.00  0.00    +0.000 OA
ATOM     11  H   UNK A   2       1.797   1.658  17.341  0.00  0.00    +0.000 HD
ENDBRANCH   4  10
BRANCH   5  12
ATOM     12  O   UNK A   2       4.287   1.588  18.071  0.00  0.00    +0.000 OA
ATOM     13  H   UNK A   2       3.808   1.972  17.309  0.00  0.00    +0.000 HD
ENDBRANCH   5  12
BRANCH   7  14
ATOM     14  O   UNK A   2       5.495   5.355  19.600  0.00  0.00    +0.000 OA
ATOM     15  H   UNK A   2       5.130   5.263  20.506  0.00  0.00    +0.000 HD
ENDBRANCH   7  14
BRANCH   4  16
ATOM     16  C   UNK A   2       1.537   3.180  20.158  0.00  0.00    +0.000 C 
BRANCH  16  17
ATOM     17  O   UNK A   2       0.125   3.065  19.971  0.00  0.00    +0.000 OA
ATOM     18  H   UNK A   2      -0.016   2.187  19.563  0.00  0.00    +0.000 HD
ENDBRANCH  16  17
ENDBRANCH   4  16
ENDBRANCH   1   2
BRANCH   1  21
ATOM     19  C   TYR A   1       2.168   8.026  17.931  0.00  0.00    +0.000 C 
ATOM     20  O   TYR A   1       1.186   7.424  17.504  0.00  0.00    +0.000 OA
ATOM     21  N   UNK A   2       3.440   7.472  17.962  0.00  0.00    +0.000 N 
ATOM     22  H   UNK A   2       4.100   7.936  18.582  0.00  0.00    +0.000 HD
BRANCH  19  23
ATOM     23  CA  TYR A   1       2.092   9.458  18.529  0.00  0.00    +0.000 C 
BRANCH  23  24
ATOM     24  N   TYR A   1       2.083  10.439  17.411  0.00  0.00    +0.000 NA
ATOM     25  H1  TYR A   1       2.961  10.966  17.455  0.00  0.00    +0.000 HD
ATOM     26  H2  TYR A   1       1.365  11.139  17.610  0.00  0.00    +0.000 HD
ENDBRANCH  23  24
BRANCH  23  27
ATOM     27  CB  TYR A   1       0.860   9.567  19.459  0.00  0.00    +0.000 C 
BRANCH  27  28
ATOM     28  CG  TYR A   1      -0.348  10.277  18.879  0.00  0.00    +0.000 A 
ATOM     29  CD1 TYR A   1      -1.093   9.673  17.852  0.00  0.00    +0.000 A 
ATOM     30  CE1 TYR A   1      -2.234  10.292  17.335  0.00  0.00    +0.000 A 
ATOM     31  CZ  TYR A   1      -2.632  11.519  17.853  0.00  0.00    +0.000 A 
ATOM     32  CE2 TYR A   1      -1.916  12.127  18.870  0.00  0.00    +0.000 A 
ATOM     33  CD2 TYR A   1      -0.776  11.511  19.388  0.00  0.00    +0.000 A 
BRANCH  31  34
ATOM     34  OH  TYR A   1      -3.753  12.158  17.386  0.00  0.00    +0.000 OA
ATOM     35  HH  TYR A   1      -4.200  11.570  16.756  0.00  0.00    +0.000 HD
ENDBRANCH  31  34
ENDBRANCH  27  28
ENDBRANCH  23  27
ENDBRANCH  19  23
ENDBRANCH   1  21
BRANCH   1  36
ATOM     36  C   UNK A   2       5.074   5.988  16.721  0.00  0.00    +0.000 C 
ATOM     37  O   UNK A   2       5.270   5.284  15.737  0.00  0.00    +0.000 OA
BRANCH  36  38
ATOM     38  O   UNK A   2       6.058   6.745  17.265  0.00  0.00    +0.000 OA
ATOM     39  H   UNK A   2       5.696   7.503  17.759  0.00  0.00    +0.000 HD
ENDBRANCH  36  38
ENDBRANCH   1  36
TORSDOF 15
ENDMDL
MODEL 4
REMARK VINA RESULT:      -6.7      2.423      4.560
REMARK  Name = 
REMARK  15 active torsions:
REMARK  status: ('A' for Active; 'I' for Inactive)
REMARK    1  A    between atoms: N_1  and  CA_2
REMARK    2  A    between atoms: CA_2  and  CB_3
REMARK    3  A    between atoms: CA_2  and  C_11
REMARK    4  A    between atoms: CB_3  and  CG_4
REMARK    5  A    between atoms: CZ_7  and  OH_8
REMARK    6  A    between atoms: N_13  and  C_14
REMARK    7  A    between atoms: C_14  and  C_15
REMARK    8  A    between atoms: C_14  and  C_18
REMARK    9  A    between atoms: C_15  and  O_17
REMARK   10  A    between atoms: C_19  and  O_20
REMARK   11  A    between atoms: C_21  and  O_22
REMARK   12  A    between atoms: C_21  and  C_23
REMARK   13  A    between atoms: C_23  and  O_24
REMARK   14  A    between atoms: C_25  and  O_26
REMARK   15  A    between atoms: N_28  and  O_29
REMARK                            x       y       z     vdW  Elec       q    Type
REMARK                         _______ _______ _______ _____ _____    ______ ____
ROOT
ATOM      1  C   UNK A   2       4.271   5.638  18.355  0.00  0.00    +0.000 C 
ENDROOT
BRANCH   1   2
ATOM      2  C   UNK A   2       3.720   4.238  18.778  0.00  0.00    +0.000 C 
ATOM      3  C   UNK A   2       2.418   4.368  19.618  0.00  0.00    +0.000 C 
ATOM      4  C   UNK A   2       1.880   2.970  20.031  0.00  0.00    +0.000 C 
ATOM      5  C   UNK A   2       1.653   2.144  18.748  0.00  0.00    +0.000 C 
ATOM      6  C   UNK A   2       2.956   2.022  17.945  0.00  0.00    +0.000 C 
ATOM      7  N   UNK A   2       3.467   3.359  17.591  0.00  0.00    +0.000 NA
BRANCH   3   8
ATOM      8  O   UNK A   2       2.585   5.225  20.746  0.00  0.00    +0.000 OA
ATOM      9  H   UNK A   2       3.026   6.048  20.437  0.00  0.00    +0.000 HD
ENDBRANCH   3   8
BRANCH   4  10
ATOM     10  O   UNK A   2       0.614   3.136  20.708  0.00  0.00    +0.000 OA
ATOM     11  H   UNK A   2      -0.058   3.215  20.002  0.00  0.00    +0.000 HD
ENDBRANCH   4  10
BRANCH   5  12
ATOM     12  O   UNK A   2       0.650   2.798  17.938  0.00  0.00    +0.000 OA
ATOM     13  H   UNK A   2       0.020   3.215  18.560  0.00  0.00    +0.000 HD
ENDBRANCH   5  12
BRANCH   7  14
ATOM     14  O   UNK A   2       4.777   3.090  17.005  0.00  0.00    +0.000 OA
ATOM     15  H   UNK A   2       4.566   2.449  16.293  0.00  0.00    +0.000 HD
ENDBRANCH   7  14
BRANCH   4  16
ATOM     16  C   UNK A   2       2.807   2.219  21.014  0.00  0.00    +0.000 C 
BRANCH  16  17
ATOM     17  O   UNK A   2       2.603   2.667  22.355  0.00  0.00    +0.000 OA
ATOM     18  H   UNK A   2       2.934   1.947  22.927  0.00  0.00    +0.000 HD
ENDBRANCH  16  17
ENDBRANCH   4  16
ENDBRANCH   1   2
BRANCH   1  21
ATOM     19  C   TYR A   1       3.114   7.806  17.899  0.00  0.00    +0.000 C 
ATOM     20  O   TYR A   1       3.484   7.824  16.728  0.00  0.00    +0.000 OA
ATOM     21  N   UNK A   2       3.417   6.770  18.771  0.00  0.00    +0.000 N 
ATOM     22  H   UNK A   2       2.836   6.722  19.605  0.00  0.00    +0.000 HD
BRANCH  19  23
ATOM     23  CA  TYR A   1       2.226   8.917  18.526  0.00  0.00    +0.000 C 
BRANCH  23  24
ATOM     24  N   TYR A   1       1.390   9.517  17.452  0.00  0.00    +0.000 NA
ATOM     25  H1  TYR A   1       0.420   9.233  17.622  0.00  0.00    +0.000 HD
ATOM     26  H2  TYR A   1       1.631   9.058  16.570  0.00  0.00    +0.000 HD
ENDBRANCH  23  24
BRANCH  23  27
ATOM     27  CB  TYR A   1       1.403   8.325  19.694  0.00  0.00    +0.000 C 
BRANCH  27  28
ATOM     28  CG  TYR A   1       0.735   9.330  20.611  0.00  0.00    +0.000 A 
ATOM     29  CD1 TYR A   1       0.077   8.894  21.774  0.00  0.00    +0.000 A 
ATOM     30  CE1 TYR A   1      -0.507   9.808  22.653  0.00  0.00    +0.000 A 
ATOM     31  CZ  TYR A   1      -0.429  11.167  22.368  0.00  0.00    +0.000 A 
ATOM     32  CE2 TYR A   1       0.220  11.618  21.231  0.00  0.00    +0.000 A 
ATOM     33  CD2 TYR A   1       0.805  10.705  20.351  0.00  0.00    +0.000 A 
BRANCH  31  34
ATOM     34  OH  TYR A   1      -0.976  12.102  23.208  0.00  0.00    +0.000 OA
ATOM     35  HH  TYR A   1      -1.937  11.967  23.232  0.00  0.00    +0.000 HD
ENDBRANCH  31  34
ENDBRANCH  27  28
ENDBRANCH  23  27
ENDBRANCH  19  23
ENDBRANCH   1  21
BRANCH   1  36
ATOM     36  C   UNK A   2       5.753   5.792  18.747  0.00  0.00    +0.000 C 
ATOM     37  O   UNK A   2       6.257   5.250  19.723  0.00  0.00    +0.000 OA
BRANCH  36  38
ATOM     38  O   UNK A   2       6.482   6.557  17.898  0.00  0.00    +0.000 OA
ATOM     39  H   UNK A   2       7.094   7.143  18.379  0.00  0.00    +0.000 HD
ENDBRANCH  36  38
ENDBRANCH   1  36
TORSDOF 15
ENDMDL
MODEL 5
REMARK VINA RESULT:      -6.7      1.745      2.531
REMARK  Name = 
REMARK  15 active torsions:
REMARK  status: ('A' for Active; 'I' for Inactive)
REMARK    1  A    between atoms: N_1  and  CA_2
REMARK    2  A    between atoms: CA_2  and  CB_3
REMARK    3  A    between atoms: CA_2  and  C_11
REMARK    4  A    between atoms: CB_3  and  CG_4
REMARK    5  A    between atoms: CZ_7  and  OH_8
REMARK    6  A    between atoms: N_13  and  C_14
REMARK    7  A    between atoms: C_14  and  C_15
REMARK    8  A    between atoms: C_14  and  C_18
REMARK    9  A    between atoms: C_15  and  O_17
REMARK   10  A    between atoms: C_19  and  O_20
REMARK   11  A    between atoms: C_21  and  O_22
REMARK   12  A    between atoms: C_21  and  C_23
REMARK   13  A    between atoms: C_23  and  O_24
REMARK   14  A    between atoms: C_25  and  O_26
REMARK   15  A    between atoms: N_28  and  O_29
REMARK                            x       y       z     vdW  Elec       q    Type
REMARK                         _______ _______ _______ _____ _____    ______ ____
ROOT
ATOM      1  C   UNK A   2       2.581   5.010  20.669  0.00  0.00    +0.000 C 
ENDROOT
BRANCH   1   2
ATOM      2  C   UNK A   2       3.024   4.797  19.185  0.00  0.00    +0.000 C 
ATOM      3  C   UNK A   2       4.542   4.470  19.085  0.00  0.00    +0.000 C 
ATOM      4  C   UNK A   2       4.969   4.258  17.606  0.00  0.00    +0.000 C 
ATOM      5  C   UNK A   2       4.101   3.131  17.011  0.00  0.00    +0.000 C 
ATOM      6  C   UNK A   2       2.610   3.486  17.112  0.00  0.00    +0.000 C 
ATOM      7  N   UNK A   2       2.232   3.714  18.520  0.00  0.00    +0.000 NA
BRANCH   3   8
ATOM      8  O   UNK A   2       5.351   5.449  19.735  0.00  0.00    +0.000 OA
ATOM      9  H   UNK A   2       5.112   5.451  20.690  0.00  0.00    +0.000 HD
ENDBRANCH   3   8
BRANCH   4  10
ATOM     10  O   UNK A   2       6.354   3.846  17.573  0.00  0.00    +0.000 OA
ATOM     11  H   UNK A   2       6.535   3.593  16.646  0.00  0.00    +0.000 HD
ENDBRANCH   4  10
BRANCH   5  12
ATOM     12  O   UNK A   2       4.353   1.908  17.738  0.00  0.00    +0.000 OA
ATOM     13  H   UNK A   2       5.287   1.672  17.569  0.00  0.00    +0.000 HD
ENDBRANCH   5  12
BRANCH   7  14
ATOM     14  O   UNK A   2       0.862   4.212  18.437  0.00  0.00    +0.000 OA
ATOM     15  H   UNK A   2       0.899   5.032  18.975  0.00  0.00    +0.000 HD
ENDBRANCH   7  14
BRANCH   4  16
ATOM     16  C   UNK A   2       4.874   5.541  16.749  0.00  0.00    +0.000 C 
BRANCH  16  17
ATOM     17  O   UNK A   2       5.993   6.398  16.980  0.00  0.00    +0.000 OA
ATOM     18  H   UNK A   2       6.701   6.071  16.390  0.00  0.00    +0.000 HD
ENDBRANCH  16  17
ENDBRANCH   4  16
ENDBRANCH   1   2
BRANCH   1  21
ATOM     19  C   TYR A   1       1.902   7.363  20.169  0.00  0.00    +0.000 C 
ATOM     20  O   TYR A   1       2.771   7.492  19.311  0.00  0.00    +0.000 OA
ATOM     21  N   UNK A   2       1.703   6.182  20.871  0.00  0.00    +0.000 N 
ATOM     22  H   UNK A   2       0.801   6.100  21.334  0.00  0.00    +0.000 HD
BRANCH  19  23
ATOM     23  CA  TYR A   1       0.897   8.489  20.536  0.00  0.00    +0.000 C 
BRANCH  23  24
ATOM     24  N   TYR A   1       1.019   8.778  21.990  0.00  0.00    +0.000 NA
ATOM     25  H1  TYR A   1       1.241   9.775  22.089  0.00  0.00    +0.000 HD
ATOM     26  H2  TYR A   1       1.856   8.305  22.337  0.00  0.00    +0.000 HD
ENDBRANCH  23  24
BRANCH  23  27
ATOM     27  CB  TYR A   1       1.147   9.721  19.636  0.00  0.00    +0.000 C 
BRANCH  27  28
ATOM     28  CG  TYR A   1      -0.082  10.336  18.994  0.00  0.00    +0.000 A 
ATOM     29  CD1 TYR A   1      -0.680   9.717  17.883  0.00  0.00    +0.000 A 
ATOM     30  CE1 TYR A   1      -1.838  10.244  17.306  0.00  0.00    +0.000 A 
ATOM     31  CZ  TYR A   1      -2.400  11.395  17.846  0.00  0.00    +0.000 A 
ATOM     32  CE2 TYR A   1      -1.830  12.016  18.945  0.00  0.00    +0.000 A 
ATOM     33  CD2 TYR A   1      -0.673  11.491  19.523  0.00  0.00    +0.000 A 
BRANCH  31  34
ATOM     34  OH  TYR A   1      -3.543  11.941  17.321  0.00  0.00    +0.000 OA
ATOM     35  HH  TYR A   1      -3.775  11.451  16.516  0.00  0.00    +0.000 HD
ENDBRANCH  31  34
ENDBRANCH  27  28
ENDBRANCH  23  27
ENDBRANCH  19  23
ENDBRANCH   1  21
BRANCH   1  36
ATOM     36  C   UNK A   2       2.035   3.704  21.277  0.00  0.00    +0.000 C 
ATOM     37  O   UNK A   2       2.691   2.967  22.004  0.00  0.00    +0.000 OA
BRANCH  36  38
ATOM     38  O   UNK A   2       0.741   3.442  20.974  0.00  0.00    +0.000 OA
ATOM     39  H   UNK A   2       0.180   4.232  21.081  0.00  0.00    +0.000 HD
ENDBRANCH  36  38
ENDBRANCH   1  36
TORSDOF 15
ENDMDL
MODEL 6
REMARK VINA RESULT:      -6.7      2.175      4.372
REMARK  Name = 
REMARK  15 active torsions:
REMARK  status: ('A' for Active; 'I' for Inactive)
REMARK    1  A    between atoms: N_1  and  CA_2
REMARK    2  A    between atoms: CA_2  and  CB_3
REMARK    3  A    between atoms: CA_2  and  C_11
REMARK    4  A    between atoms: CB_3  and  CG_4
REMARK    5  A    between atoms: CZ_7  and  OH_8
REMARK    6  A    between atoms: N_13  and  C_14
REMARK    7  A    between atoms: C_14  and  C_15
REMARK    8  A    between atoms: C_14  and  C_18
REMARK    9  A    between atoms: C_15  and  O_17
REMARK   10  A    between atoms: C_19  and  O_20
REMARK   11  A    between atoms: C_21  and  O_22
REMARK   12  A    between atoms: C_21  and  C_23
REMARK   13  A    between atoms: C_23  and  O_24
REMARK   14  A    between atoms: C_25  and  O_26
REMARK   15  A    between atoms: N_28  and  O_29
REMARK                            x       y       z     vdW  Elec       q    Type
REMARK                         _______ _______ _______ _____ _____    ______ ____
ROOT
ATOM      1  C   UNK A   2       2.674   6.352  18.322  0.00  0.00    +0.000 C 
ENDROOT
BRANCH   1   2
ATOM      2  C   UNK A   2       2.224   5.070  19.094  0.00  0.00    +0.000 C 
ATOM      3  C   UNK A   2       2.647   3.774  18.344  0.00  0.00    +0.000 C 
ATOM      4  C   UNK A   2       2.196   2.508  19.123  0.00  0.00    +0.000 C 
ATOM      5  C   UNK A   2       2.801   2.572  20.541  0.00  0.00    +0.000 C 
ATOM      6  C   UNK A   2       2.357   3.854  21.260  0.00  0.00    +0.000 C 
ATOM      7  N   UNK A   2       2.767   5.043  20.490  0.00  0.00    +0.000 NA
BRANCH   3   8
ATOM      8  O   UNK A   2       2.190   3.757  16.993  0.00  0.00    +0.000 OA
ATOM      9  H   UNK A   2       2.959   3.543  16.418  0.00  0.00    +0.000 HD
ENDBRANCH   3   8
BRANCH   4  10
ATOM     10  O   UNK A   2       2.709   1.337  18.450  0.00  0.00    +0.000 OA
ATOM     11  H   UNK A   2       2.036   1.096  17.782  0.00  0.00    +0.000 HD
ENDBRANCH   4  10
BRANCH   5  12
ATOM     12  O   UNK A   2       4.242   2.555  20.438  0.00  0.00    +0.000 OA
ATOM     13  H   UNK A   2       4.452   2.467  19.486  0.00  0.00    +0.000 HD
ENDBRANCH   5  12
BRANCH   7  14
ATOM     14  O   UNK A   2       2.126   6.152  21.191  0.00  0.00    +0.000 OA
ATOM     15  H   UNK A   2       2.789   6.388  21.874  0.00  0.00    +0.000 HD
ENDBRANCH   7  14
BRANCH   4  16
ATOM     16  C   UNK A   2       0.660   2.339  19.185  0.00  0.00    +0.000 C 
BRANCH  16  17
ATOM     17  O   UNK A   2       0.185   1.560  18.086  0.00  0.00    +0.000 OA
ATOM     18  H   UNK A   2      -0.781   1.482  18.217  0.00  0.00    +0.000 HD
ENDBRANCH  16  17
ENDBRANCH   4  16
ENDBRANCH   1   2
BRANCH   1  21
ATOM     19  C   TYR A   1       2.071   8.774  18.198  0.00  0.00    +0.000 C 
ATOM     20  O   TYR A   1       2.236   8.812  16.981  0.00  0.00    +0.000 OA
ATOM     21  N   UNK A   2       2.228   7.616  18.945  0.00  0.00    +0.000 N 
ATOM     22  H   UNK A   2       1.799   7.634  19.868  0.00  0.00    +0.000 HD
BRANCH  19  23
ATOM     23  CA  TYR A   1       1.622  10.005  19.032  0.00  0.00    +0.000 C 
BRANCH  23  24
ATOM     24  N   TYR A   1       1.710  11.217  18.174  0.00  0.00    +0.000 NA
ATOM     25  H1  TYR A   1       2.427  11.040  17.462  0.00  0.00    +0.000 HD
ATOM     26  H2  TYR A   1       2.104  11.975  18.736  0.00  0.00    +0.000 HD
ENDBRANCH  23  24
BRANCH  23  27
ATOM     27  CB  TYR A   1       0.208   9.754  19.607  0.00  0.00    +0.000 C 
BRANCH  27  28
ATOM     28  CG  TYR A   1      -0.941  10.376  18.837  0.00  0.00    +0.000 A 
ATOM     29  CD1 TYR A   1      -1.324   9.846  17.593  0.00  0.00    +0.000 A 
ATOM     30  CE1 TYR A   1      -2.407  10.377  16.890  0.00  0.00    +0.000 A 
ATOM     31  CZ  TYR A   1      -3.112  11.444  17.436  0.00  0.00    +0.000 A 
ATOM     32  CE2 TYR A   1      -2.755  11.977  18.664  0.00  0.00    +0.000 A 
ATOM     33  CD2 TYR A   1      -1.673  11.447  19.369  0.00  0.00    +0.000 A 
BRANCH  31  34
ATOM     34  OH  TYR A   1      -4.190  11.991  16.788  0.00  0.00    +0.000 OA
ATOM     35  HH  TYR A   1      -3.953  12.122  15.856  0.00  0.00    +0.000 HD
ENDBRANCH  31  34
ENDBRANCH  27  28
ENDBRANCH  23  27
ENDBRANCH  19  23
ENDBRANCH   1  21
BRANCH   1  36
ATOM     36  C   UNK A   2       4.181   6.306  18.004  0.00  0.00    +0.000 C 
ATOM     37  O   UNK A   2       5.028   5.893  18.786  0.00  0.00    +0.000 OA
BRANCH  36  38
ATOM     38  O   UNK A   2       4.505   6.731  16.758  0.00  0.00    +0.000 OA
ATOM     39  H   UNK A   2       4.576   7.702  16.718  0.00  0.00    +0.000 HD
ENDBRANCH  36  38
ENDBRANCH   1  36
TORSDOF 15
ENDMDL
MODEL 7
REMARK VINA RESULT:      -6.6      0.470      1.123
REMARK  Name = 
REMARK  15 active torsions:
REMARK  status: ('A' for Active; 'I' for Inactive)
REMARK    1  A    between atoms: N_1  and  CA_2
REMARK    2  A    between atoms: CA_2  and  CB_3
REMARK    3  A    between atoms: CA_2  and  C_11
REMARK    4  A    between atoms: CB_3  and  CG_4
REMARK    5  A    between atoms: CZ_7  and  OH_8
REMARK    6  A    between atoms: N_13  and  C_14
REMARK    7  A    between atoms: C_14  and  C_15
REMARK    8  A    between atoms: C_14  and  C_18
REMARK    9  A    between atoms: C_15  and  O_17
REMARK   10  A    between atoms: C_19  and  O_20
REMARK   11  A    between atoms: C_21  and  O_22
REMARK   12  A    between atoms: C_21  and  C_23
REMARK   13  A    between atoms: C_23  and  O_24
REMARK   14  A    between atoms: C_25  and  O_26
REMARK   15  A    between atoms: N_28  and  O_29
REMARK                            x       y       z     vdW  Elec       q    Type
REMARK                         _______ _______ _______ _____ _____    ______ ____
ROOT
ATOM      1  C   UNK A   2       3.387   5.542  18.822  0.00  0.00    +0.000 C 
ENDROOT
BRANCH   1   2
ATOM      2  C   UNK A   2       4.765   5.870  18.159  0.00  0.00    +0.000 C 
ATOM      3  C   UNK A   2       5.809   4.749  18.430  0.00  0.00    +0.000 C 
ATOM      4  C   UNK A   2       7.172   5.087  17.765  0.00  0.00    +0.000 C 
ATOM      5  C   UNK A   2       6.934   5.294  16.255  0.00  0.00    +0.000 C 
ATOM      6  C   UNK A   2       5.909   6.412  16.018  0.00  0.00    +0.000 C 
ATOM      7  N   UNK A   2       4.633   6.088  16.683  0.00  0.00    +0.000 NA
BRANCH   3   8
ATOM      8  O   UNK A   2       5.953   4.468  19.821  0.00  0.00    +0.000 OA
ATOM      9  H   UNK A   2       5.993   5.327  20.300  0.00  0.00    +0.000 HD
ENDBRANCH   3   8
BRANCH   4  10
ATOM     10  O   UNK A   2       8.070   3.969  17.946  0.00  0.00    +0.000 OA
ATOM     11  H   UNK A   2       8.453   4.076  18.840  0.00  0.00    +0.000 HD
ENDBRANCH   4  10
BRANCH   5  12
ATOM     12  O   UNK A   2       6.440   4.062  15.684  0.00  0.00    +0.000 OA
ATOM     13  H   UNK A   2       5.476   4.179  15.563  0.00  0.00    +0.000 HD
ENDBRANCH   5  12
BRANCH   7  14
ATOM     14  O   UNK A   2       3.839   7.303  16.527  0.00  0.00    +0.000 OA
ATOM     15  H   UNK A   2       3.432   7.410  17.413  0.00  0.00    +0.000 HD
ENDBRANCH   7  14
BRANCH   4  16
ATOM     16  C   UNK A   2       7.873   6.316  18.387  0.00  0.00    +0.000 C 
BRANCH  16  17
ATOM     17  O   UNK A   2       8.324   6.034  19.713  0.00  0.00    +0.000 OA
ATOM     18  H   UNK A   2       9.191   6.480  19.797  0.00  0.00    +0.000 HD
ENDBRANCH  16  17
ENDBRANCH   4  16
ENDBRANCH   1   2
BRANCH   1  21
ATOM     19  C   TYR A   1       1.871   6.704  20.433  0.00  0.00    +0.000 C 
ATOM     20  O   TYR A   1       1.801   5.720  21.166  0.00  0.00    +0.000 OA
ATOM     21  N   UNK A   2       2.643   6.733  19.280  0.00  0.00    +0.000 N 
ATOM     22  H   UNK A   2       2.847   7.662  18.919  0.00  0.00    +0.000 HD
BRANCH  19  23
ATOM     23  CA  TYR A   1       1.143   8.042  20.737  0.00  0.00    +0.000 C 
BRANCH  23  24
ATOM     24  N   TYR A   1       1.647   8.572  22.032  0.00  0.00    +0.000 NA
ATOM     25  H1  TYR A   1       2.651   8.369  22.079  0.00  0.00    +0.000 HD
ATOM     26  H2  TYR A   1       1.246   8.006  22.783  0.00  0.00    +0.000 HD
ENDBRANCH  23  24
BRANCH  23  27
ATOM     27  CB  TYR A   1       1.335   9.018  19.552  0.00  0.00    +0.000 C 
BRANCH  27  28
ATOM     28  CG  TYR A   1       0.152   9.910  19.228  0.00  0.00    +0.000 A 
ATOM     29  CD1 TYR A   1      -0.509   9.782  17.994  0.00  0.00    +0.000 A 
ATOM     30  CE1 TYR A   1      -1.627  10.564  17.696  0.00  0.00    +0.000 A 
ATOM     31  CZ  TYR A   1      -2.086  11.477  18.638  0.00  0.00    +0.000 A 
ATOM     32  CE2 TYR A   1      -1.453  11.613  19.863  0.00  0.00    +0.000 A 
ATOM     33  CD2 TYR A   1      -0.336  10.832  20.163  0.00  0.00    +0.000 A 
BRANCH  31  34
ATOM     34  OH  TYR A   1      -3.187  12.258  18.395  0.00  0.00    +0.000 OA
ATOM     35  HH  TYR A   1      -3.981  11.714  18.523  0.00  0.00    +0.000 HD
ENDBRANCH  31  34
ENDBRANCH  27  28
ENDBRANCH  23  27
ENDBRANCH  19  23
ENDBRANCH   1  21
BRANCH   1  36
ATOM     36  C   UNK A   2       2.562   4.586  17.939  0.00  0.00    +0.000 C 
ATOM     37  O   UNK A   2       1.402   4.799  17.608  0.00  0.00    +0.000 OA
BRANCH  36  38
ATOM     38  O   UNK A   2       3.236   3.489  17.517  0.00  0.00    +0.000 OA
ATOM     39  H   UNK A   2       4.021   3.730  16.991  0.00  0.00    +0.000 HD
ENDBRANCH  36  38
ENDBRANCH   1  36
TORSDOF 15
ENDMDL
MODEL 8
REMARK VINA RESULT:      -6.6      0.843      1.141
REMARK  Name = 
REMARK  15 active torsions:
REMARK  status: ('A' for Active; 'I' for Inactive)
REMARK    1  A    between atoms: N_1  and  CA_2
REMARK    2  A    between atoms: CA_2  and  CB_3
REMARK    3  A    between atoms: CA_2  and  C_11
REMARK    4  A    between atoms: CB_3  and  CG_4
REMARK    5  A    between atoms: CZ_7  and  OH_8
REMARK    6  A    between atoms: N_13  and  C_14
REMARK    7  A    between atoms: C_14  and  C_15
REMARK    8  A    between atoms: C_14  and  C_18
REMARK    9  A    between atoms: C_15  and  O_17
REMARK   10  A    between atoms: C_19  and  O_20
REMARK   11  A    between atoms: C_21  and  O_22
REMARK   12  A    between atoms: C_21  and  C_23
REMARK   13  A    between atoms: C_23  and  O_24
REMARK   14  A    between atoms: C_25  and  O_26
REMARK   15  A    between atoms: N_28  and  O_29
REMARK                            x       y       z     vdW  Elec       q    Type
REMARK                         _______ _______ _______ _____ _____    ______ ____
ROOT
ATOM      1  C   UNK A   2       3.545   5.615  19.264  0.00  0.00    +0.000 C 
ENDROOT
BRANCH   1   2
ATOM      2  C   UNK A   2       4.808   5.874  18.380  0.00  0.00    +0.000 C 
ATOM      3  C   UNK A   2       5.907   4.801  18.629  0.00  0.00    +0.000 C 
ATOM      4  C   UNK A   2       7.155   5.068  17.744  0.00  0.00    +0.000 C 
ATOM      5  C   UNK A   2       6.704   5.093  16.269  0.00  0.00    +0.000 C 
ATOM      6  C   UNK A   2       5.629   6.168  16.050  0.00  0.00    +0.000 C 
ATOM      7  N   UNK A   2       4.466   5.914  16.922  0.00  0.00    +0.000 NA
BRANCH   3   8
ATOM      8  O   UNK A   2       6.250   4.688  20.009  0.00  0.00    +0.000 OA
ATOM      9  H   UNK A   2       6.308   5.597  20.381  0.00  0.00    +0.000 HD
ENDBRANCH   3   8
BRANCH   4  10
ATOM     10  O   UNK A   2       8.097   3.987  17.924  0.00  0.00    +0.000 OA
ATOM     11  H   UNK A   2       8.295   3.652  17.027  0.00  0.00    +0.000 HD
ENDBRANCH   4  10
BRANCH   5  12
ATOM     12  O   UNK A   2       6.165   3.798  15.920  0.00  0.00    +0.000 OA
ATOM     13  H   UNK A   2       5.693   3.914  15.071  0.00  0.00    +0.000 HD
ENDBRANCH   5  12
BRANCH   7  14
ATOM     14  O   UNK A   2       3.629   7.096  16.739  0.00  0.00    +0.000 OA
ATOM     15  H   UNK A   2       3.784   7.600  17.567  0.00  0.00    +0.000 HD
ENDBRANCH   7  14
BRANCH   4  16
ATOM     16  C   UNK A   2       7.906   6.368  18.113  0.00  0.00    +0.000 C 
BRANCH  16  17
ATOM     17  O   UNK A   2       8.380   6.322  19.460  0.00  0.00    +0.000 OA
ATOM     18  H   UNK A   2       9.191   6.869  19.473  0.00  0.00    +0.000 HD
ENDBRANCH  16  17
ENDBRANCH   4  16
ENDBRANCH   1   2
BRANCH   1  21
ATOM     19  C   TYR A   1       1.780   6.822  20.557  0.00  0.00    +0.000 C 
ATOM     20  O   TYR A   1       1.478   5.817  21.196  0.00  0.00    +0.000 OA
ATOM     21  N   UNK A   2       2.795   6.840  19.612  0.00  0.00    +0.000 N 
ATOM     22  H   UNK A   2       3.138   7.766  19.363  0.00  0.00    +0.000 HD
BRANCH  19  23
ATOM     23  CA  TYR A   1       1.091   8.199  20.768  0.00  0.00    +0.000 C 
BRANCH  23  24
ATOM     24  N   TYR A   1       1.575   8.780  22.049  0.00  0.00    +0.000 NA
ATOM     25  H1  TYR A   1       1.479   9.798  21.982  0.00  0.00    +0.000 HD
ATOM     26  H2  TYR A   1       2.585   8.631  22.102  0.00  0.00    +0.000 HD
ENDBRANCH  23  24
BRANCH  23  27
ATOM     27  CB  TYR A   1       1.354   9.103  19.540  0.00  0.00    +0.000 C 
BRANCH  27  28
ATOM     28  CG  TYR A   1       0.551  10.388  19.479  0.00  0.00    +0.000 A 
ATOM     29  CD1 TYR A   1      -0.853  10.345  19.520  0.00  0.00    +0.000 A 
ATOM     30  CE1 TYR A   1      -1.607  11.520  19.508  0.00  0.00    +0.000 A 
ATOM     31  CZ  TYR A   1      -0.952  12.745  19.458  0.00  0.00    +0.000 A 
ATOM     32  CE2 TYR A   1       0.431  12.810  19.424  0.00  0.00    +0.000 A 
ATOM     33  CD2 TYR A   1       1.187  11.636  19.436  0.00  0.00    +0.000 A 
BRANCH  31  34
ATOM     34  OH  TYR A   1      -1.650  13.926  19.457  0.00  0.00    +0.000 OA
ATOM     35  HH  TYR A   1      -2.398  13.838  18.845  0.00  0.00    +0.000 HD
ENDBRANCH  31  34
ENDBRANCH  27  28
ENDBRANCH  23  27
ENDBRANCH  19  23
ENDBRANCH   1  21
BRANCH   1  36
ATOM     36  C   UNK A   2       2.673   4.493  18.669  0.00  0.00    +0.000 C 
ATOM     37  O   UNK A   2       2.707   3.331  19.053  0.00  0.00    +0.000 OA
BRANCH  36  38
ATOM     38  O   UNK A   2       1.822   4.900  17.695  0.00  0.00    +0.000 OA
ATOM     39  H   UNK A   2       1.819   5.870  17.604  0.00  0.00    +0.000 HD
ENDBRANCH  36  38
ENDBRANCH   1  36
TORSDOF 15
ENDMDL
MODEL 9
REMARK VINA RESULT:      -6.6      2.462      4.551
REMARK  Name = 
REMARK  15 active torsions:
REMARK  status: ('A' for Active; 'I' for Inactive)
REMARK    1  A    between atoms: N_1  and  CA_2
REMARK    2  A    between atoms: CA_2  and  CB_3
REMARK    3  A    between atoms: CA_2  and  C_11
REMARK    4  A    between atoms: CB_3  and  CG_4
REMARK    5  A    between atoms: CZ_7  and  OH_8
REMARK    6  A    between atoms: N_13  and  C_14
REMARK    7  A    between atoms: C_14  and  C_15
REMARK    8  A    between atoms: C_14  and  C_18
REMARK    9  A    between atoms: C_15  and  O_17
REMARK   10  A    between atoms: C_19  and  O_20
REMARK   11  A    between atoms: C_21  and  O_22
REMARK   12  A    between atoms: C_21  and  C_23
REMARK   13  A    between atoms: C_23  and  O_24
REMARK   14  A    between atoms: C_25  and  O_26
REMARK   15  A    between atoms: N_28  and  O_29
REMARK                            x       y       z     vdW  Elec       q    Type
REMARK                         _______ _______ _______ _____ _____    ______ ____
ROOT
ATOM      1  C   UNK A   2       3.759   5.957  18.007  0.00  0.00    +0.000 C 
ENDROOT
BRANCH   1   2
ATOM      2  C   UNK A   2       3.411   4.523  18.523  0.00  0.00    +0.000 C 
ATOM      3  C   UNK A   2       2.252   4.557  19.561  0.00  0.00    +0.000 C 
ATOM      4  C   UNK A   2       1.915   3.126  20.065  0.00  0.00    +0.000 C 
ATOM      5  C   UNK A   2       1.561   2.256  18.841  0.00  0.00    +0.000 C 
ATOM      6  C   UNK A   2       2.726   2.231  17.841  0.00  0.00    +0.000 C 
ATOM      7  N   UNK A   2       3.052   3.600  17.399  0.00  0.00    +0.000 NA
BRANCH   3   8
ATOM      8  O   UNK A   2       2.519   5.450  20.641  0.00  0.00    +0.000 OA
ATOM      9  H   UNK A   2       2.389   4.954  21.481  0.00  0.00    +0.000 HD
ENDBRANCH   3   8
BRANCH   4  10
ATOM     10  O   UNK A   2       0.763   3.196  20.935  0.00  0.00    +0.000 OA
ATOM     11  H   UNK A   2       1.103   3.054  21.841  0.00  0.00    +0.000 HD
ENDBRANCH   4  10
BRANCH   5  12
ATOM     12  O   UNK A   2       0.388   2.802  18.198  0.00  0.00    +0.000 OA
ATOM     13  H   UNK A   2       0.088   2.131  17.553  0.00  0.00    +0.000 HD
ENDBRANCH   5  12
BRANCH   7  14
ATOM     14  O   UNK A   2       4.270   3.433  16.613  0.00  0.00    +0.000 OA
ATOM     15  H   UNK A   2       4.663   4.332  16.631  0.00  0.00    +0.000 HD
ENDBRANCH   7  14
BRANCH   4  16
ATOM     16  C   UNK A   2       3.050   2.481  20.892  0.00  0.00    +0.000 C 
BRANCH  16  17
ATOM     17  O   UNK A   2       2.684   2.373  22.269  0.00  0.00    +0.000 OA
ATOM     18  H   UNK A   2       2.469   3.283  22.557  0.00  0.00    +0.000 HD
ENDBRANCH  16  17
ENDBRANCH   4  16
ENDBRANCH   1   2
BRANCH   1  21
ATOM     19  C   TYR A   1       2.627   8.179  17.853  0.00  0.00    +0.000 C 
ATOM     20  O   TYR A   1       3.028   8.369  16.707  0.00  0.00    +0.000 OA
ATOM     21  N   UNK A   2       2.900   7.021  18.567  0.00  0.00    +0.000 N 
ATOM     22  H   UNK A   2       2.297   6.854  19.369  0.00  0.00    +0.000 HD
BRANCH  19  23
ATOM     23  CA  TYR A   1       1.729   9.192  18.616  0.00  0.00    +0.000 C 
BRANCH  23  24
ATOM     24  N   TYR A   1       0.578   9.554  17.746  0.00  0.00    +0.000 NA
ATOM     25  H1  TYR A   1      -0.057   8.749  17.724  0.00  0.00    +0.000 HD
ATOM     26  H2  TYR A   1       0.919   9.625  16.785  0.00  0.00    +0.000 HD
ENDBRANCH  23  24
BRANCH  23  27
ATOM     27  CB  TYR A   1       1.311   8.589  19.978  0.00  0.00    +0.000 C 
BRANCH  27  28
ATOM     28  CG  TYR A   1       0.622   9.538  20.940  0.00  0.00    +0.000 A 
ATOM     29  CD1 TYR A   1       0.631  10.921  20.692  0.00  0.00    +0.000 A 
ATOM     30  CE1 TYR A   1      -0.035  11.806  21.543  0.00  0.00    +0.000 A 
ATOM     31  CZ  TYR A   1      -0.715  11.303  22.646  0.00  0.00    +0.000 A 
ATOM     32  CE2 TYR A   1      -0.742   9.943  22.904  0.00  0.00    +0.000 A 
ATOM     33  CD2 TYR A   1      -0.077   9.056  22.055  0.00  0.00    +0.000 A 
BRANCH  31  34
ATOM     34  OH  TYR A   1      -1.394  12.132  23.502  0.00  0.00    +0.000 OA
ATOM     35  HH  TYR A   1      -0.859  12.248  24.304  0.00  0.00    +0.000 HD
ENDBRANCH  31  34
ENDBRANCH  27  28
ENDBRANCH  23  27
ENDBRANCH  19  23
ENDBRANCH   1  21
BRANCH   1  36
ATOM     36  C   UNK A   2       5.269   6.238  18.130  0.00  0.00    +0.000 C 
ATOM     37  O   UNK A   2       5.980   5.758  19.004  0.00  0.00    +0.000 OA
BRANCH  36  38
ATOM     38  O   UNK A   2       5.771   7.042  17.161  0.00  0.00    +0.000 OA
ATOM     39  H   UNK A   2       5.786   6.594  16.296  0.00  0.00    +0.000 HD
ENDBRANCH  36  38
ENDBRANCH   1  36
TORSDOF 15
ENDMDL
