MODEL 1
REMARK VINA RESULT:      -8.6      0.000      0.000
REMARK  Name = 
REMARK  6 active torsions:
REMARK  status: ('A' for Active; 'I' for Inactive)
REMARK    1  A    between atoms: C_1  and  C_2
REMARK    2  A    between atoms: C_8  and  S_9
REMARK    3  A    between atoms: S_9  and  C_12
REMARK    4  A    between atoms: C_15  and  C_16
REMARK    5  A    between atoms: C_17  and  C_18
REMARK    6  A    between atoms: C_20  and  O_21
REMARK                            x       y       z     vdW  Elec       q    Type
REMARK                         _______ _______ _______ _____ _____    ______ ____
ROOT
ATOM      1  C   UNL     1       1.658   2.534  21.744  0.00  0.00    +0.000 C 
ATOM      2  C   UNL     1       2.137   3.676  20.898  0.00  0.00    +0.000 A 
ATOM      3  C   UNL     1       1.360   4.817  20.715  0.00  0.00    +0.000 A 
ATOM      4  C   UNL     1       1.839   5.873  19.930  0.00  0.00    +0.000 A 
ATOM      5  C   UNL     1       3.071   5.810  19.290  0.00  0.00    +0.000 A 
ATOM      6  N   UNL     1       3.457   6.839  18.513  0.00  0.00    +0.000 NA
ATOM      7  C   UNL     1       4.631   6.735  17.846  0.00  0.00    +0.000 A 
ATOM      8  C   UNL     1       5.477   5.653  17.953  0.00  0.00    +0.000 A 
ATOM      9  C   UNL     1       5.093   4.595  18.768  0.00  0.00    +0.000 A 
ATOM     10  C   UNL     1       3.864   4.655  19.460  0.00  0.00    +0.000 A 
ATOM     11  C   UNL     1       3.390   3.609  20.284  0.00  0.00    +0.000 A 
ENDROOT
BRANCH   8  12
ATOM     12  S   UNL     1       6.934   5.598  16.960  0.00  0.00    +0.000 S 
ATOM     13  O   UNL     1       7.296   6.987  16.735  0.00  0.00    +0.000 OA
ATOM     14  O   UNL     1       7.870   4.684  17.586  0.00  0.00    +0.000 OA
BRANCH  12  15
ATOM     15  C   UNL     1       6.506   4.914  15.377  0.00  0.00    +0.000 A 
ATOM     16  C   UNL     1       5.467   3.985  15.292  0.00  0.00    +0.000 A 
ATOM     17  C   UNL     1       5.204   3.359  14.074  0.00  0.00    +0.000 A 
ATOM     18  C   UNL     1       5.964   3.657  12.930  0.00  0.00    +0.000 A 
ATOM     19  C   UNL     1       5.689   2.893  11.663  0.00  0.00    +0.000 C 
ATOM     20  C   UNL     1       6.976   4.639  13.008  0.00  0.00    +0.000 A 
ATOM     21  C   UNL     1       7.819   5.036  11.827  0.00  0.00    +0.000 C 
ATOM     22  C   UNL     1       7.231   5.272  14.239  0.00  0.00    +0.000 A 
ENDBRANCH  12  15
ENDBRANCH   8  12
BRANCH   9  23
ATOM     23  O   UNL     1       5.856   3.464  18.939  0.00  0.00    +0.000 OA
ATOM     24  H   UNL     1       6.800   3.690  19.074  0.00  0.00    +0.000 HD
ENDBRANCH   9  23
TORSDOF 3
ENDMDL
MODEL 2
REMARK VINA RESULT:      -8.4      2.240      7.034
REMARK  Name = 
REMARK  6 active torsions:
REMARK  status: ('A' for Active; 'I' for Inactive)
REMARK    1  A    between atoms: C_1  and  C_2
REMARK    2  A    between atoms: C_8  and  S_9
REMARK    3  A    between atoms: S_9  and  C_12
REMARK    4  A    between atoms: C_15  and  C_16
REMARK    5  A    between atoms: C_17  and  C_18
REMARK    6  A    between atoms: C_20  and  O_21
REMARK                            x       y       z     vdW  Elec       q    Type
REMARK                         _______ _______ _______ _____ _____    ______ ____
ROOT
ATOM      1  C   UNL     1       4.899   2.777  11.274  0.00  0.00    +0.000 C 
ATOM      2  C   UNL     1       5.598   3.496  12.390  0.00  0.00    +0.000 A 
ATOM      3  C   UNL     1       6.875   4.025  12.222  0.00  0.00    +0.000 A 
ATOM      4  C   UNL     1       7.497   4.703  13.277  0.00  0.00    +0.000 A 
ATOM      5  C   UNL     1       6.889   4.842  14.518  0.00  0.00    +0.000 A 
ATOM      6  N   UNL     1       7.556   5.466  15.507  0.00  0.00    +0.000 NA
ATOM      7  C   UNL     1       6.975   5.537  16.729  0.00  0.00    +0.000 A 
ATOM      8  C   UNL     1       5.718   5.048  17.007  0.00  0.00    +0.000 A 
ATOM      9  C   UNL     1       5.015   4.419  15.985  0.00  0.00    +0.000 A 
ATOM     10  C   UNL     1       5.598   4.302  14.704  0.00  0.00    +0.000 A 
ATOM     11  C   UNL     1       4.961   3.652  13.623  0.00  0.00    +0.000 A 
ENDROOT
BRANCH   8  12
ATOM     12  S   UNL     1       5.111   5.121  18.661  0.00  0.00    +0.000 S 
ATOM     13  O   UNL     1       4.499   3.827  18.901  0.00  0.00    +0.000 OA
ATOM     14  O   UNL     1       6.183   5.600  19.512  0.00  0.00    +0.000 OA
BRANCH  12  15
ATOM     15  C   UNL     1       3.808   6.328  18.726  0.00  0.00    +0.000 A 
ATOM     16  C   UNL     1       3.658   7.230  17.671  0.00  0.00    +0.000 A 
ATOM     17  C   UNL     1       2.714   8.251  17.769  0.00  0.00    +0.000 A 
ATOM     18  C   UNL     1       1.905   8.378  18.911  0.00  0.00    +0.000 A 
ATOM     19  C   UNL     1       0.959   9.545  18.998  0.00  0.00    +0.000 C 
ATOM     20  C   UNL     1       2.020   7.429  19.950  0.00  0.00    +0.000 A 
ATOM     21  C   UNL     1       1.177   7.477  21.196  0.00  0.00    +0.000 C 
ATOM     22  C   UNL     1       2.971   6.397  19.841  0.00  0.00    +0.000 A 
ENDBRANCH  12  15
ENDBRANCH   8  12
BRANCH   9  23
ATOM     23  O   UNL     1       3.759   3.887  16.155  0.00  0.00    +0.000 OA
ATOM     24  H   UNL     1       3.583   3.178  15.501  0.00  0.00    +0.000 HD
ENDBRANCH   9  23
TORSDOF 3
ENDMDL
MODEL 3
REMARK VINA RESULT:      -8.3      2.234      3.506
REMARK  Name = 
REMARK  6 active torsions:
REMARK  status: ('A' for Active; 'I' for Inactive)
REMARK    1  A    between atoms: C_1  and  C_2
REMARK    2  A    between atoms: C_8  and  S_9
REMARK    3  A    between atoms: S_9  and  C_12
REMARK    4  A    between atoms: C_15  and  C_16
REMARK    5  A    between atoms: C_17  and  C_18
REMARK    6  A    between atoms: C_20  and  O_21
REMARK                            x       y       z     vdW  Elec       q    Type
REMARK                         _______ _______ _______ _____ _____    ______ ____
ROOT
ATOM      1  C   UNL     1      -0.113   9.044  22.157  0.00  0.00    +0.000 C 
ATOM      2  C   UNL     1       0.707   8.738  20.939  0.00  0.00    +0.000 A 
ATOM      3  C   UNL     1       0.729   9.601  19.845  0.00  0.00    +0.000 A 
ATOM      4  C   UNL     1       1.514   9.297  18.728  0.00  0.00    +0.000 A 
ATOM      5  C   UNL     1       2.264   8.129  18.655  0.00  0.00    +0.000 A 
ATOM      6  N   UNL     1       2.965   7.871  17.536  0.00  0.00    +0.000 NA
ATOM      7  C   UNL     1       3.640   6.699  17.455  0.00  0.00    +0.000 A 
ATOM      8  C   UNL     1       3.688   5.774  18.475  0.00  0.00    +0.000 A 
ATOM      9  C   UNL     1       2.981   6.043  19.642  0.00  0.00    +0.000 A 
ATOM     10  C   UNL     1       2.245   7.243  19.753  0.00  0.00    +0.000 A 
ATOM     11  C   UNL     1       1.478   7.574  20.893  0.00  0.00    +0.000 A 
ENDROOT
BRANCH   8  12
ATOM     12  S   UNL     1       4.526   4.245  18.211  0.00  0.00    +0.000 S 
ATOM     13  O   UNL     1       5.430   4.105  19.339  0.00  0.00    +0.000 OA
ATOM     14  O   UNL     1       3.529   3.228  17.934  0.00  0.00    +0.000 OA
BRANCH  12  15
ATOM     15  C   UNL     1       5.536   4.405  16.758  0.00  0.00    +0.000 A 
ATOM     16  C   UNL     1       6.775   5.041  16.853  0.00  0.00    +0.000 A 
ATOM     17  C   UNL     1       7.519   5.273  15.697  0.00  0.00    +0.000 A 
ATOM     18  C   UNL     1       7.042   4.866  14.439  0.00  0.00    +0.000 A 
ATOM     19  C   UNL     1       7.848   5.212  13.216  0.00  0.00    +0.000 C 
ATOM     20  C   UNL     1       5.815   4.172  14.354  0.00  0.00    +0.000 A 
ATOM     21  C   UNL     1       5.243   3.681  13.052  0.00  0.00    +0.000 C 
ATOM     22  C   UNL     1       5.073   3.936  15.527  0.00  0.00    +0.000 A 
ENDBRANCH  12  15
ENDBRANCH   8  12
BRANCH   9  23
ATOM     23  O   UNL     1       2.952   5.186  20.716  0.00  0.00    +0.000 OA
ATOM     24  H   UNL     1       3.544   5.496  21.433  0.00  0.00    +0.000 HD
ENDBRANCH   9  23
TORSDOF 3
ENDMDL
MODEL 4
REMARK VINA RESULT:      -7.6      5.583      8.441
REMARK  Name = 
REMARK  6 active torsions:
REMARK  status: ('A' for Active; 'I' for Inactive)
REMARK    1  A    between atoms: C_1  and  C_2
REMARK    2  A    between atoms: C_8  and  S_9
REMARK    3  A    between atoms: S_9  and  C_12
REMARK    4  A    between atoms: C_15  and  C_16
REMARK    5  A    between atoms: C_17  and  C_18
REMARK    6  A    between atoms: C_20  and  O_21
REMARK                            x       y       z     vdW  Elec       q    Type
REMARK                         _______ _______ _______ _____ _____    ______ ____
ROOT
ATOM      1  C   UNL     1       3.241   4.014  17.411  0.00  0.00    +0.000 C 
ATOM      2  C   UNL     1       2.710   4.977  18.431  0.00  0.00    +0.000 A 
ATOM      3  C   UNL     1       2.337   4.553  19.704  0.00  0.00    +0.000 A 
ATOM      4  C   UNL     1       1.858   5.477  20.639  0.00  0.00    +0.000 A 
ATOM      5  C   UNL     1       1.708   6.823  20.328  0.00  0.00    +0.000 A 
ATOM      6  N   UNL     1       1.200   7.655  21.256  0.00  0.00    +0.000 NA
ATOM      7  C   UNL     1       1.000   8.951  20.916  0.00  0.00    +0.000 A 
ATOM      8  C   UNL     1       1.332   9.479  19.688  0.00  0.00    +0.000 A 
ATOM      9  C   UNL     1       1.874   8.628  18.731  0.00  0.00    +0.000 A 
ATOM     10  C   UNL     1       2.073   7.265  19.039  0.00  0.00    +0.000 A 
ATOM     11  C   UNL     1       2.592   6.332  18.112  0.00  0.00    +0.000 A 
ENDROOT
BRANCH   8  12
ATOM     12  S   UNL     1       0.937  11.162  19.338  0.00  0.00    +0.000 S 
ATOM     13  O   UNL     1       0.970  11.837  20.623  0.00  0.00    +0.000 OA
ATOM     14  O   UNL     1       1.785  11.605  18.249  0.00  0.00    +0.000 OA
BRANCH  12  15
ATOM     15  C   UNL     1      -0.743  11.233  18.763  0.00  0.00    +0.000 A 
ATOM     16  C   UNL     1      -1.682  11.975  19.482  0.00  0.00    +0.000 A 
ATOM     17  C   UNL     1      -3.023  11.939  19.102  0.00  0.00    +0.000 A 
ATOM     18  C   UNL     1      -3.440  11.175  17.999  0.00  0.00    +0.000 A 
ATOM     19  C   UNL     1      -4.910  11.110  17.682  0.00  0.00    +0.000 C 
ATOM     20  C   UNL     1      -2.479  10.472  17.240  0.00  0.00    +0.000 A 
ATOM     21  C   UNL     1      -2.836   9.650  16.031  0.00  0.00    +0.000 C 
ATOM     22  C   UNL     1      -1.126  10.518  17.626  0.00  0.00    +0.000 A 
ENDBRANCH  12  15
ENDBRANCH   8  12
BRANCH   9  23
ATOM     23  O   UNL     1       2.231   9.047  17.471  0.00  0.00    +0.000 OA
ATOM     24  H   UNL     1       2.807   8.389  17.028  0.00  0.00    +0.000 HD
ENDBRANCH   9  23
TORSDOF 3
ENDMDL
MODEL 5
REMARK VINA RESULT:      -7.5      5.561      8.583
REMARK  Name = 
REMARK  6 active torsions:
REMARK  status: ('A' for Active; 'I' for Inactive)
REMARK    1  A    between atoms: C_1  and  C_2
REMARK    2  A    between atoms: C_8  and  S_9
REMARK    3  A    between atoms: S_9  and  C_12
REMARK    4  A    between atoms: C_15  and  C_16
REMARK    5  A    between atoms: C_17  and  C_18
REMARK    6  A    between atoms: C_20  and  O_21
REMARK                            x       y       z     vdW  Elec       q    Type
REMARK                         _______ _______ _______ _____ _____    ______ ____
ROOT
ATOM      1  C   UNL     1       3.510   3.917  17.067  0.00  0.00    +0.000 C 
ATOM      2  C   UNL     1       2.968   4.799  18.152  0.00  0.00    +0.000 A 
ATOM      3  C   UNL     1       2.664   4.292  19.413  0.00  0.00    +0.000 A 
ATOM      4  C   UNL     1       2.173   5.141  20.411  0.00  0.00    +0.000 A 
ATOM      5  C   UNL     1       1.943   6.491  20.176  0.00  0.00    +0.000 A 
ATOM      6  N   UNL     1       1.428   7.248  21.162  0.00  0.00    +0.000 NA
ATOM      7  C   UNL     1       1.150   8.547  20.897  0.00  0.00    +0.000 A 
ATOM      8  C   UNL     1       1.410   9.153  19.688  0.00  0.00    +0.000 A 
ATOM      9  C   UNL     1       1.960   8.381  18.670  0.00  0.00    +0.000 A 
ATOM     10  C   UNL     1       2.239   7.016  18.900  0.00  0.00    +0.000 A 
ATOM     11  C   UNL     1       2.770   6.160  17.909  0.00  0.00    +0.000 A 
ENDROOT
BRANCH   8  12
ATOM     12  S   UNL     1       0.917  10.828  19.439  0.00  0.00    +0.000 S 
ATOM     13  O   UNL     1       0.906  11.423  20.764  0.00  0.00    +0.000 OA
ATOM     14  O   UNL     1       1.742  11.387  18.386  0.00  0.00    +0.000 OA
BRANCH  12  15
ATOM     15  C   UNL     1      -0.761  10.836  18.857  0.00  0.00    +0.000 A 
ATOM     16  C   UNL     1      -1.097  10.090  17.726  0.00  0.00    +0.000 A 
ATOM     17  C   UNL     1      -2.383  10.185  17.197  0.00  0.00    +0.000 A 
ATOM     18  C   UNL     1      -3.349  11.014  17.792  0.00  0.00    +0.000 A 
ATOM     19  C   UNL     1      -4.696  11.140  17.133  0.00  0.00    +0.000 C 
ATOM     20  C   UNL     1      -3.022  11.723  18.969  0.00  0.00    +0.000 A 
ATOM     21  C   UNL     1      -4.002  12.613  19.684  0.00  0.00    +0.000 C 
ATOM     22  C   UNL     1      -1.724  11.617  19.501  0.00  0.00    +0.000 A 
ENDBRANCH  12  15
ENDBRANCH   8  12
BRANCH   9  23
ATOM     23  O   UNL     1       2.249   8.881  17.422  0.00  0.00    +0.000 OA
ATOM     24  H   UNL     1       2.328   8.161  16.762  0.00  0.00    +0.000 HD
ENDBRANCH   9  23
TORSDOF 3
ENDMDL
MODEL 6
REMARK VINA RESULT:      -7.5      3.751      5.221
REMARK  Name = 
REMARK  6 active torsions:
REMARK  status: ('A' for Active; 'I' for Inactive)
REMARK    1  A    between atoms: C_1  and  C_2
REMARK    2  A    between atoms: C_8  and  S_9
REMARK    3  A    between atoms: S_9  and  C_12
REMARK    4  A    between atoms: C_15  and  C_16
REMARK    5  A    between atoms: C_17  and  C_18
REMARK    6  A    between atoms: C_20  and  O_21
REMARK                            x       y       z     vdW  Elec       q    Type
REMARK                         _______ _______ _______ _____ _____    ______ ____
ROOT
ATOM      1  C   UNL     1      -0.548  11.749  22.274  0.00  0.00    +0.000 C 
ATOM      2  C   UNL     1       0.063  11.104  21.065  0.00  0.00    +0.000 A 
ATOM      3  C   UNL     1       0.083  11.751  19.832  0.00  0.00    +0.000 A 
ATOM      4  C   UNL     1       0.672  11.130  18.724  0.00  0.00    +0.000 A 
ATOM      5  C   UNL     1       1.220   9.856  18.804  0.00  0.00    +0.000 A 
ATOM      6  N   UNL     1       1.733   9.294  17.693  0.00  0.00    +0.000 NA
ATOM      7  C   UNL     1       2.205   8.027  17.774  0.00  0.00    +0.000 A 
ATOM      8  C   UNL     1       2.235   7.295  18.940  0.00  0.00    +0.000 A 
ATOM      9  C   UNL     1       1.724   7.876  20.095  0.00  0.00    +0.000 A 
ATOM     10  C   UNL     1       1.199   9.186  20.046  0.00  0.00    +0.000 A 
ATOM     11  C   UNL     1       0.636   9.834  21.169  0.00  0.00    +0.000 A 
ENDROOT
BRANCH   8  12
ATOM     12  S   UNL     1       2.791   5.622  18.893  0.00  0.00    +0.000 S 
ATOM     13  O   UNL     1       3.373   5.376  20.201  0.00  0.00    +0.000 OA
ATOM     14  O   UNL     1       1.702   4.799  18.404  0.00  0.00    +0.000 OA
BRANCH  12  15
ATOM     15  C   UNL     1       4.113   5.506  17.711  0.00  0.00    +0.000 A 
ATOM     16  C   UNL     1       4.041   4.548  16.697  0.00  0.00    +0.000 A 
ATOM     17  C   UNL     1       5.127   4.374  15.840  0.00  0.00    +0.000 A 
ATOM     18  C   UNL     1       6.287   5.156  15.976  0.00  0.00    +0.000 A 
ATOM     19  C   UNL     1       7.457   4.872  15.073  0.00  0.00    +0.000 C 
ATOM     20  C   UNL     1       6.332   6.162  16.966  0.00  0.00    +0.000 A 
ATOM     21  C   UNL     1       7.523   7.059  17.164  0.00  0.00    +0.000 C 
ATOM     22  C   UNL     1       5.230   6.336  17.824  0.00  0.00    +0.000 A 
ENDBRANCH  12  15
ENDBRANCH   8  12
BRANCH   9  23
ATOM     23  O   UNL     1       1.695   7.233  21.310  0.00  0.00    +0.000 OA
ATOM     24  H   UNL     1       1.239   7.774  21.987  0.00  0.00    +0.000 HD
ENDBRANCH   9  23
TORSDOF 3
ENDMDL
MODEL 7
REMARK VINA RESULT:      -7.5      5.487      8.256
REMARK  Name = 
REMARK  6 active torsions:
REMARK  status: ('A' for Active; 'I' for Inactive)
REMARK    1  A    between atoms: C_1  and  C_2
REMARK    2  A    between atoms: C_8  and  S_9
REMARK    3  A    between atoms: S_9  and  C_12
REMARK    4  A    between atoms: C_15  and  C_16
REMARK    5  A    between atoms: C_17  and  C_18
REMARK    6  A    between atoms: C_20  and  O_21
REMARK                            x       y       z     vdW  Elec       q    Type
REMARK                         _______ _______ _______ _____ _____    ______ ____
ROOT
ATOM      1  C   UNL     1       2.197   3.500  21.517  0.00  0.00    +0.000 C 
ATOM      2  C   UNL     1       2.344   4.607  20.516  0.00  0.00    +0.000 A 
ATOM      3  C   UNL     1       3.047   4.420  19.328  0.00  0.00    +0.000 A 
ATOM      4  C   UNL     1       3.156   5.467  18.406  0.00  0.00    +0.000 A 
ATOM      5  C   UNL     1       2.604   6.719  18.650  0.00  0.00    +0.000 A 
ATOM      6  N   UNL     1       2.781   7.699  17.744  0.00  0.00    +0.000 NA
ATOM      7  C   UNL     1       2.291   8.930  18.026  0.00  0.00    +0.000 A 
ATOM      8  C   UNL     1       1.581   9.227  19.168  0.00  0.00    +0.000 A 
ATOM      9  C   UNL     1       1.379   8.214  20.099  0.00  0.00    +0.000 A 
ATOM     10  C   UNL     1       1.896   6.924  19.853  0.00  0.00    +0.000 A 
ATOM     11  C   UNL     1       1.758   5.851  20.763  0.00  0.00    +0.000 A 
ENDROOT
BRANCH   8  12
ATOM     12  S   UNL     1       1.076  10.891  19.460  0.00  0.00    +0.000 S 
ATOM     13  O   UNL     1       1.049  11.034  20.905  0.00  0.00    +0.000 OA
ATOM     14  O   UNL     1       1.905  11.761  18.648  0.00  0.00    +0.000 OA
BRANCH  12  15
ATOM     15  C   UNL     1      -0.598  11.075  18.893  0.00  0.00    +0.000 A 
ATOM     16  C   UNL     1      -1.471  11.906  19.597  0.00  0.00    +0.000 A 
ATOM     17  C   UNL     1      -2.814  11.963  19.225  0.00  0.00    +0.000 A 
ATOM     18  C   UNL     1      -3.297  11.203  18.146  0.00  0.00    +0.000 A 
ATOM     19  C   UNL     1      -4.770  11.242  17.840  0.00  0.00    +0.000 C 
ATOM     20  C   UNL     1      -2.398  10.408  17.402  0.00  0.00    +0.000 A 
ATOM     21  C   UNL     1      -2.826   9.583  16.219  0.00  0.00    +0.000 C 
ATOM     22  C   UNL     1      -1.043  10.361  17.778  0.00  0.00    +0.000 A 
ENDBRANCH  12  15
ENDBRANCH   8  12
BRANCH   9  23
ATOM     23  O   UNL     1       0.693   8.403  21.276  0.00  0.00    +0.000 OA
ATOM     24  H   UNL     1       0.581   9.356  21.471  0.00  0.00    +0.000 HD
ENDBRANCH   9  23
TORSDOF 3
ENDMDL
MODEL 8
REMARK VINA RESULT:      -7.4      6.333      9.182
REMARK  Name = 
REMARK  6 active torsions:
REMARK  status: ('A' for Active; 'I' for Inactive)
REMARK    1  A    between atoms: C_1  and  C_2
REMARK    2  A    between atoms: C_8  and  S_9
REMARK    3  A    between atoms: S_9  and  C_12
REMARK    4  A    between atoms: C_15  and  C_16
REMARK    5  A    between atoms: C_17  and  C_18
REMARK    6  A    between atoms: C_20  and  O_21
REMARK                            x       y       z     vdW  Elec       q    Type
REMARK                         _______ _______ _______ _____ _____    ______ ____
ROOT
ATOM      1  C   UNL     1       3.471   5.338  17.468  0.00  0.00    +0.000 C 
ATOM      2  C   UNL     1       2.806   6.219  18.483  0.00  0.00    +0.000 A 
ATOM      3  C   UNL     1       2.474   5.742  19.749  0.00  0.00    +0.000 A 
ATOM      4  C   UNL     1       1.867   6.592  20.681  0.00  0.00    +0.000 A 
ATOM      5  C   UNL     1       1.548   7.909  20.374  0.00  0.00    +0.000 A 
ATOM      6  N   UNL     1       0.924   8.663  21.297  0.00  0.00    +0.000 NA
ATOM      7  C   UNL     1       0.563   9.924  20.960  0.00  0.00    +0.000 A 
ATOM      8  C   UNL     1       0.840  10.497  19.738  0.00  0.00    +0.000 A 
ATOM      9  C   UNL     1       1.500   9.729  18.785  0.00  0.00    +0.000 A 
ATOM     10  C   UNL     1       1.870   8.401  19.091  0.00  0.00    +0.000 A 
ATOM     11  C   UNL     1       2.518   7.549  18.168  0.00  0.00    +0.000 A 
ENDROOT
BRANCH   8  12
ATOM     12  S   UNL     1       0.235  12.117  19.389  0.00  0.00    +0.000 S 
ATOM     13  O   UNL     1       0.170  12.786  20.676  0.00  0.00    +0.000 OA
ATOM     14  O   UNL     1       1.028  12.670  18.309  0.00  0.00    +0.000 OA
BRANCH  12  15
ATOM     15  C   UNL     1      -1.435  11.974  18.798  0.00  0.00    +0.000 A 
ATOM     16  C   UNL     1      -2.492  12.303  19.649  0.00  0.00    +0.000 A 
ATOM     17  C   UNL     1      -3.804  12.082  19.232  0.00  0.00    +0.000 A 
ATOM     18  C   UNL     1      -4.076  11.542  17.963  0.00  0.00    +0.000 A 
ATOM     19  C   UNL     1      -5.507  11.250  17.596  0.00  0.00    +0.000 C 
ATOM     20  C   UNL     1      -3.007  11.263  17.085  0.00  0.00    +0.000 A 
ATOM     21  C   UNL     1      -3.210  10.706  15.702  0.00  0.00    +0.000 C 
ATOM     22  C   UNL     1      -1.685  11.496  17.511  0.00  0.00    +0.000 A 
ENDBRANCH  12  15
ENDBRANCH   8  12
BRANCH   9  23
ATOM     23  O   UNL     1       1.817  10.197  17.532  0.00  0.00    +0.000 OA
ATOM     24  H   UNL     1       2.470  10.927  17.581  0.00  0.00    +0.000 HD
ENDBRANCH   9  23
TORSDOF 3
ENDMDL
MODEL 9
REMARK VINA RESULT:      -7.4      5.540      8.449
REMARK  Name = 
REMARK  6 active torsions:
REMARK  status: ('A' for Active; 'I' for Inactive)
REMARK    1  A    between atoms: C_1  and  C_2
REMARK    2  A    between atoms: C_8  and  S_9
REMARK    3  A    between atoms: S_9  and  C_12
REMARK    4  A    between atoms: C_15  and  C_16
REMARK    5  A    between atoms: C_17  and  C_18
REMARK    6  A    between atoms: C_20  and  O_21
REMARK                            x       y       z     vdW  Elec       q    Type
REMARK                         _______ _______ _______ _____ _____    ______ ____
ROOT
ATOM      1  C   UNL     1       2.232   3.388  21.609  0.00  0.00    +0.000 C 
ATOM      2  C   UNL     1       2.401   4.485  20.600  0.00  0.00    +0.000 A 
ATOM      3  C   UNL     1       3.173   4.303  19.455  0.00  0.00    +0.000 A 
ATOM      4  C   UNL     1       3.301   5.340  18.524  0.00  0.00    +0.000 A 
ATOM      5  C   UNL     1       2.702   6.579  18.720  0.00  0.00    +0.000 A 
ATOM      6  N   UNL     1       2.899   7.551  17.810  0.00  0.00    +0.000 NA
ATOM      7  C   UNL     1       2.361   8.772  18.047  0.00  0.00    +0.000 A 
ATOM      8  C   UNL     1       1.582   9.063  19.145  0.00  0.00    +0.000 A 
ATOM      9  C   UNL     1       1.359   8.057  20.080  0.00  0.00    +0.000 A 
ATOM     10  C   UNL     1       1.925   6.779  19.880  0.00  0.00    +0.000 A 
ATOM     11  C   UNL     1       1.769   5.715  20.798  0.00  0.00    +0.000 A 
ENDROOT
BRANCH   8  12
ATOM     12  S   UNL     1       1.016  10.716  19.386  0.00  0.00    +0.000 S 
ATOM     13  O   UNL     1       1.030  10.919  20.824  0.00  0.00    +0.000 OA
ATOM     14  O   UNL     1       1.778  11.584  18.510  0.00  0.00    +0.000 OA
BRANCH  12  15
ATOM     15  C   UNL     1      -0.682  10.805  18.870  0.00  0.00    +0.000 A 
ATOM     16  C   UNL     1      -1.089  10.109  17.730  0.00  0.00    +0.000 A 
ATOM     17  C   UNL     1      -2.390  10.270  17.255  0.00  0.00    +0.000 A 
ATOM     18  C   UNL     1      -3.300  11.114  17.914  0.00  0.00    +0.000 A 
ATOM     19  C   UNL     1      -4.665  11.310  17.313  0.00  0.00    +0.000 C 
ATOM     20  C   UNL     1      -2.902  11.770  19.099  0.00  0.00    +0.000 A 
ATOM     21  C   UNL     1      -3.820  12.672  19.880  0.00  0.00    +0.000 C 
ATOM     22  C   UNL     1      -1.589  11.599  19.576  0.00  0.00    +0.000 A 
ENDBRANCH  12  15
ENDBRANCH   8  12
BRANCH   9  23
ATOM     23  O   UNL     1       0.607   8.242  21.216  0.00  0.00    +0.000 OA
ATOM     24  H   UNL     1      -0.047   8.962  21.095  0.00  0.00    +0.000 HD
ENDBRANCH   9  23
TORSDOF 3
ENDMDL
