MODEL 1
REMARK VINA RESULT:     -10.1      0.000      0.000
REMARK  Name = 
REMARK  12 active torsions:
REMARK  status: ('A' for Active; 'I' for Inactive)
REMARK    1  A    between atoms: N_4  and  C_5
REMARK    2  A    between atoms: C_5  and  C_6
REMARK    3  A    between atoms: C_6  and  C_7
REMARK    4  A    between atoms: C_7  and  C_8
REMARK    5  A    between atoms: C_8  and  N_9
REMARK    6  A    between atoms: C_8  and  C_25
REMARK    7  A    between atoms: C_10  and  C_12
REMARK    8  A    between atoms: C_12  and  C_13
REMARK    9  A    between atoms: C_12  and  C_19
REMARK   10  A    between atoms: N_27  and  C_28
REMARK   11  A    between atoms: C_28  and  C_29
REMARK   12  A    between atoms: C_29  and  C_30
REMARK                            x       y       z     vdW  Elec       q    Type
REMARK                         _______ _______ _______ _____ _____    ______ ____
ROOT
ATOM      1  C   UNL     1       6.176   6.312  16.477  0.00  0.00    +0.000 C 
ENDROOT
BRANCH   1   2
ATOM      2  N   UNL     1       4.762   6.453  16.863  0.00  0.00    +0.000 N 
ATOM      3  C   UNL     1       4.222   5.712  17.901  0.00  0.00    +0.000 C 
ATOM      4  O   UNL     1       4.936   4.999  18.609  0.00  0.00    +0.000 OA
ATOM      5  H   UNL     1       4.135   6.858  16.176  0.00  0.00    +0.000 HD
BRANCH   3   6
ATOM      6  C   UNL     1       2.680   5.855  18.110  0.00  0.00    +0.000 C 
BRANCH   6   7
ATOM      7  C   UNL     1       2.243   4.732  19.051  0.00  0.00    +0.000 A 
ATOM      8  C   UNL     1       1.402   3.705  18.591  0.00  0.00    +0.000 A 
ATOM      9  C   UNL     1       0.867   2.775  19.481  0.00  0.00    +0.000 A 
ATOM     10  C   UNL     1       1.171   2.859  20.838  0.00  0.00    +0.000 A 
ATOM     11  C   UNL     1       2.049   3.839  21.298  0.00  0.00    +0.000 A 
ATOM     12  C   UNL     1       2.596   4.764  20.408  0.00  0.00    +0.000 A 
ENDBRANCH   6   7
BRANCH   6  13
ATOM     13  C   UNL     1       2.239   7.266  18.544  0.00  0.00    +0.000 A 
ATOM     14  C   UNL     1       2.051   8.289  17.598  0.00  0.00    +0.000 A 
ATOM     15  C   UNL     1       1.683   9.580  17.986  0.00  0.00    +0.000 A 
ATOM     16  C   UNL     1       1.455   9.869  19.328  0.00  0.00    +0.000 A 
ATOM     17  C   UNL     1       1.577   8.859  20.277  0.00  0.00    +0.000 A 
ATOM     18  C   UNL     1       1.951   7.568  19.889  0.00  0.00    +0.000 A 
ENDBRANCH   6  13
ENDBRANCH   3   6
ENDBRANCH   1   2
BRANCH   1  19
ATOM     19  C   UNL     1       7.112   6.955  17.541  0.00  0.00    +0.000 C 
ATOM     20  O   UNL     1       7.534   6.325  18.508  0.00  0.00    +0.000 OA
ATOM     21  N   UNL     1       7.446   8.288  17.321  0.00  0.00    +0.000 N 
ATOM     22  H   UNL     1       7.253   8.709  16.422  0.00  0.00    +0.000 HD
BRANCH  21  23
ATOM     23  C   UNL     1       8.374   8.967  18.215  0.00  0.00    +0.000 C 
BRANCH  23  24
ATOM     24  C   UNL     1       8.389  10.492  18.052  0.00  0.00    +0.000 C 
BRANCH  24  25
ATOM     25  C   UNL     1       9.652  11.097  18.621  0.00  0.00    +0.000 A 
ATOM     26  C   UNL     1       9.805  11.263  20.001  0.00  0.00    +0.000 A 
ATOM     27  C   UNL     1      10.981  11.822  20.491  0.00  0.00    +0.000 A 
ATOM     28  C   UNL     1      11.980  12.192  19.602  0.00  0.00    +0.000 A 
ATOM     29  C   UNL     1      11.757  11.987  18.251  0.00  0.00    +0.000 A 
ATOM     30  N   UNL     1      10.621  11.452  17.745  0.00  0.00    +0.000 NA
ENDBRANCH  24  25
ENDBRANCH  23  24
ENDBRANCH  21  23
ENDBRANCH   1  19
BRANCH   1  31
ATOM     31  C   UNL     1       6.525   4.830  16.285  0.00  0.00    +0.000 C 
BRANCH  31  32
ATOM     32  C   UNL     1       6.993   4.509  14.866  0.00  0.00    +0.000 C 
BRANCH  32  33
ATOM     33  C   UNL     1       5.824   4.185  13.932  0.00  0.00    +0.000 C 
BRANCH  33  37
ATOM     34  N   UNL     1       4.392   3.259  11.598  0.00  0.00    +0.000 NA
ATOM     35  C   UNL     1       5.493   2.714  11.984  0.00  0.00    +0.000 C 
ATOM     36  N   UNL     1       6.032   1.647  11.363  0.00  0.00    +0.000 N 
ATOM     37  N   UNL     1       6.239   3.134  13.023  0.00  0.00    +0.000 N 
ATOM     38  H   UNL     1       4.018   2.743  10.809  0.00  0.00    +0.000 HD
ATOM     39  H   UNL     1       5.703   1.483  10.419  0.00  0.00    +0.000 HD
ATOM     40  H   UNL     1       7.039   1.581  11.420  0.00  0.00    +0.000 HD
ATOM     41  H   UNL     1       6.958   2.512  13.359  0.00  0.00    +0.000 HD
ENDBRANCH  33  37
ENDBRANCH  32  33
ENDBRANCH  31  32
ENDBRANCH   1  31
TORSDOF 12
ENDMDL
MODEL 2
REMARK VINA RESULT:     -10.0      1.007      3.392
REMARK  Name = 
REMARK  12 active torsions:
REMARK  status: ('A' for Active; 'I' for Inactive)
REMARK    1  A    between atoms: N_4  and  C_5
REMARK    2  A    between atoms: C_5  and  C_6
REMARK    3  A    between atoms: C_6  and  C_7
REMARK    4  A    between atoms: C_7  and  C_8
REMARK    5  A    between atoms: C_8  and  N_9
REMARK    6  A    between atoms: C_8  and  C_25
REMARK    7  A    between atoms: C_10  and  C_12
REMARK    8  A    between atoms: C_12  and  C_13
REMARK    9  A    between atoms: C_12  and  C_19
REMARK   10  A    between atoms: N_27  and  C_28
REMARK   11  A    between atoms: C_28  and  C_29
REMARK   12  A    between atoms: C_29  and  C_30
REMARK                            x       y       z     vdW  Elec       q    Type
REMARK                         _______ _______ _______ _____ _____    ______ ____
ROOT
ATOM      1  C   UNL     1       5.904   5.805  17.060  0.00  0.00    +0.000 C 
ENDROOT
BRANCH   1   2
ATOM      2  N   UNL     1       4.848   5.697  18.079  0.00  0.00    +0.000 N 
ATOM      3  C   UNL     1       3.850   6.653  18.185  0.00  0.00    +0.000 C 
ATOM      4  O   UNL     1       3.750   7.560  17.355  0.00  0.00    +0.000 OA
ATOM      5  H   UNL     1       5.034   5.099  18.876  0.00  0.00    +0.000 HD
BRANCH   3   6
ATOM      6  C   UNL     1       2.878   6.492  19.397  0.00  0.00    +0.000 C 
BRANCH   6   7
ATOM      7  C   UNL     1       1.979   7.728  19.426  0.00  0.00    +0.000 A 
ATOM      8  C   UNL     1       1.697   8.431  18.242  0.00  0.00    +0.000 A 
ATOM      9  C   UNL     1       1.019   9.649  18.285  0.00  0.00    +0.000 A 
ATOM     10  C   UNL     1       0.613  10.173  19.510  0.00  0.00    +0.000 A 
ATOM     11  C   UNL     1       0.837   9.458  20.685  0.00  0.00    +0.000 A 
ATOM     12  C   UNL     1       1.504   8.234  20.645  0.00  0.00    +0.000 A 
ENDBRANCH   6   7
BRANCH   6  13
ATOM     13  C   UNL     1       2.125   5.149  19.417  0.00  0.00    +0.000 A 
ATOM     14  C   UNL     1       1.645   4.605  20.623  0.00  0.00    +0.000 A 
ATOM     15  C   UNL     1       0.990   3.371  20.654  0.00  0.00    +0.000 A 
ATOM     16  C   UNL     1       0.764   2.669  19.474  0.00  0.00    +0.000 A 
ATOM     17  C   UNL     1       1.176   3.214  18.262  0.00  0.00    +0.000 A 
ATOM     18  C   UNL     1       1.838   4.446  18.231  0.00  0.00    +0.000 A 
ENDBRANCH   6  13
ENDBRANCH   3   6
ENDBRANCH   1   2
BRANCH   1  19
ATOM     19  C   UNL     1       7.173   6.495  17.640  0.00  0.00    +0.000 C 
ATOM     20  O   UNL     1       8.071   5.857  18.187  0.00  0.00    +0.000 OA
ATOM     21  N   UNL     1       7.227   7.877  17.493  0.00  0.00    +0.000 N 
ATOM     22  H   UNL     1       6.581   8.338  16.867  0.00  0.00    +0.000 HD
BRANCH  21  23
ATOM     23  C   UNL     1       8.403   8.614  17.936  0.00  0.00    +0.000 C 
BRANCH  23  24
ATOM     24  C   UNL     1       8.192  10.132  18.010  0.00  0.00    +0.000 C 
BRANCH  24  25
ATOM     25  C   UNL     1       9.369  10.824  18.658  0.00  0.00    +0.000 A 
ATOM     26  C   UNL     1      10.447  11.269  17.888  0.00  0.00    +0.000 A 
ATOM     27  C   UNL     1      11.515  11.904  18.516  0.00  0.00    +0.000 A 
ATOM     28  C   UNL     1      11.480  12.091  19.890  0.00  0.00    +0.000 A 
ATOM     29  C   UNL     1      10.373  11.630  20.582  0.00  0.00    +0.000 A 
ATOM     30  N   UNL     1       9.323  11.003  19.999  0.00  0.00    +0.000 NA
ENDBRANCH  24  25
ENDBRANCH  23  24
ENDBRANCH  21  23
ENDBRANCH   1  19
BRANCH   1  31
ATOM     31  C   UNL     1       6.255   4.415  16.513  0.00  0.00    +0.000 C 
BRANCH  31  32
ATOM     32  C   UNL     1       5.545   4.097  15.197  0.00  0.00    +0.000 C 
BRANCH  32  33
ATOM     33  C   UNL     1       6.388   4.482  13.979  0.00  0.00    +0.000 C 
BRANCH  33  37
ATOM     34  N   UNL     1       4.649   3.695  11.808  0.00  0.00    +0.000 NA
ATOM     35  C   UNL     1       5.652   2.975  12.174  0.00  0.00    +0.000 C 
ATOM     36  N   UNL     1       5.936   1.786  11.610  0.00  0.00    +0.000 N 
ATOM     37  N   UNL     1       6.534   3.312  13.133  0.00  0.00    +0.000 N 
ATOM     38  H   UNL     1       4.129   3.209  11.085  0.00  0.00    +0.000 HD
ATOM     39  H   UNL     1       5.517   1.626  10.702  0.00  0.00    +0.000 HD
ATOM     40  H   UNL     1       6.914   1.531  11.615  0.00  0.00    +0.000 HD
ATOM     41  H   UNL     1       7.145   2.587  13.477  0.00  0.00    +0.000 HD
ENDBRANCH  33  37
ENDBRANCH  32  33
ENDBRANCH  31  32
ENDBRANCH   1  31
TORSDOF 12
ENDMDL
MODEL 3
REMARK VINA RESULT:      -9.9      1.150      1.759
REMARK  Name = 
REMARK  12 active torsions:
REMARK  status: ('A' for Active; 'I' for Inactive)
REMARK    1  A    between atoms: N_4  and  C_5
REMARK    2  A    between atoms: C_5  and  C_6
REMARK    3  A    between atoms: C_6  and  C_7
REMARK    4  A    between atoms: C_7  and  C_8
REMARK    5  A    between atoms: C_8  and  N_9
REMARK    6  A    between atoms: C_8  and  C_25
REMARK    7  A    between atoms: C_10  and  C_12
REMARK    8  A    between atoms: C_12  and  C_13
REMARK    9  A    between atoms: C_12  and  C_19
REMARK   10  A    between atoms: N_27  and  C_28
REMARK   11  A    between atoms: C_28  and  C_29
REMARK   12  A    between atoms: C_29  and  C_30
REMARK                            x       y       z     vdW  Elec       q    Type
REMARK                         _______ _______ _______ _____ _____    ______ ____
ROOT
ATOM      1  C   UNL     1       6.345   5.899  16.475  0.00  0.00    +0.000 C 
ENDROOT
BRANCH   1   2
ATOM      2  N   UNL     1       4.930   5.727  16.843  0.00  0.00    +0.000 N 
ATOM      3  C   UNL     1       4.197   6.768  17.390  0.00  0.00    +0.000 C 
ATOM      4  O   UNL     1       4.674   7.901  17.478  0.00  0.00    +0.000 OA
ATOM      5  H   UNL     1       4.600   4.777  16.974  0.00  0.00    +0.000 HD
BRANCH   3   6
ATOM      6  C   UNL     1       2.753   6.408  17.864  0.00  0.00    +0.000 C 
BRANCH   6   7
ATOM      7  C   UNL     1       2.800   4.987  18.426  0.00  0.00    +0.000 A 
ATOM      8  C   UNL     1       3.854   4.588  19.266  0.00  0.00    +0.000 A 
ATOM      9  C   UNL     1       3.993   3.253  19.644  0.00  0.00    +0.000 A 
ATOM     10  C   UNL     1       3.077   2.306  19.192  0.00  0.00    +0.000 A 
ATOM     11  C   UNL     1       1.996   2.699  18.405  0.00  0.00    +0.000 A 
ATOM     12  C   UNL     1       1.847   4.036  18.035  0.00  0.00    +0.000 A 
ENDBRANCH   6   7
BRANCH   6  13
ATOM     13  C   UNL     1       2.129   7.453  18.809  0.00  0.00    +0.000 A 
ATOM     14  C   UNL     1       1.972   7.186  20.181  0.00  0.00    +0.000 A 
ATOM     15  C   UNL     1       1.377   8.115  21.039  0.00  0.00    +0.000 A 
ATOM     16  C   UNL     1       0.962   9.351  20.551  0.00  0.00    +0.000 A 
ATOM     17  C   UNL     1       1.161   9.662  19.210  0.00  0.00    +0.000 A 
ATOM     18  C   UNL     1       1.750   8.729  18.350  0.00  0.00    +0.000 A 
ENDBRANCH   6  13
ENDBRANCH   3   6
ENDBRANCH   1   2
BRANCH   1  19
ATOM     19  C   UNL     1       7.135   6.612  17.611  0.00  0.00    +0.000 C 
ATOM     20  O   UNL     1       7.336   6.081  18.701  0.00  0.00    +0.000 OA
ATOM     21  N   UNL     1       7.605   7.886  17.308  0.00  0.00    +0.000 N 
ATOM     22  H   UNL     1       7.600   8.206  16.349  0.00  0.00    +0.000 HD
BRANCH  21  23
ATOM     23  C   UNL     1       8.418   8.614  18.273  0.00  0.00    +0.000 C 
BRANCH  23  24
ATOM     24  C   UNL     1       8.388  10.137  18.087  0.00  0.00    +0.000 C 
BRANCH  24  25
ATOM     25  C   UNL     1       9.492  10.812  18.867  0.00  0.00    +0.000 A 
ATOM     26  C   UNL     1      10.713  11.115  18.258  0.00  0.00    +0.000 A 
ATOM     27  C   UNL     1      11.708  11.739  19.004  0.00  0.00    +0.000 A 
ATOM     28  C   UNL     1      11.462  12.056  20.333  0.00  0.00    +0.000 A 
ATOM     29  C   UNL     1      10.225  11.733  20.861  0.00  0.00    +0.000 A 
ATOM     30  N   UNL     1       9.240  11.120  20.161  0.00  0.00    +0.000 NA
ENDBRANCH  24  25
ENDBRANCH  23  24
ENDBRANCH  21  23
ENDBRANCH   1  19
BRANCH   1  31
ATOM     31  C   UNL     1       6.978   4.538  16.158  0.00  0.00    +0.000 C 
BRANCH  31  32
ATOM     32  C   UNL     1       6.165   3.724  15.151  0.00  0.00    +0.000 C 
BRANCH  32  33
ATOM     33  C   UNL     1       6.400   4.187  13.712  0.00  0.00    +0.000 C 
BRANCH  33  37
ATOM     34  N   UNL     1       4.505   3.350  11.695  0.00  0.00    +0.000 NA
ATOM     35  C   UNL     1       5.550   2.653  11.981  0.00  0.00    +0.000 C 
ATOM     36  N   UNL     1       5.812   1.466  11.401  0.00  0.00    +0.000 N 
ATOM     37  N   UNL     1       6.501   3.015  12.863  0.00  0.00    +0.000 N 
ATOM     38  H   UNL     1       3.939   2.848  11.019  0.00  0.00    +0.000 HD
ATOM     39  H   UNL     1       5.323   1.291  10.531  0.00  0.00    +0.000 HD
ATOM     40  H   UNL     1       6.792   1.232  11.327  0.00  0.00    +0.000 HD
ATOM     41  H   UNL     1       7.153   2.305  13.158  0.00  0.00    +0.000 HD
ENDBRANCH  33  37
ENDBRANCH  32  33
ENDBRANCH  31  32
ENDBRANCH   1  31
TORSDOF 12
ENDMDL
MODEL 4
REMARK VINA RESULT:      -9.9      1.275      3.373
REMARK  Name = 
REMARK  12 active torsions:
REMARK  status: ('A' for Active; 'I' for Inactive)
REMARK    1  A    between atoms: N_4  and  C_5
REMARK    2  A    between atoms: C_5  and  C_6
REMARK    3  A    between atoms: C_6  and  C_7
REMARK    4  A    between atoms: C_7  and  C_8
REMARK    5  A    between atoms: C_8  and  N_9
REMARK    6  A    between atoms: C_8  and  C_25
REMARK    7  A    between atoms: C_10  and  C_12
REMARK    8  A    between atoms: C_12  and  C_13
REMARK    9  A    between atoms: C_12  and  C_19
REMARK   10  A    between atoms: N_27  and  C_28
REMARK   11  A    between atoms: C_28  and  C_29
REMARK   12  A    between atoms: C_29  and  C_30
REMARK                            x       y       z     vdW  Elec       q    Type
REMARK                         _______ _______ _______ _____ _____    ______ ____
ROOT
ATOM      1  C   UNL     1       6.500   6.161  17.465  0.00  0.00    +0.000 C 
ENDROOT
BRANCH   1   2
ATOM      2  N   UNL     1       5.355   5.953  18.366  0.00  0.00    +0.000 N 
ATOM      3  C   UNL     1       4.128   6.548  18.120  0.00  0.00    +0.000 C 
ATOM      4  O   UNL     1       3.926   7.174  17.077  0.00  0.00    +0.000 OA
ATOM      5  H   UNL     1       5.560   5.631  19.306  0.00  0.00    +0.000 HD
BRANCH   3   6
ATOM      6  C   UNL     1       3.044   6.359  19.229  0.00  0.00    +0.000 C 
BRANCH   6   7
ATOM      7  C   UNL     1       2.146   7.596  19.201  0.00  0.00    +0.000 A 
ATOM      8  C   UNL     1       1.907   8.275  17.995  0.00  0.00    +0.000 A 
ATOM      9  C   UNL     1       1.229   9.494  17.990  0.00  0.00    +0.000 A 
ATOM     10  C   UNL     1       0.780  10.042  19.189  0.00  0.00    +0.000 A 
ATOM     11  C   UNL     1       0.963   9.350  20.385  0.00  0.00    +0.000 A 
ATOM     12  C   UNL     1       1.629   8.125  20.393  0.00  0.00    +0.000 A 
ENDBRANCH   6   7
BRANCH   6  13
ATOM     13  C   UNL     1       2.294   5.016  19.143  0.00  0.00    +0.000 A 
ATOM     14  C   UNL     1       2.265   4.278  17.947  0.00  0.00    +0.000 A 
ATOM     15  C   UNL     1       1.558   3.076  17.851  0.00  0.00    +0.000 A 
ATOM     16  C   UNL     1       0.897   2.563  18.963  0.00  0.00    +0.000 A 
ATOM     17  C   UNL     1       0.961   3.244  20.174  0.00  0.00    +0.000 A 
ATOM     18  C   UNL     1       1.662   4.451  20.268  0.00  0.00    +0.000 A 
ENDBRANCH   6  13
ENDBRANCH   3   6
ENDBRANCH   1   2
BRANCH   1  19
ATOM     19  C   UNL     1       7.602   7.021  18.150  0.00  0.00    +0.000 C 
ATOM     20  O   UNL     1       8.372   6.553  18.986  0.00  0.00    +0.000 OA
ATOM     21  N   UNL     1       7.662   8.352  17.748  0.00  0.00    +0.000 N 
ATOM     22  H   UNL     1       7.158   8.648  16.922  0.00  0.00    +0.000 HD
BRANCH  21  23
ATOM     23  C   UNL     1       8.701   9.227  18.272  0.00  0.00    +0.000 C 
BRANCH  23  24
ATOM     24  C   UNL     1       8.531  10.700  17.876  0.00  0.00    +0.000 C 
BRANCH  24  25
ATOM     25  C   UNL     1       9.586  11.572  18.516  0.00  0.00    +0.000 A 
ATOM     26  C   UNL     1      10.258  11.150  19.666  0.00  0.00    +0.000 A 
ATOM     27  C   UNL     1      11.225  11.976  20.230  0.00  0.00    +0.000 A 
ATOM     28  C   UNL     1      11.509  13.195  19.632  0.00  0.00    +0.000 A 
ATOM     29  C   UNL     1      10.807  13.539  18.489  0.00  0.00    +0.000 A 
ATOM     30  N   UNL     1       9.856  12.758  17.922  0.00  0.00    +0.000 NA
ENDBRANCH  24  25
ENDBRANCH  23  24
ENDBRANCH  21  23
ENDBRANCH   1  19
BRANCH   1  31
ATOM     31  C   UNL     1       7.077   4.809  17.022  0.00  0.00    +0.000 C 
BRANCH  31  32
ATOM     32  C   UNL     1       6.064   3.950  16.266  0.00  0.00    +0.000 C 
BRANCH  32  33
ATOM     33  C   UNL     1       5.468   4.686  15.063  0.00  0.00    +0.000 C 
BRANCH  33  37
ATOM     34  N   UNL     1       7.708   5.415  13.387  0.00  0.00    +0.000 NA
ATOM     35  C   UNL     1       6.920   4.441  13.088  0.00  0.00    +0.000 C 
ATOM     36  N   UNL     1       7.049   3.725  11.955  0.00  0.00    +0.000 N 
ATOM     37  N   UNL     1       5.899   4.012  13.853  0.00  0.00    +0.000 N 
ATOM     38  H   UNL     1       8.378   5.550  12.638  0.00  0.00    +0.000 HD
ATOM     39  H   UNL     1       7.955   3.785  11.505  0.00  0.00    +0.000 HD
ATOM     40  H   UNL     1       6.730   2.768  12.013  0.00  0.00    +0.000 HD
ATOM     41  H   UNL     1       5.229   3.390  13.427  0.00  0.00    +0.000 HD
ENDBRANCH  33  37
ENDBRANCH  32  33
ENDBRANCH  31  32
ENDBRANCH   1  31
TORSDOF 12
ENDMDL
MODEL 5
REMARK VINA RESULT:      -9.8      0.948      1.283
REMARK  Name = 
REMARK  12 active torsions:
REMARK  status: ('A' for Active; 'I' for Inactive)
REMARK    1  A    between atoms: N_4  and  C_5
REMARK    2  A    between atoms: C_5  and  C_6
REMARK    3  A    between atoms: C_6  and  C_7
REMARK    4  A    between atoms: C_7  and  C_8
REMARK    5  A    between atoms: C_8  and  N_9
REMARK    6  A    between atoms: C_8  and  C_25
REMARK    7  A    between atoms: C_10  and  C_12
REMARK    8  A    between atoms: C_12  and  C_13
REMARK    9  A    between atoms: C_12  and  C_19
REMARK   10  A    between atoms: N_27  and  C_28
REMARK   11  A    between atoms: C_28  and  C_29
REMARK   12  A    between atoms: C_29  and  C_30
REMARK                            x       y       z     vdW  Elec       q    Type
REMARK                         _______ _______ _______ _____ _____    ______ ____
ROOT
ATOM      1  C   UNL     1       6.220   5.796  16.569  0.00  0.00    +0.000 C 
ENDROOT
BRANCH   1   2
ATOM      2  N   UNL     1       4.823   5.610  16.994  0.00  0.00    +0.000 N 
ATOM      3  C   UNL     1       3.978   6.692  17.183  0.00  0.00    +0.000 C 
ATOM      4  O   UNL     1       4.337   7.835  16.890  0.00  0.00    +0.000 OA
ATOM      5  H   UNL     1       4.587   4.726  17.433  0.00  0.00    +0.000 HD
BRANCH   3   6
ATOM      6  C   UNL     1       2.569   6.362  17.770  0.00  0.00    +0.000 C 
BRANCH   6   7
ATOM      7  C   UNL     1       2.638   4.948  18.348  0.00  0.00    +0.000 A 
ATOM      8  C   UNL     1       1.769   3.946  17.885  0.00  0.00    +0.000 A 
ATOM      9  C   UNL     1       1.712   2.707  18.522  0.00  0.00    +0.000 A 
ATOM     10  C   UNL     1       2.527   2.456  19.623  0.00  0.00    +0.000 A 
ATOM     11  C   UNL     1       3.433   3.422  20.057  0.00  0.00    +0.000 A 
ATOM     12  C   UNL     1       3.501   4.658  19.415  0.00  0.00    +0.000 A 
ENDBRANCH   6   7
BRANCH   6  13
ATOM     13  C   UNL     1       2.034   7.430  18.743  0.00  0.00    +0.000 A 
ATOM     14  C   UNL     1       1.964   7.180  20.126  0.00  0.00    +0.000 A 
ATOM     15  C   UNL     1       1.449   8.130  21.011  0.00  0.00    +0.000 A 
ATOM     16  C   UNL     1       1.029   9.370  20.540  0.00  0.00    +0.000 A 
ATOM     17  C   UNL     1       1.144   9.664  19.185  0.00  0.00    +0.000 A 
ATOM     18  C   UNL     1       1.653   8.710  18.297  0.00  0.00    +0.000 A 
ENDBRANCH   6  13
ENDBRANCH   3   6
ENDBRANCH   1   2
BRANCH   1  19
ATOM     19  C   UNL     1       7.041   6.543  17.660  0.00  0.00    +0.000 C 
ATOM     20  O   UNL     1       7.237   6.063  18.775  0.00  0.00    +0.000 OA
ATOM     21  N   UNL     1       7.545   7.785  17.288  0.00  0.00    +0.000 N 
ATOM     22  H   UNL     1       7.541   8.054  16.313  0.00  0.00    +0.000 HD
BRANCH  21  23
ATOM     23  C   UNL     1       8.388   8.538  18.207  0.00  0.00    +0.000 C 
BRANCH  23  24
ATOM     24  C   UNL     1       8.234  10.059  18.086  0.00  0.00    +0.000 C 
BRANCH  24  25
ATOM     25  C   UNL     1       9.414  10.785  18.691  0.00  0.00    +0.000 A 
ATOM     26  C   UNL     1       9.470  11.035  20.065  0.00  0.00    +0.000 A 
ATOM     27  C   UNL     1      10.571  11.704  20.590  0.00  0.00    +0.000 A 
ATOM     28  C   UNL     1      11.594  12.099  19.740  0.00  0.00    +0.000 A 
ATOM     29  C   UNL     1      11.470  11.807  18.392  0.00  0.00    +0.000 A 
ATOM     30  N   UNL     1      10.408  11.163  17.853  0.00  0.00    +0.000 NA
ENDBRANCH  24  25
ENDBRANCH  23  24
ENDBRANCH  21  23
ENDBRANCH   1  19
BRANCH   1  31
ATOM     31  C   UNL     1       6.862   4.438  16.255  0.00  0.00    +0.000 C 
BRANCH  31  32
ATOM     32  C   UNL     1       6.043   3.608  15.265  0.00  0.00    +0.000 C 
BRANCH  32  33
ATOM     33  C   UNL     1       6.173   4.129  13.831  0.00  0.00    +0.000 C 
BRANCH  33  37
ATOM     34  N   UNL     1       4.507   3.353  11.599  0.00  0.00    +0.000 NA
ATOM     35  C   UNL     1       5.531   2.660  11.960  0.00  0.00    +0.000 C 
ATOM     36  N   UNL     1       5.872   1.503  11.361  0.00  0.00    +0.000 N 
ATOM     37  N   UNL     1       6.381   2.996  12.949  0.00  0.00    +0.000 N 
ATOM     38  H   UNL     1       4.021   2.873  10.849  0.00  0.00    +0.000 HD
ATOM     39  H   UNL     1       5.477   1.359  10.440  0.00  0.00    +0.000 HD
ATOM     40  H   UNL     1       6.859   1.286  11.377  0.00  0.00    +0.000 HD
ATOM     41  H   UNL     1       7.013   2.283  13.279  0.00  0.00    +0.000 HD
ENDBRANCH  33  37
ENDBRANCH  32  33
ENDBRANCH  31  32
ENDBRANCH   1  31
TORSDOF 12
ENDMDL
MODEL 6
REMARK VINA RESULT:      -9.7      0.742      1.377
REMARK  Name = 
REMARK  12 active torsions:
REMARK  status: ('A' for Active; 'I' for Inactive)
REMARK    1  A    between atoms: N_4  and  C_5
REMARK    2  A    between atoms: C_5  and  C_6
REMARK    3  A    between atoms: C_6  and  C_7
REMARK    4  A    between atoms: C_7  and  C_8
REMARK    5  A    between atoms: C_8  and  N_9
REMARK    6  A    between atoms: C_8  and  C_25
REMARK    7  A    between atoms: C_10  and  C_12
REMARK    8  A    between atoms: C_12  and  C_13
REMARK    9  A    between atoms: C_12  and  C_19
REMARK   10  A    between atoms: N_27  and  C_28
REMARK   11  A    between atoms: C_28  and  C_29
REMARK   12  A    between atoms: C_29  and  C_30
REMARK                            x       y       z     vdW  Elec       q    Type
REMARK                         _______ _______ _______ _____ _____    ______ ____
ROOT
ATOM      1  C   UNL     1       6.565   6.261  16.647  0.00  0.00    +0.000 C 
ENDROOT
BRANCH   1   2
ATOM      2  N   UNL     1       5.110   6.445  16.777  0.00  0.00    +0.000 N 
ATOM      3  C   UNL     1       4.395   5.831  17.793  0.00  0.00    +0.000 C 
ATOM      4  O   UNL     1       4.972   5.207  18.686  0.00  0.00    +0.000 OA
ATOM      5  H   UNL     1       4.610   6.766  15.955  0.00  0.00    +0.000 HD
BRANCH   3   6
ATOM      6  C   UNL     1       2.843   5.996  17.729  0.00  0.00    +0.000 C 
BRANCH   6   7
ATOM      7  C   UNL     1       2.227   4.668  18.168  0.00  0.00    +0.000 A 
ATOM      8  C   UNL     1       1.468   4.591  19.348  0.00  0.00    +0.000 A 
ATOM      9  C   UNL     1       1.046   3.357  19.841  0.00  0.00    +0.000 A 
ATOM     10  C   UNL     1       1.374   2.189  19.156  0.00  0.00    +0.000 A 
ATOM     11  C   UNL     1       2.079   2.256  17.956  0.00  0.00    +0.000 A 
ATOM     12  C   UNL     1       2.492   3.491  17.454  0.00  0.00    +0.000 A 
ENDBRANCH   6   7
BRANCH   6  13
ATOM     13  C   UNL     1       2.316   7.231  18.484  0.00  0.00    +0.000 A 
ATOM     14  C   UNL     1       2.202   7.228  19.887  0.00  0.00    +0.000 A 
ATOM     15  C   UNL     1       1.694   8.331  20.577  0.00  0.00    +0.000 A 
ATOM     16  C   UNL     1       1.326   9.481  19.885  0.00  0.00    +0.000 A 
ATOM     17  C   UNL     1       1.486   9.531  18.504  0.00  0.00    +0.000 A 
ATOM     18  C   UNL     1       1.989   8.424  17.811  0.00  0.00    +0.000 A 
ENDBRANCH   6  13
ENDBRANCH   3   6
ENDBRANCH   1   2
BRANCH   1  19
ATOM     19  C   UNL     1       7.329   7.043  17.756  0.00  0.00    +0.000 C 
ATOM     20  O   UNL     1       7.590   6.541  18.847  0.00  0.00    +0.000 OA
ATOM     21  N   UNL     1       7.701   8.342  17.427  0.00  0.00    +0.000 N 
ATOM     22  H   UNL     1       7.653   8.647  16.464  0.00  0.00    +0.000 HD
BRANCH  21  23
ATOM     23  C   UNL     1       8.483   9.138  18.364  0.00  0.00    +0.000 C 
BRANCH  23  24
ATOM     24  C   UNL     1       8.568  10.625  17.996  0.00  0.00    +0.000 C 
BRANCH  24  25
ATOM     25  C   UNL     1       9.830  11.258  18.534  0.00  0.00    +0.000 A 
ATOM     26  C   UNL     1      10.039  11.374  19.911  0.00  0.00    +0.000 A 
ATOM     27  C   UNL     1      11.213  11.960  20.374  0.00  0.00    +0.000 A 
ATOM     28  C   UNL     1      12.155  12.406  19.458  0.00  0.00    +0.000 A 
ATOM     29  C   UNL     1      11.880  12.247  18.111  0.00  0.00    +0.000 A 
ATOM     30  N   UNL     1      10.744  11.686  17.632  0.00  0.00    +0.000 NA
ENDBRANCH  24  25
ENDBRANCH  23  24
ENDBRANCH  21  23
ENDBRANCH   1  19
BRANCH   1  31
ATOM     31  C   UNL     1       6.916   4.768  16.709  0.00  0.00    +0.000 C 
BRANCH  31  32
ATOM     32  C   UNL     1       7.142   4.154  15.327  0.00  0.00    +0.000 C 
BRANCH  32  33
ATOM     33  C   UNL     1       5.959   4.399  14.387  0.00  0.00    +0.000 C 
BRANCH  33  37
ATOM     34  N   UNL     1       7.141   4.094  11.766  0.00  0.00    +0.000 NA
ATOM     35  C   UNL     1       6.361   3.202  12.271  0.00  0.00    +0.000 C 
ATOM     36  N   UNL     1       6.000   2.091  11.601  0.00  0.00    +0.000 N 
ATOM     37  N   UNL     1       5.828   3.253  13.506  0.00  0.00    +0.000 N 
ATOM     38  H   UNL     1       7.387   3.831  10.818  0.00  0.00    +0.000 HD
ATOM     39  H   UNL     1       6.595   1.843  10.820  0.00  0.00    +0.000 HD
ATOM     40  H   UNL     1       5.798   1.287  12.181  0.00  0.00    +0.000 HD
ATOM     41  H   UNL     1       5.075   2.615  13.713  0.00  0.00    +0.000 HD
ENDBRANCH  33  37
ENDBRANCH  32  33
ENDBRANCH  31  32
ENDBRANCH   1  31
TORSDOF 12
ENDMDL
MODEL 7
REMARK VINA RESULT:      -9.7      0.947      1.319
REMARK  Name = 
REMARK  12 active torsions:
REMARK  status: ('A' for Active; 'I' for Inactive)
REMARK    1  A    between atoms: N_4  and  C_5
REMARK    2  A    between atoms: C_5  and  C_6
REMARK    3  A    between atoms: C_6  and  C_7
REMARK    4  A    between atoms: C_7  and  C_8
REMARK    5  A    between atoms: C_8  and  N_9
REMARK    6  A    between atoms: C_8  and  C_25
REMARK    7  A    between atoms: C_10  and  C_12
REMARK    8  A    between atoms: C_12  and  C_13
REMARK    9  A    between atoms: C_12  and  C_19
REMARK   10  A    between atoms: N_27  and  C_28
REMARK   11  A    between atoms: C_28  and  C_29
REMARK   12  A    between atoms: C_29  and  C_30
REMARK                            x       y       z     vdW  Elec       q    Type
REMARK                         _______ _______ _______ _____ _____    ______ ____
ROOT
ATOM      1  C   UNL     1       5.917   5.832  16.481  0.00  0.00    +0.000 C 
ENDROOT
BRANCH   1   2
ATOM      2  N   UNL     1       4.523   5.708  16.936  0.00  0.00    +0.000 N 
ATOM      3  C   UNL     1       3.840   6.791  17.468  0.00  0.00    +0.000 C 
ATOM      4  O   UNL     1       4.342   7.918  17.468  0.00  0.00    +0.000 OA
ATOM      5  H   UNL     1       4.184   4.774  17.137  0.00  0.00    +0.000 HD
BRANCH   3   6
ATOM      6  C   UNL     1       2.420   6.486  18.041  0.00  0.00    +0.000 C 
BRANCH   6   7
ATOM      7  C   UNL     1       2.450   5.063  18.597  0.00  0.00    +0.000 A 
ATOM      8  C   UNL     1       3.421   4.687  19.540  0.00  0.00    +0.000 A 
ATOM      9  C   UNL     1       3.559   3.354  19.923  0.00  0.00    +0.000 A 
ATOM     10  C   UNL     1       2.725   2.384  19.372  0.00  0.00    +0.000 A 
ATOM     11  C   UNL     1       1.721   2.752  18.477  0.00  0.00    +0.000 A 
ATOM     12  C   UNL     1       1.573   4.087  18.101  0.00  0.00    +0.000 A 
ENDBRANCH   6   7
BRANCH   6  13
ATOM     13  C   UNL     1       1.905   7.551  19.027  0.00  0.00    +0.000 A 
ATOM     14  C   UNL     1       1.562   8.842  18.586  0.00  0.00    +0.000 A 
ATOM     15  C   UNL     1       1.125   9.824  19.479  0.00  0.00    +0.000 A 
ATOM     16  C   UNL     1       0.983   9.527  20.830  0.00  0.00    +0.000 A 
ATOM     17  C   UNL     1       1.258   8.240  21.283  0.00  0.00    +0.000 A 
ATOM     18  C   UNL     1       1.701   7.259  20.389  0.00  0.00    +0.000 A 
ENDBRANCH   6  13
ENDBRANCH   3   6
ENDBRANCH   1   2
BRANCH   1  19
ATOM     19  C   UNL     1       6.794   6.543  17.553  0.00  0.00    +0.000 C 
ATOM     20  O   UNL     1       6.994   6.054  18.663  0.00  0.00    +0.000 OA
ATOM     21  N   UNL     1       7.341   7.763  17.169  0.00  0.00    +0.000 N 
ATOM     22  H   UNL     1       7.326   8.033  16.195  0.00  0.00    +0.000 HD
BRANCH  21  23
ATOM     23  C   UNL     1       8.236   8.478  18.069  0.00  0.00    +0.000 C 
BRANCH  23  24
ATOM     24  C   UNL     1       8.122  10.005  17.973  0.00  0.00    +0.000 C 
BRANCH  24  25
ATOM     25  C   UNL     1       9.312  10.690  18.604  0.00  0.00    +0.000 A 
ATOM     26  C   UNL     1       9.410  10.816  19.993  0.00  0.00    +0.000 A 
ATOM     27  C   UNL     1      10.519  11.450  20.542  0.00  0.00    +0.000 A 
ATOM     28  C   UNL     1      11.510  11.935  19.700  0.00  0.00    +0.000 A 
ATOM     29  C   UNL     1      11.346  11.764  18.336  0.00  0.00    +0.000 A 
ATOM     30  N   UNL     1      10.274  11.156  17.773  0.00  0.00    +0.000 NA
ENDBRANCH  24  25
ENDBRANCH  23  24
ENDBRANCH  21  23
ENDBRANCH   1  19
BRANCH   1  31
ATOM     31  C   UNL     1       6.492   4.447  16.155  0.00  0.00    +0.000 C 
BRANCH  31  32
ATOM     32  C   UNL     1       7.158   4.388  14.780  0.00  0.00    +0.000 C 
BRANCH  32  33
ATOM     33  C   UNL     1       6.133   4.327  13.645  0.00  0.00    +0.000 C 
BRANCH  33  37
ATOM     34  N   UNL     1       4.457   3.257  11.547  0.00  0.00    +0.000 NA
ATOM     35  C   UNL     1       5.525   2.654  11.942  0.00  0.00    +0.000 C 
ATOM     36  N   UNL     1       5.912   1.463  11.446  0.00  0.00    +0.000 N 
ATOM     37  N   UNL     1       6.380   3.127  12.869  0.00  0.00    +0.000 N 
ATOM     38  H   UNL     1       3.979   2.683  10.861  0.00  0.00    +0.000 HD
ATOM     39  H   UNL     1       5.503   1.211  10.554  0.00  0.00    +0.000 HD
ATOM     40  H   UNL     1       6.909   1.299  11.453  0.00  0.00    +0.000 HD
ATOM     41  H   UNL     1       7.057   2.483  13.246  0.00  0.00    +0.000 HD
ENDBRANCH  33  37
ENDBRANCH  32  33
ENDBRANCH  31  32
ENDBRANCH   1  31
TORSDOF 12
ENDMDL
MODEL 8
REMARK VINA RESULT:      -9.6      1.245      3.373
REMARK  Name = 
REMARK  12 active torsions:
REMARK  status: ('A' for Active; 'I' for Inactive)
REMARK    1  A    between atoms: N_4  and  C_5
REMARK    2  A    between atoms: C_5  and  C_6
REMARK    3  A    between atoms: C_6  and  C_7
REMARK    4  A    between atoms: C_7  and  C_8
REMARK    5  A    between atoms: C_8  and  N_9
REMARK    6  A    between atoms: C_8  and  C_25
REMARK    7  A    between atoms: C_10  and  C_12
REMARK    8  A    between atoms: C_12  and  C_13
REMARK    9  A    between atoms: C_12  and  C_19
REMARK   10  A    between atoms: N_27  and  C_28
REMARK   11  A    between atoms: C_28  and  C_29
REMARK   12  A    between atoms: C_29  and  C_30
REMARK                            x       y       z     vdW  Elec       q    Type
REMARK                         _______ _______ _______ _____ _____    ______ ____
ROOT
ATOM      1  C   UNL     1       6.383   6.630  17.312  0.00  0.00    +0.000 C 
ENDROOT
BRANCH   1   2
ATOM      2  N   UNL     1       5.285   6.357  18.253  0.00  0.00    +0.000 N 
ATOM      3  C   UNL     1       4.021   6.892  18.058  0.00  0.00    +0.000 C 
ATOM      4  O   UNL     1       3.749   7.516  17.030  0.00  0.00    +0.000 OA
ATOM      5  H   UNL     1       5.540   6.038  19.181  0.00  0.00    +0.000 HD
BRANCH   3   6
ATOM      6  C   UNL     1       2.991   6.639  19.204  0.00  0.00    +0.000 C 
BRANCH   6   7
ATOM      7  C   UNL     1       2.083   7.867  19.277  0.00  0.00    +0.000 A 
ATOM      8  C   UNL     1       1.512   8.259  20.500  0.00  0.00    +0.000 A 
ATOM      9  C   UNL     1       0.555   9.272  20.543  0.00  0.00    +0.000 A 
ATOM     10  C   UNL     1       0.163   9.906  19.366  0.00  0.00    +0.000 A 
ATOM     11  C   UNL     1       0.762   9.564  18.155  0.00  0.00    +0.000 A 
ATOM     12  C   UNL     1       1.729   8.560  18.110  0.00  0.00    +0.000 A 
ENDBRANCH   6   7
BRANCH   6  13
ATOM     13  C   UNL     1       2.247   5.295  19.088  0.00  0.00    +0.000 A 
ATOM     14  C   UNL     1       2.180   4.609  17.862  0.00  0.00    +0.000 A 
ATOM     15  C   UNL     1       1.479   3.406  17.740  0.00  0.00    +0.000 A 
ATOM     16  C   UNL     1       0.863   2.840  18.852  0.00  0.00    +0.000 A 
ATOM     17  C   UNL     1       0.965   3.469  20.088  0.00  0.00    +0.000 A 
ATOM     18  C   UNL     1       1.661   4.677  20.209  0.00  0.00    +0.000 A 
ENDBRANCH   6  13
ENDBRANCH   3   6
ENDBRANCH   1   2
BRANCH   1  19
ATOM     19  C   UNL     1       7.564   7.352  18.025  0.00  0.00    +0.000 C 
ATOM     20  O   UNL     1       8.347   6.754  18.761  0.00  0.00    +0.000 OA
ATOM     21  N   UNL     1       7.679   8.714  17.768  0.00  0.00    +0.000 N 
ATOM     22  H   UNL     1       7.152   9.126  17.009  0.00  0.00    +0.000 HD
BRANCH  21  23
ATOM     23  C   UNL     1       8.790   9.472  18.327  0.00  0.00    +0.000 C 
BRANCH  23  24
ATOM     24  C   UNL     1       8.831  10.938  17.875  0.00  0.00    +0.000 C 
BRANCH  24  25
ATOM     25  C   UNL     1       9.351  11.840  18.970  0.00  0.00    +0.000 A 
ATOM     26  C   UNL     1       9.742  11.313  20.204  0.00  0.00    +0.000 A 
ATOM     27  C   UNL     1      10.219  12.171  21.190  0.00  0.00    +0.000 A 
ATOM     28  C   UNL     1      10.307  13.530  20.923  0.00  0.00    +0.000 A 
ATOM     29  C   UNL     1       9.909  13.975  19.673  0.00  0.00    +0.000 A 
ATOM     30  N   UNL     1       9.435  13.164  18.697  0.00  0.00    +0.000 NA
ENDBRANCH  24  25
ENDBRANCH  23  24
ENDBRANCH  21  23
ENDBRANCH   1  19
BRANCH   1  31
ATOM     31  C   UNL     1       6.867   5.322  16.670  0.00  0.00    +0.000 C 
BRANCH  31  32
ATOM     32  C   UNL     1       5.808   4.670  15.780  0.00  0.00    +0.000 C 
BRANCH  32  33
ATOM     33  C   UNL     1       6.420   4.020  14.537  0.00  0.00    +0.000 C 
BRANCH  33  37
ATOM     34  N   UNL     1       6.674   2.713  11.971  0.00  0.00    +0.000 NA
ATOM     35  C   UNL     1       5.577   3.275  12.346  0.00  0.00    +0.000 C 
ATOM     36  N   UNL     1       4.488   3.339  11.556  0.00  0.00    +0.000 N 
ATOM     37  N   UNL     1       5.374   3.846  13.548  0.00  0.00    +0.000 N 
ATOM     38  H   UNL     1       6.575   2.380  11.018  0.00  0.00    +0.000 HD
ATOM     39  H   UNL     1       4.468   2.676  10.790  0.00  0.00    +0.000 HD
ATOM     40  H   UNL     1       3.604   3.363  12.045  0.00  0.00    +0.000 HD
ATOM     41  H   UNL     1       4.560   4.432  13.651  0.00  0.00    +0.000 HD
ENDBRANCH  33  37
ENDBRANCH  32  33
ENDBRANCH  31  32
ENDBRANCH   1  31
TORSDOF 12
ENDMDL
MODEL 9
REMARK VINA RESULT:      -9.6      1.201      1.686
REMARK  Name = 
REMARK  12 active torsions:
REMARK  status: ('A' for Active; 'I' for Inactive)
REMARK    1  A    between atoms: N_4  and  C_5
REMARK    2  A    between atoms: C_5  and  C_6
REMARK    3  A    between atoms: C_6  and  C_7
REMARK    4  A    between atoms: C_7  and  C_8
REMARK    5  A    between atoms: C_8  and  N_9
REMARK    6  A    between atoms: C_8  and  C_25
REMARK    7  A    between atoms: C_10  and  C_12
REMARK    8  A    between atoms: C_12  and  C_13
REMARK    9  A    between atoms: C_12  and  C_19
REMARK   10  A    between atoms: N_27  and  C_28
REMARK   11  A    between atoms: C_28  and  C_29
REMARK   12  A    between atoms: C_29  and  C_30
REMARK                            x       y       z     vdW  Elec       q    Type
REMARK                         _______ _______ _______ _____ _____    ______ ____
ROOT
ATOM      1  C   UNL     1       6.846   6.209  16.509  0.00  0.00    +0.000 C 
ENDROOT
BRANCH   1   2
ATOM      2  N   UNL     1       5.381   6.267  16.637  0.00  0.00    +0.000 N 
ATOM      3  C   UNL     1       4.748   5.918  17.820  0.00  0.00    +0.000 C 
ATOM      4  O   UNL     1       5.399   5.662  18.835  0.00  0.00    +0.000 OA
ATOM      5  H   UNL     1       4.841   6.265  15.778  0.00  0.00    +0.000 HD
BRANCH   3   6
ATOM      6  C   UNL     1       3.187   5.889  17.774  0.00  0.00    +0.000 C 
BRANCH   6   7
ATOM      7  C   UNL     1       2.746   4.495  18.222  0.00  0.00    +0.000 A 
ATOM      8  C   UNL     1       3.700   3.526  18.575  0.00  0.00    +0.000 A 
ATOM      9  C   UNL     1       3.315   2.209  18.821  0.00  0.00    +0.000 A 
ATOM     10  C   UNL     1       1.973   1.849  18.723  0.00  0.00    +0.000 A 
ATOM     11  C   UNL     1       1.010   2.814  18.428  0.00  0.00    +0.000 A 
ATOM     12  C   UNL     1       1.391   4.135  18.193  0.00  0.00    +0.000 A 
ENDBRANCH   6   7
BRANCH   6  13
ATOM     13  C   UNL     1       2.520   7.050  18.535  0.00  0.00    +0.000 A 
ATOM     14  C   UNL     1       2.314   6.982  19.925  0.00  0.00    +0.000 A 
ATOM     15  C   UNL     1       1.680   8.016  20.618  0.00  0.00    +0.000 A 
ATOM     16  C   UNL     1       1.272   9.163  19.943  0.00  0.00    +0.000 A 
ATOM     17  C   UNL     1       1.517   9.280  18.578  0.00  0.00    +0.000 A 
ATOM     18  C   UNL     1       2.147   8.241  17.884  0.00  0.00    +0.000 A 
ENDBRANCH   6  13
ENDBRANCH   3   6
ENDBRANCH   1   2
BRANCH   1  19
ATOM     19  C   UNL     1       7.539   7.040  17.627  0.00  0.00    +0.000 C 
ATOM     20  O   UNL     1       8.041   6.513  18.618  0.00  0.00    +0.000 OA
ATOM     21  N   UNL     1       7.559   8.417  17.428  0.00  0.00    +0.000 N 
ATOM     22  H   UNL     1       7.324   8.794  16.519  0.00  0.00    +0.000 HD
BRANCH  21  23
ATOM     23  C   UNL     1       8.245   9.283  18.376  0.00  0.00    +0.000 C 
BRANCH  23  24
ATOM     24  C   UNL     1       8.822  10.558  17.748  0.00  0.00    +0.000 C 
BRANCH  24  25
ATOM     25  C   UNL     1       9.329  11.515  18.802  0.00  0.00    +0.000 A 
ATOM     26  C   UNL     1       9.895  11.037  19.987  0.00  0.00    +0.000 A 
ATOM     27  C   UNL     1      10.353  11.945  20.937  0.00  0.00    +0.000 A 
ATOM     28  C   UNL     1      10.248  13.305  20.682  0.00  0.00    +0.000 A 
ATOM     29  C   UNL     1       9.684  13.700  19.481  0.00  0.00    +0.000 A 
ATOM     30  N   UNL     1       9.224  12.839  18.542  0.00  0.00    +0.000 NA
ENDBRANCH  24  25
ENDBRANCH  23  24
ENDBRANCH  21  23
ENDBRANCH   1  19
BRANCH   1  31
ATOM     31  C   UNL     1       7.323   4.751  16.554  0.00  0.00    +0.000 C 
BRANCH  31  32
ATOM     32  C   UNL     1       6.551   3.842  15.597  0.00  0.00    +0.000 C 
BRANCH  32  33
ATOM     33  C   UNL     1       6.858   4.156  14.131  0.00  0.00    +0.000 C 
BRANCH  33  37
ATOM     34  N   UNL     1       6.634   2.487  11.781  0.00  0.00    +0.000 NA
ATOM     35  C   UNL     1       5.639   3.171  12.230  0.00  0.00    +0.000 C 
ATOM     36  N   UNL     1       4.441   3.198  11.615  0.00  0.00    +0.000 N 
ATOM     37  N   UNL     1       5.658   3.917  13.350  0.00  0.00    +0.000 N 
ATOM     38  H   UNL     1       6.368   2.032  10.914  0.00  0.00    +0.000 HD
ATOM     39  H   UNL     1       4.268   2.438  10.969  0.00  0.00    +0.000 HD
ATOM     40  H   UNL     1       3.649   3.352  12.224  0.00  0.00    +0.000 HD
ATOM     41  H   UNL     1       4.900   4.567  13.488  0.00  0.00    +0.000 HD
ENDBRANCH  33  37
ENDBRANCH  32  33
ENDBRANCH  31  32
ENDBRANCH   1  31
TORSDOF 12
ENDMDL
