MODEL 1
REMARK VINA RESULT:      -7.5      0.000      0.000
REMARK  Name = 
REMARK  9 active torsions:
REMARK  status: ('A' for Active; 'I' for Inactive)
REMARK    1  A    between atoms: C_1  and  C_2
REMARK    2  A    between atoms: C_2  and  O_3
REMARK    3  A    between atoms: O_3  and  C_4
REMARK    4  A    between atoms: C_4  and  C_6
REMARK    5  A    between atoms: C_21  and  C_22
REMARK    6  A    between atoms: C_22  and  C_23
REMARK    7  A    between atoms: C_25  and  C_26
REMARK    8  A    between atoms: C_26  and  C_27
REMARK    9  A    between atoms: C_27  and  C_28
REMARK                            x       y       z     vdW  Elec       q    Type
REMARK                         _______ _______ _______ _____ _____    ______ ____
ROOT
ATOM      1  C   UNL     1       4.162   4.489  18.769  0.00  0.00    +0.000 C 
ATOM      2  C   UNL     1       3.417   5.612  18.981  0.00  0.00    +0.000 A 
ATOM      3  N   UNL     1       2.610   5.738  20.102  0.00  0.00    +0.000 N 
ATOM      4  C   UNL     1       1.908   6.913  20.396  0.00  0.00    +0.000 A 
ATOM      5  C   UNL     1       1.157   7.008  21.569  0.00  0.00    +0.000 A 
ATOM      6  C   UNL     1       0.414   8.156  21.837  0.00  0.00    +0.000 A 
ATOM      7  C   UNL     1       0.408   9.204  20.932  0.00  0.00    +0.000 A 
ATOM      8  C   UNL     1       1.157   9.133  19.746  0.00  0.00    +0.000 A 
ATOM      9  C   UNL     1       1.161  10.191  18.830  0.00  0.00    +0.000 A 
ATOM     10  C   UNL     1       1.933  10.122  17.677  0.00  0.00    +0.000 A 
ATOM     11  C   UNL     1       2.702   8.989  17.417  0.00  0.00    +0.000 A 
ATOM     12  C   UNL     1       2.696   7.876  18.287  0.00  0.00    +0.000 A 
ATOM     13  C   UNL     1       1.923   7.971  19.471  0.00  0.00    +0.000 A 
ATOM     14  N   UNL     1       3.454   6.666  18.023  0.00  0.00    +0.000 N 
ATOM     15  C   UNL     1       4.120   6.468  16.822  0.00  0.00    +0.000 C 
ATOM     16  C   UNL     1       4.912   5.426  16.544  0.00  0.00    +0.000 C 
ATOM     17  C   UNL     1       5.137   4.354  17.592  0.00  0.00    +0.000 C 
ATOM     18  H   UNL     1       2.695   5.028  20.828  0.00  0.00    +0.000 HD
ENDROOT
BRANCH  16  19
ATOM     19  C   UNL     1       5.488   5.455  15.167  0.00  0.00    +0.000 C 
ATOM     20  C   UNL     1       5.967   4.200  14.498  0.00  0.00    +0.000 C 
ATOM     21  O   UNL     1       5.521   6.517  14.537  0.00  0.00    +0.000 OA
ENDBRANCH  16  19
BRANCH   1  22
ATOM     22  C   UNL     1       4.031   3.349  19.723  0.00  0.00    +0.000 C 
ATOM     23  O   UNL     1       4.970   2.820  20.304  0.00  0.00    +0.000 OA
BRANCH  22  24
ATOM     24  O   UNL     1       2.727   3.002  19.886  0.00  0.00    +0.000 OA
BRANCH  24  26
ATOM     25  C   UNL     1       0.702   2.353  18.731  0.00  0.00    +0.000 C 
ATOM     26  C   UNL     1       2.198   2.140  18.864  0.00  0.00    +0.000 C 
ENDBRANCH  24  26
ENDBRANCH  22  24
ENDBRANCH   1  22
BRANCH  17  27
ATOM     27  C   UNL     1       6.594   4.291  18.100  0.00  0.00    +0.000 C 
BRANCH  27  28
ATOM     28  C   UNL     1       7.082   5.516  18.858  0.00  0.00    +0.000 C 
ATOM     29  C   UNL     1       7.568   6.700  18.067  0.00  0.00    +0.000 C 
ATOM     30  O   UNL     1       7.075   5.535  20.089  0.00  0.00    +0.000 OA
ENDBRANCH  27  28
ENDBRANCH  17  27
TORSDOF 6
ENDMDL
MODEL 2
REMARK VINA RESULT:      -7.5      1.514      4.985
REMARK  Name = 
REMARK  9 active torsions:
REMARK  status: ('A' for Active; 'I' for Inactive)
REMARK    1  A    between atoms: C_1  and  C_2
REMARK    2  A    between atoms: C_2  and  O_3
REMARK    3  A    between atoms: O_3  and  C_4
REMARK    4  A    between atoms: C_4  and  C_6
REMARK    5  A    between atoms: C_21  and  C_22
REMARK    6  A    between atoms: C_22  and  C_23
REMARK    7  A    between atoms: C_25  and  C_26
REMARK    8  A    between atoms: C_26  and  C_27
REMARK    9  A    between atoms: C_27  and  C_28
REMARK                            x       y       z     vdW  Elec       q    Type
REMARK                         _______ _______ _______ _____ _____    ______ ____
ROOT
ATOM      1  C   UNL     1       3.751   5.575  18.377  0.00  0.00    +0.000 C 
ATOM      2  C   UNL     1       3.020   6.640  18.816  0.00  0.00    +0.000 A 
ATOM      3  N   UNL     1       3.104   7.875  18.192  0.00  0.00    +0.000 N 
ATOM      4  C   UNL     1       2.299   8.961  18.557  0.00  0.00    +0.000 A 
ATOM      5  C   UNL     1       2.382  10.166  17.857  0.00  0.00    +0.000 A 
ATOM      6  C   UNL     1       1.621  11.263  18.253  0.00  0.00    +0.000 A 
ATOM      7  C   UNL     1       0.786  11.165  19.354  0.00  0.00    +0.000 A 
ATOM      8  C   UNL     1       0.684   9.964  20.074  0.00  0.00    +0.000 A 
ATOM      9  C   UNL     1      -0.163   9.856  21.183  0.00  0.00    +0.000 A 
ATOM     10  C   UNL     1      -0.281   8.652  21.865  0.00  0.00    +0.000 A 
ATOM     11  C   UNL     1       0.456   7.541  21.457  0.00  0.00    +0.000 A 
ATOM     12  C   UNL     1       1.358   7.612  20.371  0.00  0.00    +0.000 A 
ATOM     13  C   UNL     1       1.450   8.840  19.670  0.00  0.00    +0.000 A 
ATOM     14  N   UNL     1       2.168   6.484  19.948  0.00  0.00    +0.000 N 
ATOM     15  C   UNL     1       2.217   5.304  20.675  0.00  0.00    +0.000 C 
ATOM     16  C   UNL     1       2.864   4.194  20.300  0.00  0.00    +0.000 C 
ATOM     17  C   UNL     1       3.612   4.172  18.981  0.00  0.00    +0.000 C 
ATOM     18  H   UNL     1       3.623   7.929  17.317  0.00  0.00    +0.000 HD
ENDROOT
BRANCH  16  19
ATOM     19  C   UNL     1       2.765   3.074  21.283  0.00  0.00    +0.000 C 
ATOM     20  C   UNL     1       1.482   2.781  22.001  0.00  0.00    +0.000 C 
ATOM     21  O   UNL     1       3.737   2.334  21.470  0.00  0.00    +0.000 OA
ENDBRANCH  16  19
BRANCH   1  22
ATOM     22  C   UNL     1       4.719   5.779  17.260  0.00  0.00    +0.000 C 
ATOM     23  O   UNL     1       4.479   6.415  16.242  0.00  0.00    +0.000 OA
BRANCH  22  24
ATOM     24  O   UNL     1       5.914   5.195  17.543  0.00  0.00    +0.000 OA
BRANCH  24  26
ATOM     25  C   UNL     1       7.524   6.996  17.678  0.00  0.00    +0.000 C 
ATOM     26  C   UNL     1       6.752   5.938  18.444  0.00  0.00    +0.000 C 
ENDBRANCH  24  26
ENDBRANCH  22  24
ENDBRANCH   1  22
BRANCH  17  27
ATOM     27  C   UNL     1       3.006   3.195  17.950  0.00  0.00    +0.000 C 
BRANCH  27  28
ATOM     28  C   UNL     1       1.490   3.224  17.826  0.00  0.00    +0.000 C 
ATOM     29  C   UNL     1       0.695   2.141  18.503  0.00  0.00    +0.000 C 
ATOM     30  O   UNL     1       0.930   4.117  17.188  0.00  0.00    +0.000 OA
ENDBRANCH  27  28
ENDBRANCH  17  27
TORSDOF 6
ENDMDL
MODEL 3
REMARK VINA RESULT:      -7.2      1.091      1.210
REMARK  Name = 
REMARK  9 active torsions:
REMARK  status: ('A' for Active; 'I' for Inactive)
REMARK    1  A    between atoms: C_1  and  C_2
REMARK    2  A    between atoms: C_2  and  O_3
REMARK    3  A    between atoms: O_3  and  C_4
REMARK    4  A    between atoms: C_4  and  C_6
REMARK    5  A    between atoms: C_21  and  C_22
REMARK    6  A    between atoms: C_22  and  C_23
REMARK    7  A    between atoms: C_25  and  C_26
REMARK    8  A    between atoms: C_26  and  C_27
REMARK    9  A    between atoms: C_27  and  C_28
REMARK                            x       y       z     vdW  Elec       q    Type
REMARK                         _______ _______ _______ _____ _____    ______ ____
ROOT
ATOM      1  C   UNL     1       3.407   5.076  19.405  0.00  0.00    +0.000 C 
ATOM      2  C   UNL     1       2.742   6.263  19.507  0.00  0.00    +0.000 A 
ATOM      3  N   UNL     1       1.849   6.500  20.541  0.00  0.00    +0.000 N 
ATOM      4  C   UNL     1       1.224   7.738  20.728  0.00  0.00    +0.000 A 
ATOM      5  C   UNL     1       0.379   7.941  21.820  0.00  0.00    +0.000 A 
ATOM      6  C   UNL     1      -0.287   9.155  21.978  0.00  0.00    +0.000 A 
ATOM      7  C   UNL     1      -0.122  10.162  21.042  0.00  0.00    +0.000 A 
ATOM      8  C   UNL     1       0.725   9.983  19.936  0.00  0.00    +0.000 A 
ATOM      9  C   UNL     1       0.902  10.999  18.990  0.00  0.00    +0.000 A 
ATOM     10  C   UNL     1       1.768  10.821  17.918  0.00  0.00    +0.000 A 
ATOM     11  C   UNL     1       2.460   9.620  17.770  0.00  0.00    +0.000 A 
ATOM     12  C   UNL     1       2.281   8.548  18.673  0.00  0.00    +0.000 A 
ATOM     13  C   UNL     1       1.412   8.752  19.774  0.00  0.00    +0.000 A 
ATOM     14  N   UNL     1       2.956   7.271  18.522  0.00  0.00    +0.000 N 
ATOM     15  C   UNL     1       3.710   6.971  17.398  0.00  0.00    +0.000 C 
ATOM     16  C   UNL     1       4.434   5.858  17.231  0.00  0.00    +0.000 C 
ATOM     17  C   UNL     1       4.472   4.815  18.331  0.00  0.00    +0.000 C 
ATOM     18  H   UNL     1       1.807   5.815  21.295  0.00  0.00    +0.000 HD
ENDROOT
BRANCH  16  19
ATOM     19  C   UNL     1       5.136   5.784  15.914  0.00  0.00    +0.000 C 
ATOM     20  C   UNL     1       5.218   4.497  15.148  0.00  0.00    +0.000 C 
ATOM     21  O   UNL     1       5.608   6.808  15.412  0.00  0.00    +0.000 OA
ENDBRANCH  16  19
BRANCH   1  22
ATOM     22  C   UNL     1       3.094   3.991  20.379  0.00  0.00    +0.000 C 
ATOM     23  O   UNL     1       2.909   4.166  21.576  0.00  0.00    +0.000 OA
BRANCH  22  24
ATOM     24  O   UNL     1       3.007   2.788  19.751  0.00  0.00    +0.000 OA
BRANCH  24  26
ATOM     25  C   UNL     1       0.870   2.468  18.662  0.00  0.00    +0.000 C 
ATOM     26  C   UNL     1       1.730   2.136  19.868  0.00  0.00    +0.000 C 
ENDBRANCH  24  26
ENDBRANCH  22  24
ENDBRANCH   1  22
BRANCH  17  27
ATOM     27  C   UNL     1       5.866   4.656  18.976  0.00  0.00    +0.000 C 
BRANCH  27  28
ATOM     28  C   UNL     1       7.038   5.155  18.145  0.00  0.00    +0.000 C 
ATOM     29  C   UNL     1       7.503   6.573  18.342  0.00  0.00    +0.000 C 
ATOM     30  O   UNL     1       7.593   4.413  17.335  0.00  0.00    +0.000 OA
ENDBRANCH  27  28
ENDBRANCH  17  27
TORSDOF 6
ENDMDL
MODEL 4
REMARK VINA RESULT:      -7.2      1.996      5.145
REMARK  Name = 
REMARK  9 active torsions:
REMARK  status: ('A' for Active; 'I' for Inactive)
REMARK    1  A    between atoms: C_1  and  C_2
REMARK    2  A    between atoms: C_2  and  O_3
REMARK    3  A    between atoms: O_3  and  C_4
REMARK    4  A    between atoms: C_4  and  C_6
REMARK    5  A    between atoms: C_21  and  C_22
REMARK    6  A    between atoms: C_22  and  C_23
REMARK    7  A    between atoms: C_25  and  C_26
REMARK    8  A    between atoms: C_26  and  C_27
REMARK    9  A    between atoms: C_27  and  C_28
REMARK                            x       y       z     vdW  Elec       q    Type
REMARK                         _______ _______ _______ _____ _____    ______ ____
ROOT
ATOM      1  C   UNL     1       2.868   6.763  18.558  0.00  0.00    +0.000 C 
ATOM      2  C   UNL     1       2.225   7.804  19.161  0.00  0.00    +0.000 A 
ATOM      3  N   UNL     1       2.327   9.096  18.668  0.00  0.00    +0.000 N 
ATOM      4  C   UNL     1       1.606  10.168  19.206  0.00  0.00    +0.000 A 
ATOM      5  C   UNL     1       1.700  11.438  18.634  0.00  0.00    +0.000 A 
ATOM      6  C   UNL     1       1.026  12.517  19.201  0.00  0.00    +0.000 A 
ATOM      7  C   UNL     1       0.267  12.335  20.345  0.00  0.00    +0.000 A 
ATOM      8  C   UNL     1       0.154  11.067  20.938  0.00  0.00    +0.000 A 
ATOM      9  C   UNL     1      -0.617  10.874  22.090  0.00  0.00    +0.000 A 
ATOM     10  C   UNL     1      -0.747   9.609  22.648  0.00  0.00    +0.000 A 
ATOM     11  C   UNL     1      -0.099   8.519  22.069  0.00  0.00    +0.000 A 
ATOM     12  C   UNL     1       0.727   8.669  20.932  0.00  0.00    +0.000 A 
ATOM     13  C   UNL     1       0.832   9.962  20.361  0.00  0.00    +0.000 A 
ATOM     14  N   UNL     1       1.448   7.561  20.331  0.00  0.00    +0.000 N 
ATOM     15  C   UNL     1       1.487   6.308  20.923  0.00  0.00    +0.000 C 
ATOM     16  C   UNL     1       2.049   5.219  20.384  0.00  0.00    +0.000 C 
ATOM     17  C   UNL     1       2.701   5.310  19.018  0.00  0.00    +0.000 C 
ATOM     18  H   UNL     1       2.785   9.222  17.766  0.00  0.00    +0.000 HD
ENDROOT
BRANCH  16  19
ATOM     19  C   UNL     1       1.963   4.003  21.247  0.00  0.00    +0.000 C 
ATOM     20  C   UNL     1       1.075   2.851  20.882  0.00  0.00    +0.000 C 
ATOM     21  O   UNL     1       2.678   3.911  22.250  0.00  0.00    +0.000 OA
ENDBRANCH  16  19
BRANCH   1  22
ATOM     22  C   UNL     1       3.764   7.047  17.399  0.00  0.00    +0.000 C 
ATOM     23  O   UNL     1       3.481   7.793  16.470  0.00  0.00    +0.000 OA
BRANCH  22  24
ATOM     24  O   UNL     1       4.950   6.395  17.533  0.00  0.00    +0.000 OA
BRANCH  24  26
ATOM     25  C   UNL     1       7.353   6.563  17.756  0.00  0.00    +0.000 C 
ATOM     26  C   UNL     1       6.104   7.150  17.125  0.00  0.00    +0.000 C 
ENDBRANCH  24  26
ENDBRANCH  22  24
ENDBRANCH   1  22
BRANCH  17  27
ATOM     27  C   UNL     1       1.974   4.479  17.938  0.00  0.00    +0.000 C 
BRANCH  27  28
ATOM     28  C   UNL     1       2.663   3.186  17.525  0.00  0.00    +0.000 C 
ATOM     29  C   UNL     1       4.147   3.213  17.282  0.00  0.00    +0.000 C 
ATOM     30  O   UNL     1       2.018   2.145  17.398  0.00  0.00    +0.000 OA
ENDBRANCH  27  28
ENDBRANCH  17  27
TORSDOF 6
ENDMDL
MODEL 5
REMARK VINA RESULT:      -7.1      1.524      4.693
REMARK  Name = 
REMARK  9 active torsions:
REMARK  status: ('A' for Active; 'I' for Inactive)
REMARK    1  A    between atoms: C_1  and  C_2
REMARK    2  A    between atoms: C_2  and  O_3
REMARK    3  A    between atoms: O_3  and  C_4
REMARK    4  A    between atoms: C_4  and  C_6
REMARK    5  A    between atoms: C_21  and  C_22
REMARK    6  A    between atoms: C_22  and  C_23
REMARK    7  A    between atoms: C_25  and  C_26
REMARK    8  A    between atoms: C_26  and  C_27
REMARK    9  A    between atoms: C_27  and  C_28
REMARK                            x       y       z     vdW  Elec       q    Type
REMARK                         _______ _______ _______ _____ _____    ______ ____
ROOT
ATOM      1  C   UNL     1       4.196   5.838  17.773  0.00  0.00    +0.000 C 
ATOM      2  C   UNL     1       3.392   6.778  18.350  0.00  0.00    +0.000 A 
ATOM      3  N   UNL     1       3.287   8.056  17.823  0.00  0.00    +0.000 N 
ATOM      4  C   UNL     1       2.401   9.012  18.333  0.00  0.00    +0.000 A 
ATOM      5  C   UNL     1       2.293  10.265  17.727  0.00  0.00    +0.000 A 
ATOM      6  C   UNL     1       1.452  11.236  18.266  0.00  0.00    +0.000 A 
ATOM      7  C   UNL     1       0.728  10.964  19.415  0.00  0.00    +0.000 A 
ATOM      8  C   UNL     1       0.818   9.710  20.041  0.00  0.00    +0.000 A 
ATOM      9  C   UNL     1       0.083   9.427  21.198  0.00  0.00    +0.000 A 
ATOM     10  C   UNL     1       0.155   8.172  21.789  0.00  0.00    +0.000 A 
ATOM     11  C   UNL     1       0.973   7.186  21.239  0.00  0.00    +0.000 A 
ATOM     12  C   UNL     1       1.768   7.437  20.098  0.00  0.00    +0.000 A 
ATOM     13  C   UNL     1       1.666   8.714  19.493  0.00  0.00    +0.000 A 
ATOM     14  N   UNL     1       2.659   6.443  19.526  0.00  0.00    +0.000 N 
ATOM     15  C   UNL     1       2.897   5.228  20.151  0.00  0.00    +0.000 C 
ATOM     16  C   UNL     1       3.628   4.231  19.640  0.00  0.00    +0.000 C 
ATOM     17  C   UNL     1       4.262   4.389  18.272  0.00  0.00    +0.000 C 
ATOM     18  H   UNL     1       3.722   8.231  16.918  0.00  0.00    +0.000 HD
ENDROOT
BRANCH  16  19
ATOM     19  C   UNL     1       3.736   3.040  20.535  0.00  0.00    +0.000 C 
ATOM     20  C   UNL     1       2.639   2.688  21.497  0.00  0.00    +0.000 C 
ATOM     21  O   UNL     1       4.714   2.291  20.446  0.00  0.00    +0.000 OA
ENDBRANCH  16  19
BRANCH   1  22
ATOM     22  C   UNL     1       5.039   6.232  16.607  0.00  0.00    +0.000 C 
ATOM     23  O   UNL     1       4.687   7.006  15.727  0.00  0.00    +0.000 OA
BRANCH  22  24
ATOM     24  O   UNL     1       6.263   5.644  16.675  0.00  0.00    +0.000 OA
BRANCH  24  26
ATOM     25  C   UNL     1       6.355   3.985  14.916  0.00  0.00    +0.000 C 
ATOM     26  C   UNL     1       6.855   5.333  15.402  0.00  0.00    +0.000 C 
ENDBRANCH  24  26
ENDBRANCH  22  24
ENDBRANCH   1  22
BRANCH  17  27
ATOM     27  C   UNL     1       3.683   3.424  17.214  0.00  0.00    +0.000 C 
BRANCH  27  28
ATOM     28  C   UNL     1       2.235   3.008  17.424  0.00  0.00    +0.000 C 
ATOM     29  C   UNL     1       1.163   4.055  17.291  0.00  0.00    +0.000 C 
ATOM     30  O   UNL     1       1.951   1.840  17.692  0.00  0.00    +0.000 OA
ENDBRANCH  27  28
ENDBRANCH  17  27
TORSDOF 6
ENDMDL
MODEL 6
REMARK VINA RESULT:      -7.0      1.631      4.835
REMARK  Name = 
REMARK  9 active torsions:
REMARK  status: ('A' for Active; 'I' for Inactive)
REMARK    1  A    between atoms: C_1  and  C_2
REMARK    2  A    between atoms: C_2  and  O_3
REMARK    3  A    between atoms: O_3  and  C_4
REMARK    4  A    between atoms: C_4  and  C_6
REMARK    5  A    between atoms: C_21  and  C_22
REMARK    6  A    between atoms: C_22  and  C_23
REMARK    7  A    between atoms: C_25  and  C_26
REMARK    8  A    between atoms: C_26  and  C_27
REMARK    9  A    between atoms: C_27  and  C_28
REMARK                            x       y       z     vdW  Elec       q    Type
REMARK                         _______ _______ _______ _____ _____    ______ ____
ROOT
ATOM      1  C   UNL     1       3.451   6.036  18.261  0.00  0.00    +0.000 C 
ATOM      2  C   UNL     1       2.758   7.088  18.787  0.00  0.00    +0.000 A 
ATOM      3  N   UNL     1       2.848   8.356  18.233  0.00  0.00    +0.000 N 
ATOM      4  C   UNL     1       2.079   9.433  18.688  0.00  0.00    +0.000 A 
ATOM      5  C   UNL     1       2.165  10.675  18.057  0.00  0.00    +0.000 A 
ATOM      6  C   UNL     1       1.441  11.762  18.543  0.00  0.00    +0.000 A 
ATOM      7  C   UNL     1       0.642  11.617  19.664  0.00  0.00    +0.000 A 
ATOM      8  C   UNL     1       0.537  10.377  20.315  0.00  0.00    +0.000 A 
ATOM      9  C   UNL     1      -0.274  10.221  21.445  0.00  0.00    +0.000 A 
ATOM     10  C   UNL     1      -0.396   8.981  22.060  0.00  0.00    +0.000 A 
ATOM     11  C   UNL     1       0.303   7.882  21.562  0.00  0.00    +0.000 A 
ATOM     12  C   UNL     1       1.170   7.998  20.452  0.00  0.00    +0.000 A 
ATOM     13  C   UNL     1       1.265   9.264  19.821  0.00  0.00    +0.000 A 
ATOM     14  N   UNL     1       1.941   6.882  19.936  0.00  0.00    +0.000 N 
ATOM     15  C   UNL     1       1.988   5.661  20.591  0.00  0.00    +0.000 C 
ATOM     16  C   UNL     1       2.598   4.562  20.130  0.00  0.00    +0.000 C 
ATOM     17  C   UNL     1       3.302   4.603  18.788  0.00  0.00    +0.000 C 
ATOM     18  H   UNL     1       3.339   8.450  17.345  0.00  0.00    +0.000 HD
ENDROOT
BRANCH  16  19
ATOM     19  C   UNL     1       2.508   3.389  21.049  0.00  0.00    +0.000 C 
ATOM     20  C   UNL     1       1.185   2.900  21.560  0.00  0.00    +0.000 C 
ATOM     21  O   UNL     1       3.531   2.766  21.352  0.00  0.00    +0.000 OA
ENDBRANCH  16  19
BRANCH   1  22
ATOM     22  C   UNL     1       4.386   6.287  17.126  0.00  0.00    +0.000 C 
ATOM     23  O   UNL     1       4.166   7.063  16.205  0.00  0.00    +0.000 OA
BRANCH  22  24
ATOM     24  O   UNL     1       5.528   5.563  17.271  0.00  0.00    +0.000 OA
BRANCH  24  26
ATOM     25  C   UNL     1       5.899   3.932  15.523  0.00  0.00    +0.000 C 
ATOM     26  C   UNL     1       6.244   5.313  16.049  0.00  0.00    +0.000 C 
ENDBRANCH  24  26
ENDBRANCH  22  24
ENDBRANCH   1  22
BRANCH  17  27
ATOM     27  C   UNL     1       2.640   3.700  17.723  0.00  0.00    +0.000 C 
BRANCH  27  28
ATOM     28  C   UNL     1       2.519   2.229  18.088  0.00  0.00    +0.000 C 
ATOM     29  C   UNL     1       3.774   1.400  18.144  0.00  0.00    +0.000 C 
ATOM     30  O   UNL     1       1.420   1.732  18.336  0.00  0.00    +0.000 OA
ENDBRANCH  27  28
ENDBRANCH  17  27
TORSDOF 6
ENDMDL
MODEL 7
REMARK VINA RESULT:      -7.0      5.461      8.371
REMARK  Name = 
REMARK  9 active torsions:
REMARK  status: ('A' for Active; 'I' for Inactive)
REMARK    1  A    between atoms: C_1  and  C_2
REMARK    2  A    between atoms: C_2  and  O_3
REMARK    3  A    between atoms: O_3  and  C_4
REMARK    4  A    between atoms: C_4  and  C_6
REMARK    5  A    between atoms: C_21  and  C_22
REMARK    6  A    between atoms: C_22  and  C_23
REMARK    7  A    between atoms: C_25  and  C_26
REMARK    8  A    between atoms: C_26  and  C_27
REMARK    9  A    between atoms: C_27  and  C_28
REMARK                            x       y       z     vdW  Elec       q    Type
REMARK                         _______ _______ _______ _____ _____    ______ ____
ROOT
ATOM      1  C   UNL     1      -0.974  11.676  19.052  0.00  0.00    +0.000 C 
ATOM      2  C   UNL     1      -0.212  12.791  18.855  0.00  0.00    +0.000 A 
ATOM      3  N   UNL     1      -0.776  14.057  18.858  0.00  0.00    +0.000 N 
ATOM      4  C   UNL     1      -0.010  15.224  18.753  0.00  0.00    +0.000 A 
ATOM      5  C   UNL     1      -0.623  16.477  18.821  0.00  0.00    +0.000 A 
ATOM      6  C   UNL     1       0.131  17.637  18.663  0.00  0.00    +0.000 A 
ATOM      7  C   UNL     1       1.492  17.552  18.424  0.00  0.00    +0.000 A 
ATOM      8  C   UNL     1       2.132  16.304  18.353  0.00  0.00    +0.000 A 
ATOM      9  C   UNL     1       3.509  16.210  18.120  0.00  0.00    +0.000 A 
ATOM     10  C   UNL     1       4.136  14.971  18.086  0.00  0.00    +0.000 A 
ATOM     11  C   UNL     1       3.393  13.806  18.272  0.00  0.00    +0.000 A 
ATOM     12  C   UNL     1       1.994  13.845  18.467  0.00  0.00    +0.000 A 
ATOM     13  C   UNL     1       1.372  15.118  18.522  0.00  0.00    +0.000 A 
ATOM     14  N   UNL     1       1.187  12.648  18.623  0.00  0.00    +0.000 N 
ATOM     15  C   UNL     1       1.719  11.380  18.446  0.00  0.00    +0.000 C 
ATOM     16  C   UNL     1       1.065  10.233  18.665  0.00  0.00    +0.000 C 
ATOM     17  C   UNL     1      -0.371  10.269  19.151  0.00  0.00    +0.000 C 
ATOM     18  H   UNL     1      -1.750  14.140  19.146  0.00  0.00    +0.000 HD
ENDROOT
BRANCH  16  19
ATOM     19  C   UNL     1       1.873   9.011  18.377  0.00  0.00    +0.000 C 
ATOM     20  C   UNL     1       2.059   7.940  19.411  0.00  0.00    +0.000 C 
ATOM     21  O   UNL     1       2.352   8.842  17.250  0.00  0.00    +0.000 OA
ENDBRANCH  16  19
BRANCH   1  22
ATOM     22  C   UNL     1      -2.452  11.831  19.186  0.00  0.00    +0.000 C 
ATOM     23  O   UNL     1      -3.001  12.651  19.911  0.00  0.00    +0.000 OA
BRANCH  22  24
ATOM     24  O   UNL     1      -3.105  10.964  18.367  0.00  0.00    +0.000 OA
BRANCH  24  26
ATOM     25  C   UNL     1      -2.672  10.134  16.136  0.00  0.00    +0.000 C 
ATOM     26  C   UNL     1      -3.096  11.324  16.975  0.00  0.00    +0.000 C 
ENDBRANCH  24  26
ENDBRANCH  22  24
ENDBRANCH   1  22
BRANCH  17  27
ATOM     27  C   UNL     1      -0.548   9.701  20.576  0.00  0.00    +0.000 C 
BRANCH  27  28
ATOM     28  C   UNL     1      -0.026  10.577  21.705  0.00  0.00    +0.000 C 
ATOM     29  C   UNL     1      -1.020  11.193  22.651  0.00  0.00    +0.000 C 
ATOM     30  O   UNL     1       1.183  10.771  21.840  0.00  0.00    +0.000 OA
ENDBRANCH  27  28
ENDBRANCH  17  27
TORSDOF 6
ENDMDL
MODEL 8
REMARK VINA RESULT:      -6.8      3.404      7.083
REMARK  Name = 
REMARK  9 active torsions:
REMARK  status: ('A' for Active; 'I' for Inactive)
REMARK    1  A    between atoms: C_1  and  C_2
REMARK    2  A    between atoms: C_2  and  O_3
REMARK    3  A    between atoms: O_3  and  C_4
REMARK    4  A    between atoms: C_4  and  C_6
REMARK    5  A    between atoms: C_21  and  C_22
REMARK    6  A    between atoms: C_22  and  C_23
REMARK    7  A    between atoms: C_25  and  C_26
REMARK    8  A    between atoms: C_26  and  C_27
REMARK    9  A    between atoms: C_27  and  C_28
REMARK                            x       y       z     vdW  Elec       q    Type
REMARK                         _______ _______ _______ _____ _____    ______ ____
ROOT
ATOM      1  C   UNL     1       0.499   9.491  20.810  0.00  0.00    +0.000 C 
ATOM      2  C   UNL     1       1.254   8.478  20.296  0.00  0.00    +0.000 A 
ATOM      3  N   UNL     1       1.295   7.232  20.904  0.00  0.00    +0.000 N 
ATOM      4  C   UNL     1       1.982   6.145  20.350  0.00  0.00    +0.000 A 
ATOM      5  C   UNL     1       1.942   4.897  20.973  0.00  0.00    +0.000 A 
ATOM      6  C   UNL     1       2.669   3.828  20.453  0.00  0.00    +0.000 A 
ATOM      7  C   UNL     1       3.446   4.005  19.321  0.00  0.00    +0.000 A 
ATOM      8  C   UNL     1       3.501   5.251  18.674  0.00  0.00    +0.000 A 
ATOM      9  C   UNL     1       4.278   5.435  17.525  0.00  0.00    +0.000 A 
ATOM     10  C   UNL     1       4.297   6.663  16.876  0.00  0.00    +0.000 A 
ATOM     11  C   UNL     1       3.549   7.729  17.374  0.00  0.00    +0.000 A 
ATOM     12  C   UNL     1       2.784   7.607  18.556  0.00  0.00    +0.000 A 
ATOM     13  C   UNL     1       2.756   6.341  19.194  0.00  0.00    +0.000 A 
ATOM     14  N   UNL     1       2.028   8.709  19.121  0.00  0.00    +0.000 N 
ATOM     15  C   UNL     1       2.124   9.997  18.616  0.00  0.00    +0.000 C 
ATOM     16  C   UNL     1       1.391  11.040  19.022  0.00  0.00    +0.000 C 
ATOM     17  C   UNL     1       0.355  10.850  20.113  0.00  0.00    +0.000 C 
ATOM     18  H   UNL     1       0.642   7.057  21.666  0.00  0.00    +0.000 HD
ENDROOT
BRANCH  16  19
ATOM     19  C   UNL     1       1.714  12.318  18.319  0.00  0.00    +0.000 C 
ATOM     20  C   UNL     1       0.906  13.560  18.553  0.00  0.00    +0.000 C 
ATOM     21  O   UNL     1       2.698  12.377  17.575  0.00  0.00    +0.000 OA
ENDBRANCH  16  19
BRANCH   1  22
ATOM     22  C   UNL     1      -0.220   9.269  22.099  0.00  0.00    +0.000 C 
ATOM     23  O   UNL     1      -0.836   8.250  22.382  0.00  0.00    +0.000 OA
BRANCH  22  24
ATOM     24  O   UNL     1      -0.069  10.336  22.927  0.00  0.00    +0.000 OA
BRANCH  24  26
ATOM     25  C   UNL     1      -1.183  12.483  22.998  0.00  0.00    +0.000 C 
ATOM     26  C   UNL     1      -1.293  10.998  23.290  0.00  0.00    +0.000 C 
ENDBRANCH  24  26
ENDBRANCH  22  24
ENDBRANCH   1  22
BRANCH  17  27
ATOM     27  C   UNL     1      -1.095  11.056  19.622  0.00  0.00    +0.000 C 
BRANCH  27  28
ATOM     28  C   UNL     1      -1.370  10.641  18.184  0.00  0.00    +0.000 C 
ATOM     29  C   UNL     1      -2.031  11.635  17.268  0.00  0.00    +0.000 C 
ATOM     30  O   UNL     1      -1.055   9.520  17.784  0.00  0.00    +0.000 OA
ENDBRANCH  27  28
ENDBRANCH  17  27
TORSDOF 6
ENDMDL
MODEL 9
REMARK VINA RESULT:      -6.8      1.608      2.469
REMARK  Name = 
REMARK  9 active torsions:
REMARK  status: ('A' for Active; 'I' for Inactive)
REMARK    1  A    between atoms: C_1  and  C_2
REMARK    2  A    between atoms: C_2  and  O_3
REMARK    3  A    between atoms: O_3  and  C_4
REMARK    4  A    between atoms: C_4  and  C_6
REMARK    5  A    between atoms: C_21  and  C_22
REMARK    6  A    between atoms: C_22  and  C_23
REMARK    7  A    between atoms: C_25  and  C_26
REMARK    8  A    between atoms: C_26  and  C_27
REMARK    9  A    between atoms: C_27  and  C_28
REMARK                            x       y       z     vdW  Elec       q    Type
REMARK                         _______ _______ _______ _____ _____    ______ ____
ROOT
ATOM      1  C   UNL     1       2.439   6.009  19.828  0.00  0.00    +0.000 C 
ATOM      2  C   UNL     1       1.906   7.260  19.938  0.00  0.00    +0.000 A 
ATOM      3  N   UNL     1       1.000   7.570  20.941  0.00  0.00    +0.000 N 
ATOM      4  C   UNL     1       0.508   8.865  21.139  0.00  0.00    +0.000 A 
ATOM      5  C   UNL     1      -0.357   9.135  22.201  0.00  0.00    +0.000 A 
ATOM      6  C   UNL     1      -0.890  10.411  22.367  0.00  0.00    +0.000 A 
ATOM      7  C   UNL     1      -0.573  11.416  21.469  0.00  0.00    +0.000 A 
ATOM      8  C   UNL     1       0.297  11.171  20.394  0.00  0.00    +0.000 A 
ATOM      9  C   UNL     1       0.628  12.184  19.487  0.00  0.00    +0.000 A 
ATOM     10  C   UNL     1       1.515  11.937  18.447  0.00  0.00    +0.000 A 
ATOM     11  C   UNL     1       2.075  10.670  18.292  0.00  0.00    +0.000 A 
ATOM     12  C   UNL     1       1.738   9.602  19.154  0.00  0.00    +0.000 A 
ATOM     13  C   UNL     1       0.850   9.875  20.224  0.00  0.00    +0.000 A 
ATOM     14  N   UNL     1       2.273   8.262  18.993  0.00  0.00    +0.000 N 
ATOM     15  C   UNL     1       3.039   7.907  17.892  0.00  0.00    +0.000 C 
ATOM     16  C   UNL     1       3.641   6.725  17.722  0.00  0.00    +0.000 C 
ATOM     17  C   UNL     1       3.514   5.657  18.792  0.00  0.00    +0.000 C 
ATOM     18  H   UNL     1       0.848   6.876  21.672  0.00  0.00    +0.000 HD
ENDROOT
BRANCH  16  19
ATOM     19  C   UNL     1       4.388   6.605  16.435  0.00  0.00    +0.000 C 
ATOM     20  C   UNL     1       4.849   5.272  15.924  0.00  0.00    +0.000 C 
ATOM     21  O   UNL     1       4.582   7.609  15.742  0.00  0.00    +0.000 OA
ENDBRANCH  16  19
BRANCH   1  22
ATOM     22  C   UNL     1       1.964   4.942  20.756  0.00  0.00    +0.000 C 
ATOM     23  O   UNL     1       2.520   4.635  21.802  0.00  0.00    +0.000 OA
BRANCH  22  24
ATOM     24  O   UNL     1       0.811   4.382  20.300  0.00  0.00    +0.000 OA
BRANCH  24  26
ATOM     25  C   UNL     1       1.056   2.683  18.595  0.00  0.00    +0.000 C 
ATOM     26  C   UNL     1       0.876   2.963  20.075  0.00  0.00    +0.000 C 
ENDBRANCH  24  26
ENDBRANCH  22  24
ENDBRANCH   1  22
BRANCH  17  27
ATOM     27  C   UNL     1       4.851   5.327  19.489  0.00  0.00    +0.000 C 
BRANCH  27  28
ATOM     28  C   UNL     1       5.472   3.986  19.125  0.00  0.00    +0.000 C 
ATOM     29  C   UNL     1       4.695   2.733  19.424  0.00  0.00    +0.000 C 
ATOM     30  O   UNL     1       6.582   3.933  18.595  0.00  0.00    +0.000 OA
ENDBRANCH  27  28
ENDBRANCH  17  27
TORSDOF 6
ENDMDL
