MODEL 1
REMARK VINA RESULT:      -7.3      0.000      0.000
REMARK  Name = 
REMARK  18 active torsions:
REMARK  status: ('A' for Active; 'I' for Inactive)
REMARK    1  A    between atoms: C_1  and  C_2
REMARK    2  A    between atoms: C_2  and  O_4
REMARK    3  A    between atoms: O_4  and  C_5
REMARK    4  A    between atoms: C_6  and  C_7
REMARK    5  A    between atoms: C_7  and  C_8
REMARK    6  A    between atoms: C_9  and  C_10
REMARK    7  A    between atoms: C_9  and  C_11
REMARK    8  A    between atoms: C_13  and  C_14
REMARK    9  A    between atoms: C_15  and  C_16
REMARK   10  A    between atoms: N_18  and  CA_19
REMARK   11  A    between atoms: CA_19  and  CB_20
REMARK   12  A    between atoms: CA_19  and  C_22
REMARK   13  A    between atoms: CB_20  and  OG_21
REMARK   14  A    between atoms: C_22  and  OXT_24
REMARK   15  A    between atoms: C_26  and  C_27
REMARK   16  A    between atoms: C_27  and  C_28
REMARK   17  A    between atoms: C_29  and  C_30
REMARK   18  A    between atoms: C_29  and  C_31
REMARK                            x       y       z     vdW  Elec       q    Type
REMARK                         _______ _______ _______ _____ _____    ______ ____
ROOT
ATOM      1  C   UNK A   0       1.536   8.261  19.622  0.00  0.00    +0.000 A 
ATOM      2  C   UNK A   0       2.008   6.962  19.913  0.00  0.00    +0.000 A 
ATOM      3  C   UNK A   0       2.934   6.385  19.021  0.00  0.00    +0.000 A 
ATOM      4  C   UNK A   0       3.362   7.048  17.867  0.00  0.00    +0.000 A 
ATOM      5  C   UNK A   0       2.880   8.332  17.599  0.00  0.00    +0.000 A 
ATOM      6  C   UNK A   0       1.952   8.954  18.459  0.00  0.00    +0.000 A 
ENDROOT
BRANCH   4   7
ATOM      7  C   UNK A   0       4.305   6.372  16.972  0.00  0.00    +0.000 C 
ATOM      8  C   UNK A   0       4.702   5.106  17.173  0.00  0.00    +0.000 C 
BRANCH   8   9
ATOM      9  C   UNK A   0       5.757   4.512  16.311  0.00  0.00    +0.000 C 
ATOM     10  O   UNK A   0       6.803   4.058  16.756  0.00  0.00    +0.000 OA
ATOM     11  N   SER A   1       5.448   4.470  14.980  0.00  0.00    +0.000 N 
ATOM     12  H   SER A   1       4.556   4.805  14.638  0.00  0.00    +0.000 HD
BRANCH  11  13
ATOM     13  CA  SER A   1       6.377   3.923  13.979  0.00  0.00    +0.000 C 
BRANCH  13  14
ATOM     14  C   SER A   1       7.394   5.003  13.633  0.00  0.00    +0.000 C 
ATOM     15  O   SER A   1       7.765   5.239  12.490  0.00  0.00    +0.000 OA
BRANCH  14  16
ATOM     16  OXT SER A   1       7.880   5.673  14.702  0.00  0.00    +0.000 OA
ATOM     17  HXT SER A   1       7.373   6.466  14.967  0.00  0.00    +0.000 HD
ENDBRANCH  14  16
ENDBRANCH  13  14
BRANCH  13  18
ATOM     18  CB  SER A   1       5.662   3.492  12.693  0.00  0.00    +0.000 C 
BRANCH  18  19
ATOM     19  OG  SER A   1       6.423   2.569  11.918  0.00  0.00    +0.000 OA
ATOM     20  H   SER A   1       6.771   3.032  11.127  0.00  0.00    +0.000 HD
ENDBRANCH  18  19
ENDBRANCH  13  18
ENDBRANCH  11  13
ENDBRANCH   8   9
ENDBRANCH   4   7
BRANCH   1  21
ATOM     21  O   UNK A   0       0.478   8.824  20.371  0.00  0.00    +0.000 OA
BRANCH  21  23
ATOM     22  C   UNK A   0      -0.166  10.864  21.372  0.00  0.00    +0.000 C 
ATOM     23  C   UNK A   0       0.770   9.687  21.422  0.00  0.00    +0.000 C 
ATOM     24  O   UNK A   0       1.609   9.517  22.298  0.00  0.00    +0.000 OA
ENDBRANCH  21  23
ENDBRANCH   1  21
BRANCH   2  25
ATOM     25  C   UNK A   0       1.640   6.144  21.139  0.00  0.00    +0.000 C 
BRANCH  25  26
ATOM     26  C   UNK A   0       2.318   4.810  21.306  0.00  0.00    +0.000 C 
ATOM     27  C   UNK A   0       1.968   3.619  20.786  0.00  0.00    +0.000 C 
ATOM     28  C   UNK A   0       0.767   3.388  19.916  0.00  0.00    +0.000 C 
ATOM     29  C   UNK A   0       2.804   2.392  21.044  0.00  0.00    +0.000 C 
ENDBRANCH  25  26
ENDBRANCH   2  25
BRANCH   6  30
ATOM     30  C   UNK A   0       1.427  10.331  18.080  0.00  0.00    +0.000 C 
BRANCH  30  31
ATOM     31  C   UNK A   0       2.464  11.427  18.107  0.00  0.00    +0.000 C 
ATOM     32  C   UNK A   0       2.226  12.733  18.358  0.00  0.00    +0.000 C 
ATOM     33  C   UNK A   0       0.861  13.327  18.578  0.00  0.00    +0.000 C 
ATOM     34  C   UNK A   0       3.349  13.736  18.445  0.00  0.00    +0.000 C 
ENDBRANCH  30  31
ENDBRANCH   6  30
TORSDOF 13
ENDMDL
MODEL 2
REMARK VINA RESULT:      -7.3      4.405      8.052
REMARK  Name = 
REMARK  18 active torsions:
REMARK  status: ('A' for Active; 'I' for Inactive)
REMARK    1  A    between atoms: C_1  and  C_2
REMARK    2  A    between atoms: C_2  and  O_4
REMARK    3  A    between atoms: O_4  and  C_5
REMARK    4  A    between atoms: C_6  and  C_7
REMARK    5  A    between atoms: C_7  and  C_8
REMARK    6  A    between atoms: C_9  and  C_10
REMARK    7  A    between atoms: C_9  and  C_11
REMARK    8  A    between atoms: C_13  and  C_14
REMARK    9  A    between atoms: C_15  and  C_16
REMARK   10  A    between atoms: N_18  and  CA_19
REMARK   11  A    between atoms: CA_19  and  CB_20
REMARK   12  A    between atoms: CA_19  and  C_22
REMARK   13  A    between atoms: CB_20  and  OG_21
REMARK   14  A    between atoms: C_22  and  OXT_24
REMARK   15  A    between atoms: C_26  and  C_27
REMARK   16  A    between atoms: C_27  and  C_28
REMARK   17  A    between atoms: C_29  and  C_30
REMARK   18  A    between atoms: C_29  and  C_31
REMARK                            x       y       z     vdW  Elec       q    Type
REMARK                         _______ _______ _______ _____ _____    ______ ____
ROOT
ATOM      1  C   UNK A   0       5.033   5.350  16.660  0.00  0.00    +0.000 A 
ATOM      2  C   UNK A   0       4.758   6.386  17.579  0.00  0.00    +0.000 A 
ATOM      3  C   UNK A   0       5.757   7.359  17.789  0.00  0.00    +0.000 A 
ATOM      4  C   UNK A   0       6.994   7.302  17.140  0.00  0.00    +0.000 A 
ATOM      5  C   UNK A   0       7.243   6.267  16.235  0.00  0.00    +0.000 A 
ATOM      6  C   UNK A   0       6.278   5.268  15.989  0.00  0.00    +0.000 A 
ENDROOT
BRANCH   4   7
ATOM      7  C   UNK A   0       7.993   8.334  17.431  0.00  0.00    +0.000 C 
ATOM      8  C   UNK A   0       8.100   8.907  18.640  0.00  0.00    +0.000 C 
BRANCH   8   9
ATOM      9  C   UNK A   0       9.043  10.037  18.847  0.00  0.00    +0.000 C 
ATOM     10  O   UNK A   0       9.959  10.000  19.657  0.00  0.00    +0.000 OA
ATOM     11  N   SER A   1       8.834  11.110  18.025  0.00  0.00    +0.000 N 
ATOM     12  H   SER A   1       8.101  11.099  17.326  0.00  0.00    +0.000 HD
BRANCH  11  13
ATOM     13  CA  SER A   1       9.666  12.321  18.094  0.00  0.00    +0.000 C 
BRANCH  13  14
ATOM     14  C   SER A   1       8.815  13.508  17.661  0.00  0.00    +0.000 C 
ATOM     15  O   SER A   1       7.601  13.450  17.512  0.00  0.00    +0.000 OA
BRANCH  14  16
ATOM     16  OXT SER A   1       9.517  14.640  17.426  0.00  0.00    +0.000 OA
ATOM     17  HXT SER A   1      10.268  14.802  18.032  0.00  0.00    +0.000 HD
ENDBRANCH  14  16
ENDBRANCH  13  14
BRANCH  13  18
ATOM     18  CB  SER A   1      10.894  12.238  17.181  0.00  0.00    +0.000 C 
BRANCH  18  19
ATOM     19  OG  SER A   1      11.982  11.536  17.777  0.00  0.00    +0.000 OA
ATOM     20  H   SER A   1      12.459  11.041  17.079  0.00  0.00    +0.000 HD
ENDBRANCH  18  19
ENDBRANCH  13  18
ENDBRANCH  11  13
ENDBRANCH   8   9
ENDBRANCH   4   7
BRANCH   1  21
ATOM     21  O   UNK A   0       4.154   4.250  16.535  0.00  0.00    +0.000 OA
BRANCH  21  23
ATOM     22  C   UNK A   0       2.475   2.978  17.603  0.00  0.00    +0.000 C 
ATOM     23  C   UNK A   0       3.903   3.449  17.644  0.00  0.00    +0.000 C 
ATOM     24  O   UNK A   0       4.710   3.113  18.502  0.00  0.00    +0.000 OA
ENDBRANCH  21  23
ENDBRANCH   1  21
BRANCH   2  25
ATOM     25  C   UNK A   0       3.453   6.575  18.333  0.00  0.00    +0.000 C 
BRANCH  25  26
ATOM     26  C   UNK A   0       2.623   7.780  17.982  0.00  0.00    +0.000 C 
ATOM     27  C   UNK A   0       1.825   8.512  18.782  0.00  0.00    +0.000 C 
ATOM     28  C   UNK A   0       1.592   8.233  20.238  0.00  0.00    +0.000 C 
ATOM     29  C   UNK A   0       1.095   9.716  18.246  0.00  0.00    +0.000 C 
ENDBRANCH  25  26
ENDBRANCH   2  25
BRANCH   6  30
ATOM     30  C   UNK A   0       6.634   4.140  15.033  0.00  0.00    +0.000 C 
BRANCH  30  31
ATOM     31  C   UNK A   0       5.577   3.835  14.001  0.00  0.00    +0.000 C 
ATOM     32  C   UNK A   0       5.793   3.635  12.683  0.00  0.00    +0.000 C 
ATOM     33  C   UNK A   0       7.131   3.763  12.006  0.00  0.00    +0.000 C 
ATOM     34  C   UNK A   0       4.672   3.250  11.750  0.00  0.00    +0.000 C 
ENDBRANCH  30  31
ENDBRANCH   6  30
TORSDOF 13
ENDMDL
MODEL 3
REMARK VINA RESULT:      -7.3      3.069      7.901
REMARK  Name = 
REMARK  18 active torsions:
REMARK  status: ('A' for Active; 'I' for Inactive)
REMARK    1  A    between atoms: C_1  and  C_2
REMARK    2  A    between atoms: C_2  and  O_4
REMARK    3  A    between atoms: O_4  and  C_5
REMARK    4  A    between atoms: C_6  and  C_7
REMARK    5  A    between atoms: C_7  and  C_8
REMARK    6  A    between atoms: C_9  and  C_10
REMARK    7  A    between atoms: C_9  and  C_11
REMARK    8  A    between atoms: C_13  and  C_14
REMARK    9  A    between atoms: C_15  and  C_16
REMARK   10  A    between atoms: N_18  and  CA_19
REMARK   11  A    between atoms: CA_19  and  CB_20
REMARK   12  A    between atoms: CA_19  and  C_22
REMARK   13  A    between atoms: CB_20  and  OG_21
REMARK   14  A    between atoms: C_22  and  OXT_24
REMARK   15  A    between atoms: C_26  and  C_27
REMARK   16  A    between atoms: C_27  and  C_28
REMARK   17  A    between atoms: C_29  and  C_30
REMARK   18  A    between atoms: C_29  and  C_31
REMARK                            x       y       z     vdW  Elec       q    Type
REMARK                         _______ _______ _______ _____ _____    ______ ____
ROOT
ATOM      1  C   UNK A   0       3.332   4.848  17.481  0.00  0.00    +0.000 A 
ATOM      2  C   UNK A   0       2.039   4.967  18.036  0.00  0.00    +0.000 A 
ATOM      3  C   UNK A   0       1.609   6.251  18.426  0.00  0.00    +0.000 A 
ATOM      4  C   UNK A   0       2.428   7.377  18.303  0.00  0.00    +0.000 A 
ATOM      5  C   UNK A   0       3.704   7.234  17.752  0.00  0.00    +0.000 A 
ATOM      6  C   UNK A   0       4.184   5.972  17.345  0.00  0.00    +0.000 A 
ENDROOT
BRANCH   4   7
ATOM      7  C   UNK A   0       1.921   8.674  18.758  0.00  0.00    +0.000 C 
ATOM      8  C   UNK A   0       1.373   8.844  19.971  0.00  0.00    +0.000 C 
BRANCH   8   9
ATOM      9  C   UNK A   0       0.758  10.148  20.333  0.00  0.00    +0.000 C 
ATOM     10  O   UNK A   0      -0.112  10.259  21.187  0.00  0.00    +0.000 OA
ATOM     11  N   SER A   1       1.274  11.225  19.668  0.00  0.00    +0.000 N 
ATOM     12  H   SER A   1       2.028  11.117  19.001  0.00  0.00    +0.000 HD
BRANCH  11  13
ATOM     13  CA  SER A   1       0.780  12.592  19.894  0.00  0.00    +0.000 C 
BRANCH  13  14
ATOM     14  C   SER A   1      -0.423  12.820  18.986  0.00  0.00    +0.000 C 
ATOM     15  O   SER A   1      -1.437  13.407  19.344  0.00  0.00    +0.000 OA
BRANCH  14  16
ATOM     16  OXT SER A   1      -0.294  12.294  17.747  0.00  0.00    +0.000 OA
ATOM     17  HXT SER A   1      -0.573  12.876  17.013  0.00  0.00    +0.000 HD
ENDBRANCH  14  16
ENDBRANCH  13  14
BRANCH  13  18
ATOM     18  CB  SER A   1       1.839  13.654  19.579  0.00  0.00    +0.000 C 
BRANCH  18  19
ATOM     19  OG  SER A   1       1.879  14.006  18.198  0.00  0.00    +0.000 OA
ATOM     20  H   SER A   1       2.060  14.965  18.121  0.00  0.00    +0.000 HD
ENDBRANCH  18  19
ENDBRANCH  13  18
ENDBRANCH  11  13
ENDBRANCH   8   9
ENDBRANCH   4   7
BRANCH   1  21
ATOM     21  O   UNK A   0       3.893   3.575  17.234  0.00  0.00    +0.000 OA
BRANCH  21  23
ATOM     22  C   UNK A   0       3.848   1.390  18.131  0.00  0.00    +0.000 C 
ATOM     23  C   UNK A   0       4.332   2.804  18.306  0.00  0.00    +0.000 C 
ATOM     24  O   UNK A   0       5.047   3.173  19.229  0.00  0.00    +0.000 OA
ENDBRANCH  21  23
ENDBRANCH   1  21
BRANCH   2  25
ATOM     25  C   UNK A   0       1.044   3.832  18.206  0.00  0.00    +0.000 C 
BRANCH  25  26
ATOM     26  C   UNK A   0       1.125   3.030  19.477  0.00  0.00    +0.000 C 
ATOM     27  C   UNK A   0       1.528   3.428  20.697  0.00  0.00    +0.000 C 
ATOM     28  C   UNK A   0       2.014   4.810  21.026  0.00  0.00    +0.000 C 
ATOM     29  C   UNK A   0       1.505   2.475  21.864  0.00  0.00    +0.000 C 
ENDBRANCH  25  26
ENDBRANCH   2  25
BRANCH   6  30
ATOM     30  C   UNK A   0       5.602   5.879  16.803  0.00  0.00    +0.000 C 
BRANCH  30  31
ATOM     31  C   UNK A   0       6.440   7.115  17.021  0.00  0.00    +0.000 C 
ATOM     32  C   UNK A   0       7.446   7.241  17.915  0.00  0.00    +0.000 C 
ATOM     33  C   UNK A   0       7.848   6.180  18.904  0.00  0.00    +0.000 C 
ATOM     34  C   UNK A   0       8.278   8.495  17.994  0.00  0.00    +0.000 C 
ENDBRANCH  30  31
ENDBRANCH   6  30
TORSDOF 13
ENDMDL
MODEL 4
REMARK VINA RESULT:      -7.2      2.754      9.014
REMARK  Name = 
REMARK  18 active torsions:
REMARK  status: ('A' for Active; 'I' for Inactive)
REMARK    1  A    between atoms: C_1  and  C_2
REMARK    2  A    between atoms: C_2  and  O_4
REMARK    3  A    between atoms: O_4  and  C_5
REMARK    4  A    between atoms: C_6  and  C_7
REMARK    5  A    between atoms: C_7  and  C_8
REMARK    6  A    between atoms: C_9  and  C_10
REMARK    7  A    between atoms: C_9  and  C_11
REMARK    8  A    between atoms: C_13  and  C_14
REMARK    9  A    between atoms: C_15  and  C_16
REMARK   10  A    between atoms: N_18  and  CA_19
REMARK   11  A    between atoms: CA_19  and  CB_20
REMARK   12  A    between atoms: CA_19  and  C_22
REMARK   13  A    between atoms: CB_20  and  OG_21
REMARK   14  A    between atoms: C_22  and  OXT_24
REMARK   15  A    between atoms: C_26  and  C_27
REMARK   16  A    between atoms: C_27  and  C_28
REMARK   17  A    between atoms: C_29  and  C_30
REMARK   18  A    between atoms: C_29  and  C_31
REMARK                            x       y       z     vdW  Elec       q    Type
REMARK                         _______ _______ _______ _____ _____    ______ ____
ROOT
ATOM      1  C   UNK A   0       5.009   5.564  17.757  0.00  0.00    +0.000 A 
ATOM      2  C   UNK A   0       4.890   6.418  16.639  0.00  0.00    +0.000 A 
ATOM      3  C   UNK A   0       3.894   7.415  16.678  0.00  0.00    +0.000 A 
ATOM      4  C   UNK A   0       3.026   7.552  17.766  0.00  0.00    +0.000 A 
ATOM      5  C   UNK A   0       3.163   6.695  18.860  0.00  0.00    +0.000 A 
ATOM      6  C   UNK A   0       4.142   5.680  18.871  0.00  0.00    +0.000 A 
ENDROOT
BRANCH   4   7
ATOM      7  C   UNK A   0       1.997   8.594  17.721  0.00  0.00    +0.000 C 
ATOM      8  C   UNK A   0       1.446   9.106  18.833  0.00  0.00    +0.000 C 
BRANCH   8   9
ATOM      9  C   UNK A   0       0.316  10.067  18.729  0.00  0.00    +0.000 C 
ATOM     10  O   UNK A   0      -0.631   9.900  17.972  0.00  0.00    +0.000 OA
ATOM     11  N   SER A   1       0.395  11.133  19.582  0.00  0.00    +0.000 N 
ATOM     12  H   SER A   1       1.163  11.225  20.235  0.00  0.00    +0.000 HD
BRANCH  11  13
ATOM     13  CA  SER A   1      -0.631  12.186  19.611  0.00  0.00    +0.000 C 
BRANCH  13  14
ATOM     14  C   SER A   1      -0.353  13.153  18.466  0.00  0.00    +0.000 C 
ATOM     15  O   SER A   1       0.417  14.101  18.555  0.00  0.00    +0.000 OA
BRANCH  14  16
ATOM     16  OXT SER A   1      -1.052  12.895  17.338  0.00  0.00    +0.000 OA
ATOM     17  HXT SER A   1      -1.207  11.948  17.147  0.00  0.00    +0.000 HD
ENDBRANCH  14  16
ENDBRANCH  13  14
BRANCH  13  18
ATOM     18  CB  SER A   1      -0.624  12.971  20.928  0.00  0.00    +0.000 C 
BRANCH  18  19
ATOM     19  OG  SER A   1       0.233  12.396  21.912  0.00  0.00    +0.000 OA
ATOM     20  H   SER A   1       0.754  13.110  22.333  0.00  0.00    +0.000 HD
ENDBRANCH  18  19
ENDBRANCH  13  18
ENDBRANCH  11  13
ENDBRANCH   8   9
ENDBRANCH   4   7
BRANCH   1  21
ATOM     21  O   UNK A   0       5.861   4.437  17.711  0.00  0.00    +0.000 OA
BRANCH  21  23
ATOM     22  C   UNK A   0       7.622   5.478  18.890  0.00  0.00    +0.000 C 
ATOM     23  C   UNK A   0       7.239   4.623  17.713  0.00  0.00    +0.000 C 
ATOM     24  O   UNK A   0       8.045   4.135  16.931  0.00  0.00    +0.000 OA
ENDBRANCH  21  23
ENDBRANCH   1  21
BRANCH   2  25
ATOM     25  C   UNK A   0       5.778   6.389  15.407  0.00  0.00    +0.000 C 
BRANCH  25  26
ATOM     26  C   UNK A   0       5.644   5.204  14.488  0.00  0.00    +0.000 C 
ATOM     27  C   UNK A   0       6.543   4.713  13.615  0.00  0.00    +0.000 C 
ATOM     28  C   UNK A   0       7.904   5.298  13.373  0.00  0.00    +0.000 C 
ATOM     29  C   UNK A   0       6.232   3.484  12.801  0.00  0.00    +0.000 C 
ENDBRANCH  25  26
ENDBRANCH   2  25
BRANCH   6  30
ATOM     30  C   UNK A   0       4.202   4.748  20.071  0.00  0.00    +0.000 C 
BRANCH  30  31
ATOM     31  C   UNK A   0       3.438   3.458  19.902  0.00  0.00    +0.000 C 
ATOM     32  C   UNK A   0       2.107   3.299  20.074  0.00  0.00    +0.000 C 
ATOM     33  C   UNK A   0       1.171   4.379  20.544  0.00  0.00    +0.000 C 
ATOM     34  C   UNK A   0       1.428   1.982  19.797  0.00  0.00    +0.000 C 
ENDBRANCH  30  31
ENDBRANCH   6  30
TORSDOF 13
ENDMDL
MODEL 5
REMARK VINA RESULT:      -7.1      2.796      8.336
REMARK  Name = 
REMARK  18 active torsions:
REMARK  status: ('A' for Active; 'I' for Inactive)
REMARK    1  A    between atoms: C_1  and  C_2
REMARK    2  A    between atoms: C_2  and  O_4
REMARK    3  A    between atoms: O_4  and  C_5
REMARK    4  A    between atoms: C_6  and  C_7
REMARK    5  A    between atoms: C_7  and  C_8
REMARK    6  A    between atoms: C_9  and  C_10
REMARK    7  A    between atoms: C_9  and  C_11
REMARK    8  A    between atoms: C_13  and  C_14
REMARK    9  A    between atoms: C_15  and  C_16
REMARK   10  A    between atoms: N_18  and  CA_19
REMARK   11  A    between atoms: CA_19  and  CB_20
REMARK   12  A    between atoms: CA_19  and  C_22
REMARK   13  A    between atoms: CB_20  and  OG_21
REMARK   14  A    between atoms: C_22  and  OXT_24
REMARK   15  A    between atoms: C_26  and  C_27
REMARK   16  A    between atoms: C_27  and  C_28
REMARK   17  A    between atoms: C_29  and  C_30
REMARK   18  A    between atoms: C_29  and  C_31
REMARK                            x       y       z     vdW  Elec       q    Type
REMARK                         _______ _______ _______ _____ _____    ______ ____
ROOT
ATOM      1  C   UNK A   0       4.986   5.084  17.592  0.00  0.00    +0.000 A 
ATOM      2  C   UNK A   0       4.331   4.910  18.831  0.00  0.00    +0.000 A 
ATOM      3  C   UNK A   0       3.355   5.859  19.196  0.00  0.00    +0.000 A 
ATOM      4  C   UNK A   0       3.051   6.958  18.386  0.00  0.00    +0.000 A 
ATOM      5  C   UNK A   0       3.713   7.109  17.165  0.00  0.00    +0.000 A 
ATOM      6  C   UNK A   0       4.699   6.189  16.753  0.00  0.00    +0.000 A 
ENDROOT
BRANCH   4   7
ATOM      7  C   UNK A   0       2.045   7.918  18.846  0.00  0.00    +0.000 C 
ATOM      8  C   UNK A   0       1.645   8.954  18.092  0.00  0.00    +0.000 C 
BRANCH   8   9
ATOM      9  C   UNK A   0       0.718   9.971  18.657  0.00  0.00    +0.000 C 
ATOM     10  O   UNK A   0       0.912  10.523  19.732  0.00  0.00    +0.000 OA
ATOM     11  N   SER A   1      -0.347  10.276  17.857  0.00  0.00    +0.000 N 
ATOM     12  H   SER A   1      -0.462   9.843  16.949  0.00  0.00    +0.000 HD
BRANCH  11  13
ATOM     13  CA  SER A   1      -1.370  11.254  18.258  0.00  0.00    +0.000 C 
BRANCH  13  14
ATOM     14  C   SER A   1      -2.668  10.907  17.538  0.00  0.00    +0.000 C 
ATOM     15  O   SER A   1      -3.017   9.760  17.290  0.00  0.00    +0.000 OA
BRANCH  14  16
ATOM     16  OXT SER A   1      -3.403  11.980  17.168  0.00  0.00    +0.000 OA
ATOM     17  HXT SER A   1      -3.552  12.076  16.206  0.00  0.00    +0.000 HD
ENDBRANCH  14  16
ENDBRANCH  13  14
BRANCH  13  18
ATOM     18  CB  SER A   1      -0.977  12.690  17.897  0.00  0.00    +0.000 C 
BRANCH  18  19
ATOM     19  OG  SER A   1      -1.239  13.618  18.948  0.00  0.00    +0.000 OA
ATOM     20  H   SER A   1      -1.771  14.359  18.590  0.00  0.00    +0.000 HD
ENDBRANCH  18  19
ENDBRANCH  13  18
ENDBRANCH  11  13
ENDBRANCH   8   9
ENDBRANCH   4   7
BRANCH   1  21
ATOM     21  O   UNK A   0       6.094   4.277  17.248  0.00  0.00    +0.000 OA
BRANCH  21  23
ATOM     22  C   UNK A   0       7.260   5.871  18.543  0.00  0.00    +0.000 C 
ATOM     23  C   UNK A   0       7.362   4.631  17.696  0.00  0.00    +0.000 C 
ATOM     24  O   UNK A   0       8.405   4.021  17.500  0.00  0.00    +0.000 OA
ENDBRANCH  21  23
ENDBRANCH   1  21
BRANCH   2  25
ATOM     25  C   UNK A   0       4.552   3.755  19.792  0.00  0.00    +0.000 C 
BRANCH  25  26
ATOM     26  C   UNK A   0       3.461   3.469  20.788  0.00  0.00    +0.000 C 
ATOM     27  C   UNK A   0       2.327   2.765  20.613  0.00  0.00    +0.000 C 
ATOM     28  C   UNK A   0       1.914   2.121  19.322  0.00  0.00    +0.000 C 
ATOM     29  C   UNK A   0       1.365   2.560  21.755  0.00  0.00    +0.000 C 
ENDBRANCH  25  26
ENDBRANCH   2  25
BRANCH   6  30
ATOM     30  C   UNK A   0       5.419   6.442  15.437  0.00  0.00    +0.000 C 
BRANCH  30  31
ATOM     31  C   UNK A   0       5.348   5.301  14.453  0.00  0.00    +0.000 C 
ATOM     32  C   UNK A   0       6.398   4.745  13.809  0.00  0.00    +0.000 C 
ATOM     33  C   UNK A   0       7.818   5.232  13.913  0.00  0.00    +0.000 C 
ATOM     34  C   UNK A   0       6.227   3.550  12.907  0.00  0.00    +0.000 C 
ENDBRANCH  30  31
ENDBRANCH   6  30
TORSDOF 13
ENDMDL
MODEL 6
REMARK VINA RESULT:      -7.1      3.270      8.375
REMARK  Name = 
REMARK  18 active torsions:
REMARK  status: ('A' for Active; 'I' for Inactive)
REMARK    1  A    between atoms: C_1  and  C_2
REMARK    2  A    between atoms: C_2  and  O_4
REMARK    3  A    between atoms: O_4  and  C_5
REMARK    4  A    between atoms: C_6  and  C_7
REMARK    5  A    between atoms: C_7  and  C_8
REMARK    6  A    between atoms: C_9  and  C_10
REMARK    7  A    between atoms: C_9  and  C_11
REMARK    8  A    between atoms: C_13  and  C_14
REMARK    9  A    between atoms: C_15  and  C_16
REMARK   10  A    between atoms: N_18  and  CA_19
REMARK   11  A    between atoms: CA_19  and  CB_20
REMARK   12  A    between atoms: CA_19  and  C_22
REMARK   13  A    between atoms: CB_20  and  OG_21
REMARK   14  A    between atoms: C_22  and  OXT_24
REMARK   15  A    between atoms: C_26  and  C_27
REMARK   16  A    between atoms: C_27  and  C_28
REMARK   17  A    between atoms: C_29  and  C_30
REMARK   18  A    between atoms: C_29  and  C_31
REMARK                            x       y       z     vdW  Elec       q    Type
REMARK                         _______ _______ _______ _____ _____    ______ ____
ROOT
ATOM      1  C   UNK A   0       3.509   4.755  17.326  0.00  0.00    +0.000 A 
ATOM      2  C   UNK A   0       2.202   5.017  17.792  0.00  0.00    +0.000 A 
ATOM      3  C   UNK A   0       1.861   6.357  18.067  0.00  0.00    +0.000 A 
ATOM      4  C   UNK A   0       2.779   7.401  17.917  0.00  0.00    +0.000 A 
ATOM      5  C   UNK A   0       4.067   7.116  17.456  0.00  0.00    +0.000 A 
ATOM      6  C   UNK A   0       4.460   5.793  17.166  0.00  0.00    +0.000 A 
ENDROOT
BRANCH   4   7
ATOM      7  C   UNK A   0       2.360   8.765  18.250  0.00  0.00    +0.000 C 
ATOM      8  C   UNK A   0       1.282   9.018  19.010  0.00  0.00    +0.000 C 
BRANCH   8   9
ATOM      9  C   UNK A   0       0.826  10.419  19.211  0.00  0.00    +0.000 C 
ATOM     10  O   UNK A   0       1.309  11.368  18.608  0.00  0.00    +0.000 OA
ATOM     11  N   SER A   1      -0.210  10.559  20.091  0.00  0.00    +0.000 N 
ATOM     12  H   SER A   1      -0.628   9.754  20.541  0.00  0.00    +0.000 HD
BRANCH  11  13
ATOM     13  CA  SER A   1      -0.784  11.873  20.418  0.00  0.00    +0.000 C 
BRANCH  13  14
ATOM     14  C   SER A   1      -0.740  12.049  21.931  0.00  0.00    +0.000 C 
ATOM     15  O   SER A   1      -0.513  13.120  22.480  0.00  0.00    +0.000 OA
BRANCH  14  16
ATOM     16  OXT SER A   1      -0.949  10.910  22.630  0.00  0.00    +0.000 OA
ATOM     17  HXT SER A   1      -1.770  10.427  22.411  0.00  0.00    +0.000 HD
ENDBRANCH  14  16
ENDBRANCH  13  14
BRANCH  13  18
ATOM     18  CB  SER A   1      -2.238  12.007  19.951  0.00  0.00    +0.000 C 
BRANCH  18  19
ATOM     19  OG  SER A   1      -3.108  12.484  20.975  0.00  0.00    +0.000 OA
ATOM     20  H   SER A   1      -4.020  12.187  20.778  0.00  0.00    +0.000 HD
ENDBRANCH  18  19
ENDBRANCH  13  18
ENDBRANCH  11  13
ENDBRANCH   8   9
ENDBRANCH   4   7
BRANCH   1  21
ATOM     21  O   UNK A   0       3.973   3.425  17.202  0.00  0.00    +0.000 OA
BRANCH  21  23
ATOM     22  C   UNK A   0       4.776   3.479  19.422  0.00  0.00    +0.000 C 
ATOM     23  C   UNK A   0       4.132   2.649  18.345  0.00  0.00    +0.000 C 
ATOM     24  O   UNK A   0       3.764   1.491  18.501  0.00  0.00    +0.000 OA
ENDBRANCH  21  23
ENDBRANCH   1  21
BRANCH   2  25
ATOM     25  C   UNK A   0       1.107   3.982  17.978  0.00  0.00    +0.000 C 
BRANCH  25  26
ATOM     26  C   UNK A   0       1.119   3.189  19.258  0.00  0.00    +0.000 C 
ATOM     27  C   UNK A   0       1.356   3.619  20.510  0.00  0.00    +0.000 C 
ATOM     28  C   UNK A   0       1.686   5.037  20.877  0.00  0.00    +0.000 C 
ATOM     29  C   UNK A   0       1.288   2.667  21.677  0.00  0.00    +0.000 C 
ENDBRANCH  25  26
ENDBRANCH   2  25
BRANCH   6  30
ATOM     30  C   UNK A   0       5.892   5.547  16.719  0.00  0.00    +0.000 C 
BRANCH  30  31
ATOM     31  C   UNK A   0       6.851   6.667  17.039  0.00  0.00    +0.000 C 
ATOM     32  C   UNK A   0       7.570   6.792  18.177  0.00  0.00    +0.000 C 
ATOM     33  C   UNK A   0       7.470   5.863  19.357  0.00  0.00    +0.000 C 
ATOM     34  C   UNK A   0       8.566   7.908  18.361  0.00  0.00    +0.000 C 
ENDBRANCH  30  31
ENDBRANCH   6  30
TORSDOF 13
ENDMDL
MODEL 7
REMARK VINA RESULT:      -7.1      2.825      8.088
REMARK  Name = 
REMARK  18 active torsions:
REMARK  status: ('A' for Active; 'I' for Inactive)
REMARK    1  A    between atoms: C_1  and  C_2
REMARK    2  A    between atoms: C_2  and  O_4
REMARK    3  A    between atoms: O_4  and  C_5
REMARK    4  A    between atoms: C_6  and  C_7
REMARK    5  A    between atoms: C_7  and  C_8
REMARK    6  A    between atoms: C_9  and  C_10
REMARK    7  A    between atoms: C_9  and  C_11
REMARK    8  A    between atoms: C_13  and  C_14
REMARK    9  A    between atoms: C_15  and  C_16
REMARK   10  A    between atoms: N_18  and  CA_19
REMARK   11  A    between atoms: CA_19  and  CB_20
REMARK   12  A    between atoms: CA_19  and  C_22
REMARK   13  A    between atoms: CB_20  and  OG_21
REMARK   14  A    between atoms: C_22  and  OXT_24
REMARK   15  A    between atoms: C_26  and  C_27
REMARK   16  A    between atoms: C_27  and  C_28
REMARK   17  A    between atoms: C_29  and  C_30
REMARK   18  A    between atoms: C_29  and  C_31
REMARK                            x       y       z     vdW  Elec       q    Type
REMARK                         _______ _______ _______ _____ _____    ______ ____
ROOT
ATOM      1  C   UNK A   0       3.509   4.744  17.634  0.00  0.00    +0.000 A 
ATOM      2  C   UNK A   0       2.159   4.889  18.024  0.00  0.00    +0.000 A 
ATOM      3  C   UNK A   0       1.699   6.188  18.321  0.00  0.00    +0.000 A 
ATOM      4  C   UNK A   0       2.540   7.303  18.265  0.00  0.00    +0.000 A 
ATOM      5  C   UNK A   0       3.872   7.134  17.878  0.00  0.00    +0.000 A 
ATOM      6  C   UNK A   0       4.383   5.856  17.570  0.00  0.00    +0.000 A 
ENDROOT
BRANCH   4   7
ATOM      7  C   UNK A   0       1.997   8.617  18.616  0.00  0.00    +0.000 C 
ATOM      8  C   UNK A   0       1.454   8.871  19.817  0.00  0.00    +0.000 C 
BRANCH   8   9
ATOM      9  C   UNK A   0       0.802  10.182  20.077  0.00  0.00    +0.000 C 
ATOM     10  O   UNK A   0       0.288  10.468  21.151  0.00  0.00    +0.000 OA
ATOM     11  N   SER A   1       0.860  11.063  19.034  0.00  0.00    +0.000 N 
ATOM     12  H   SER A   1       1.333  10.824  18.171  0.00  0.00    +0.000 HD
BRANCH  11  13
ATOM     13  CA  SER A   1       0.259  12.404  19.110  0.00  0.00    +0.000 C 
BRANCH  13  14
ATOM     14  C   SER A   1      -1.089  12.363  18.400  0.00  0.00    +0.000 C 
ATOM     15  O   SER A   1      -2.115  11.947  18.924  0.00  0.00    +0.000 OA
BRANCH  14  16
ATOM     16  OXT SER A   1      -1.059  12.803  17.122  0.00  0.00    +0.000 OA
ATOM     17  HXT SER A   1      -1.684  12.363  16.511  0.00  0.00    +0.000 HD
ENDBRANCH  14  16
ENDBRANCH  13  14
BRANCH  13  18
ATOM     18  CB  SER A   1       1.132  13.473  18.443  0.00  0.00    +0.000 C 
BRANCH  18  19
ATOM     19  OG  SER A   1       2.026  12.933  17.473  0.00  0.00    +0.000 OA
ATOM     20  H   SER A   1       2.922  13.299  17.630  0.00  0.00    +0.000 HD
ENDBRANCH  18  19
ENDBRANCH  13  18
ENDBRANCH  11  13
ENDBRANCH   8   9
ENDBRANCH   4   7
BRANCH   1  21
ATOM     21  O   UNK A   0       4.080   3.459  17.496  0.00  0.00    +0.000 OA
BRANCH  21  23
ATOM     22  C   UNK A   0       3.974   1.316  18.485  0.00  0.00    +0.000 C 
ATOM     23  C   UNK A   0       4.432   2.742  18.635  0.00  0.00    +0.000 C 
ATOM     24  O   UNK A   0       5.063   3.160  19.597  0.00  0.00    +0.000 OA
ENDBRANCH  21  23
ENDBRANCH   1  21
BRANCH   2  25
ATOM     25  C   UNK A   0       1.138   3.768  18.105  0.00  0.00    +0.000 C 
BRANCH  25  26
ATOM     26  C   UNK A   0       1.077   2.983  19.388  0.00  0.00    +0.000 C 
ATOM     27  C   UNK A   0       1.433   3.370  20.626  0.00  0.00    +0.000 C 
ATOM     28  C   UNK A   0       2.004   4.715  20.969  0.00  0.00    +0.000 C 
ATOM     29  C   UNK A   0       1.263   2.441  21.801  0.00  0.00    +0.000 C 
ENDBRANCH  25  26
ENDBRANCH   2  25
BRANCH   6  30
ATOM     30  C   UNK A   0       5.856   5.736  17.208  0.00  0.00    +0.000 C 
BRANCH  30  31
ATOM     31  C   UNK A   0       6.149   5.833  15.731  0.00  0.00    +0.000 C 
ATOM     32  C   UNK A   0       6.307   4.791  14.886  0.00  0.00    +0.000 C 
ATOM     33  C   UNK A   0       6.293   3.344  15.301  0.00  0.00    +0.000 C 
ATOM     34  C   UNK A   0       6.514   4.999  13.407  0.00  0.00    +0.000 C 
ENDBRANCH  30  31
ENDBRANCH   6  30
TORSDOF 13
ENDMDL
MODEL 8
REMARK VINA RESULT:      -7.0      3.404      8.556
REMARK  Name = 
REMARK  18 active torsions:
REMARK  status: ('A' for Active; 'I' for Inactive)
REMARK    1  A    between atoms: C_1  and  C_2
REMARK    2  A    between atoms: C_2  and  O_4
REMARK    3  A    between atoms: O_4  and  C_5
REMARK    4  A    between atoms: C_6  and  C_7
REMARK    5  A    between atoms: C_7  and  C_8
REMARK    6  A    between atoms: C_9  and  C_10
REMARK    7  A    between atoms: C_9  and  C_11
REMARK    8  A    between atoms: C_13  and  C_14
REMARK    9  A    between atoms: C_15  and  C_16
REMARK   10  A    between atoms: N_18  and  CA_19
REMARK   11  A    between atoms: CA_19  and  CB_20
REMARK   12  A    between atoms: CA_19  and  C_22
REMARK   13  A    between atoms: CB_20  and  OG_21
REMARK   14  A    between atoms: C_22  and  OXT_24
REMARK   15  A    between atoms: C_26  and  C_27
REMARK   16  A    between atoms: C_27  and  C_28
REMARK   17  A    between atoms: C_29  and  C_30
REMARK   18  A    between atoms: C_29  and  C_31
REMARK                            x       y       z     vdW  Elec       q    Type
REMARK                         _______ _______ _______ _____ _____    ______ ____
ROOT
ATOM      1  C   UNK A   0       3.899   6.180  18.645  0.00  0.00    +0.000 A 
ATOM      2  C   UNK A   0       2.739   6.361  19.429  0.00  0.00    +0.000 A 
ATOM      3  C   UNK A   0       1.928   7.480  19.151  0.00  0.00    +0.000 A 
ATOM      4  C   UNK A   0       2.258   8.406  18.157  0.00  0.00    +0.000 A 
ATOM      5  C   UNK A   0       3.412   8.207  17.396  0.00  0.00    +0.000 A 
ATOM      6  C   UNK A   0       4.258   7.104  17.632  0.00  0.00    +0.000 A 
ENDROOT
BRANCH   4   7
ATOM      7  C   UNK A   0       1.380   9.560  17.947  0.00  0.00    +0.000 C 
ATOM      8  C   UNK A   0       1.053  10.403  18.940  0.00  0.00    +0.000 C 
BRANCH   8   9
ATOM      9  C   UNK A   0       0.058  11.482  18.702  0.00  0.00    +0.000 C 
ATOM     10  O   UNK A   0       0.376  12.632  18.430  0.00  0.00    +0.000 OA
ATOM     11  N   SER A   1      -1.246  11.077  18.768  0.00  0.00    +0.000 N 
ATOM     12  H   SER A   1      -1.486  10.110  18.946  0.00  0.00    +0.000 HD
BRANCH  11  13
ATOM     13  CA  SER A   1      -2.364  12.011  18.568  0.00  0.00    +0.000 C 
BRANCH  13  14
ATOM     14  C   SER A   1      -2.799  12.534  19.932  0.00  0.00    +0.000 C 
ATOM     15  O   SER A   1      -3.932  12.400  20.376  0.00  0.00    +0.000 OA
BRANCH  14  16
ATOM     16  OXT SER A   1      -1.830  13.186  20.613  0.00  0.00    +0.000 OA
ATOM     17  HXT SER A   1      -1.058  12.643  20.871  0.00  0.00    +0.000 HD
ENDBRANCH  14  16
ENDBRANCH  13  14
BRANCH  13  18
ATOM     18  CB  SER A   1      -3.568  11.345  17.892  0.00  0.00    +0.000 C 
BRANCH  18  19
ATOM     19  OG  SER A   1      -4.632  12.256  17.629  0.00  0.00    +0.000 OA
ATOM     20  H   SER A   1      -4.836  12.235  16.671  0.00  0.00    +0.000 HD
ENDBRANCH  18  19
ENDBRANCH  13  18
ENDBRANCH  11  13
ENDBRANCH   8   9
ENDBRANCH   4   7
BRANCH   1  21
ATOM     21  O   UNK A   0       4.846   5.187  18.983  0.00  0.00    +0.000 OA
BRANCH  21  23
ATOM     22  C   UNK A   0       3.720   3.736  17.497  0.00  0.00    +0.000 C 
ATOM     23  C   UNK A   0       4.543   3.849  18.753  0.00  0.00    +0.000 C 
ATOM     24  O   UNK A   0       4.918   2.889  19.413  0.00  0.00    +0.000 OA
ENDBRANCH  21  23
ENDBRANCH   1  21
BRANCH   2  25
ATOM     25  C   UNK A   0       2.257   5.423  20.521  0.00  0.00    +0.000 C 
BRANCH  25  26
ATOM     26  C   UNK A   0       1.447   4.227  20.095  0.00  0.00    +0.000 C 
ATOM     27  C   UNK A   0       1.487   2.971  20.575  0.00  0.00    +0.000 C 
ATOM     28  C   UNK A   0       2.408   2.504  21.665  0.00  0.00    +0.000 C 
ATOM     29  C   UNK A   0       0.563   1.910  20.035  0.00  0.00    +0.000 C 
ENDBRANCH  25  26
ENDBRANCH   2  25
BRANCH   6  30
ATOM     30  C   UNK A   0       5.526   6.976  16.802  0.00  0.00    +0.000 C 
BRANCH  30  31
ATOM     31  C   UNK A   0       5.382   6.127  15.563  0.00  0.00    +0.000 C 
ATOM     32  C   UNK A   0       6.078   5.001  15.291  0.00  0.00    +0.000 C 
ATOM     33  C   UNK A   0       7.178   4.446  16.154  0.00  0.00    +0.000 C 
ATOM     34  C   UNK A   0       5.796   4.179  14.059  0.00  0.00    +0.000 C 
ENDBRANCH  30  31
ENDBRANCH   6  30
TORSDOF 13
ENDMDL
MODEL 9
REMARK VINA RESULT:      -7.0      4.418      8.086
REMARK  Name = 
REMARK  18 active torsions:
REMARK  status: ('A' for Active; 'I' for Inactive)
REMARK    1  A    between atoms: C_1  and  C_2
REMARK    2  A    between atoms: C_2  and  O_4
REMARK    3  A    between atoms: O_4  and  C_5
REMARK    4  A    between atoms: C_6  and  C_7
REMARK    5  A    between atoms: C_7  and  C_8
REMARK    6  A    between atoms: C_9  and  C_10
REMARK    7  A    between atoms: C_9  and  C_11
REMARK    8  A    between atoms: C_13  and  C_14
REMARK    9  A    between atoms: C_15  and  C_16
REMARK   10  A    between atoms: N_18  and  CA_19
REMARK   11  A    between atoms: CA_19  and  CB_20
REMARK   12  A    between atoms: CA_19  and  C_22
REMARK   13  A    between atoms: CB_20  and  OG_21
REMARK   14  A    between atoms: C_22  and  OXT_24
REMARK   15  A    between atoms: C_26  and  C_27
REMARK   16  A    between atoms: C_27  and  C_28
REMARK   17  A    between atoms: C_29  and  C_30
REMARK   18  A    between atoms: C_29  and  C_31
REMARK                            x       y       z     vdW  Elec       q    Type
REMARK                         _______ _______ _______ _____ _____    ______ ____
ROOT
ATOM      1  C   UNK A   0       5.544   4.336  17.160  0.00  0.00    +0.000 A 
ATOM      2  C   UNK A   0       5.430   5.162  18.299  0.00  0.00    +0.000 A 
ATOM      3  C   UNK A   0       6.113   6.395  18.286  0.00  0.00    +0.000 A 
ATOM      4  C   UNK A   0       6.903   6.793  17.202  0.00  0.00    +0.000 A 
ATOM      5  C   UNK A   0       7.001   5.958  16.087  0.00  0.00    +0.000 A 
ATOM      6  C   UNK A   0       6.339   4.713  16.049  0.00  0.00    +0.000 A 
ENDROOT
BRANCH   4   7
ATOM      7  C   UNK A   0       7.605   8.077  17.274  0.00  0.00    +0.000 C 
ATOM      8  C   UNK A   0       8.222   8.496  18.390  0.00  0.00    +0.000 C 
BRANCH   8   9
ATOM      9  C   UNK A   0       8.808   9.861  18.448  0.00  0.00    +0.000 C 
ATOM     10  O   UNK A   0       8.457  10.768  17.705  0.00  0.00    +0.000 OA
ATOM     11  N   SER A   1       9.743  10.037  19.430  0.00  0.00    +0.000 N 
ATOM     12  H   SER A   1       9.983   9.287  20.066  0.00  0.00    +0.000 HD
BRANCH  11  13
ATOM     13  CA  SER A   1      10.433  11.321  19.629  0.00  0.00    +0.000 C 
BRANCH  13  14
ATOM     14  C   SER A   1       9.487  12.261  20.367  0.00  0.00    +0.000 C 
ATOM     15  O   SER A   1       9.350  12.261  21.584  0.00  0.00    +0.000 OA
BRANCH  14  16
ATOM     16  OXT SER A   1       8.784  13.088  19.562  0.00  0.00    +0.000 OA
ATOM     17  HXT SER A   1       9.136  13.997  19.481  0.00  0.00    +0.000 HD
ENDBRANCH  14  16
ENDBRANCH  13  14
BRANCH  13  18
ATOM     18  CB  SER A   1      10.841  11.976  18.305  0.00  0.00    +0.000 C 
BRANCH  18  19
ATOM     19  OG  SER A   1      12.045  11.435  17.766  0.00  0.00    +0.000 OA
ATOM     20  H   SER A   1      12.214  11.847  16.894  0.00  0.00    +0.000 HD
ENDBRANCH  18  19
ENDBRANCH  13  18
ENDBRANCH  11  13
ENDBRANCH   8   9
ENDBRANCH   4   7
BRANCH   1  21
ATOM     21  O   UNK A   0       5.036   3.017  17.177  0.00  0.00    +0.000 OA
BRANCH  21  23
ATOM     22  C   UNK A   0       3.453   1.631  18.249  0.00  0.00    +0.000 C 
ATOM     23  C   UNK A   0       3.671   2.813  17.345  0.00  0.00    +0.000 C 
ATOM     24  O   UNK A   0       2.766   3.503  16.891  0.00  0.00    +0.000 OA
ENDBRANCH  21  23
ENDBRANCH   1  21
BRANCH   2  25
ATOM     25  C   UNK A   0       4.592   4.860  19.529  0.00  0.00    +0.000 C 
BRANCH  25  26
ATOM     26  C   UNK A   0       3.431   5.775  19.814  0.00  0.00    +0.000 C 
ATOM     27  C   UNK A   0       2.280   5.497  20.453  0.00  0.00    +0.000 C 
ATOM     28  C   UNK A   0       1.917   4.150  21.009  0.00  0.00    +0.000 C 
ATOM     29  C   UNK A   0       1.244   6.568  20.672  0.00  0.00    +0.000 C 
ENDBRANCH  25  26
ENDBRANCH   2  25
BRANCH   6  30
ATOM     30  C   UNK A   0       6.531   3.830  14.826  0.00  0.00    +0.000 C 
BRANCH  30  31
ATOM     31  C   UNK A   0       5.425   3.924  13.804  0.00  0.00    +0.000 C 
ATOM     32  C   UNK A   0       5.499   3.509  12.520  0.00  0.00    +0.000 C 
ATOM     33  C   UNK A   0       6.736   2.950  11.871  0.00  0.00    +0.000 C 
ATOM     34  C   UNK A   0       4.304   3.572  11.602  0.00  0.00    +0.000 C 
ENDBRANCH  30  31
ENDBRANCH   6  30
TORSDOF 13
ENDMDL
