MODEL 1
REMARK VINA RESULT:      -8.3      0.000      0.000
REMARK  Name = 
REMARK  9 active torsions:
REMARK  status: ('A' for Active; 'I' for Inactive)
REMARK    1  A    between atoms: C_1  and  C_2
REMARK    2  A    between atoms: C_4  and  C_5
REMARK    3  A    between atoms: C_5  and  N_6
REMARK    4  A    between atoms: C_14  and  C_15
REMARK    5  A    between atoms: C_15  and  C_17
REMARK    6  A    between atoms: C_17  and  N_18
REMARK    7  A    between atoms: C_21  and  O_22
REMARK    8  A    between atoms: O_22  and  C_23
REMARK    9  A    between atoms: C_23  and  C_24
REMARK                            x       y       z     vdW  Elec       q    Type
REMARK                         _______ _______ _______ _____ _____    ______ ____
ROOT
ATOM      1  C   UNL     1       2.934   4.033  17.753  0.00  0.00    +0.000 C 
ATOM      2  O   UNL     1       2.035   3.555  17.062  0.00  0.00    +0.000 OA
ENDROOT
BRANCH   1   9
ATOM      3  C   UNL     1       2.094   3.919  20.729  0.00  0.00    +0.000 C 
ATOM      4  C   UNL     1       2.173   5.185  19.917  0.00  0.00    +0.000 A 
ATOM      5  C   UNL     1       1.828   6.392  20.559  0.00  0.00    +0.000 A 
ATOM      6  C   UNL     1       1.963   7.636  19.925  0.00  0.00    +0.000 A 
ATOM      7  C   UNL     1       2.512   7.667  18.637  0.00  0.00    +0.000 A 
ATOM      8  C   UNL     1       2.827   6.483  17.977  0.00  0.00    +0.000 A 
ATOM      9  C   UNL     1       2.623   5.235  18.586  0.00  0.00    +0.000 A 
BRANCH   6  10
ATOM     10  C   UNL     1       1.571   8.912  20.638  0.00  0.00    +0.000 C 
BRANCH  10  11
ATOM     11  N   UNL     1       0.149   9.152  20.885  0.00  0.00    +0.000 NA
ATOM     12  C   UNL     1      -0.390  10.443  20.442  0.00  0.00    +0.000 C 
ATOM     13  C   UNL     1      -0.385  11.540  21.516  0.00  0.00    +0.000 C 
ATOM     14  O   UNL     1      -1.049  11.102  22.707  0.00  0.00    +0.000 OA
ATOM     15  C   UNL     1      -0.414   9.933  23.238  0.00  0.00    +0.000 C 
ATOM     16  C   UNL     1      -0.362   8.789  22.210  0.00  0.00    +0.000 C 
ENDBRANCH  10  11
ENDBRANCH   6  10
ENDBRANCH   1   9
BRANCH   1  17
ATOM     17  C   UNL     1       4.344   3.436  17.859  0.00  0.00    +0.000 C 
BRANCH  17  18
ATOM     18  N   UNL     1       5.389   4.417  17.578  0.00  0.00    +0.000 N 
ATOM     19  C   UNL     1       6.251   4.799  18.588  0.00  0.00    +0.000 A 
ATOM     20  C   UNL     1       7.136   5.784  18.397  0.00  0.00    +0.000 A 
ATOM     21  C   UNL     1       7.161   6.511  17.152  0.00  0.00    +0.000 A 
ATOM     22  C   UNL     1       6.423   6.077  16.112  0.00  0.00    +0.000 A 
ATOM     23  C   UNL     1       5.498   4.920  16.283  0.00  0.00    +0.000 A 
ATOM     24  O   UNL     1       4.870   4.493  15.319  0.00  0.00    +0.000 OA
BRANCH  21  25
ATOM     25  O   UNL     1       7.952   7.626  17.228  0.00  0.00    +0.000 OA
BRANCH  25  26
ATOM     26  C   UNL     1       8.272   8.157  18.510  0.00  0.00    +0.000 C 
BRANCH  26  27
ATOM     27  C   UNL     1       8.610   9.636  18.454  0.00  0.00    +0.000 A 
ATOM     28  C   UNL     1       9.686  10.203  19.149  0.00  0.00    +0.000 A 
ATOM     29  C   UNL     1      10.029  11.544  18.958  0.00  0.00    +0.000 A 
ATOM     30  C   UNL     1       9.296  12.337  18.077  0.00  0.00    +0.000 A 
ATOM     31  C   UNL     1       8.193  11.801  17.418  0.00  0.00    +0.000 A 
ATOM     32  C   UNL     1       7.848  10.462  17.611  0.00  0.00    +0.000 A 
ENDBRANCH  26  27
ENDBRANCH  25  26
ENDBRANCH  21  25
ENDBRANCH  17  18
ENDBRANCH   1  17
TORSDOF 8
ENDMDL
MODEL 2
REMARK VINA RESULT:      -8.3      1.020      1.397
REMARK  Name = 
REMARK  9 active torsions:
REMARK  status: ('A' for Active; 'I' for Inactive)
REMARK    1  A    between atoms: C_1  and  C_2
REMARK    2  A    between atoms: C_4  and  C_5
REMARK    3  A    between atoms: C_5  and  N_6
REMARK    4  A    between atoms: C_14  and  C_15
REMARK    5  A    between atoms: C_15  and  C_17
REMARK    6  A    between atoms: C_17  and  N_18
REMARK    7  A    between atoms: C_21  and  O_22
REMARK    8  A    between atoms: O_22  and  C_23
REMARK    9  A    between atoms: C_23  and  C_24
REMARK                            x       y       z     vdW  Elec       q    Type
REMARK                         _______ _______ _______ _____ _____    ______ ____
ROOT
ATOM      1  C   UNL     1       2.825   4.153  17.675  0.00  0.00    +0.000 C 
ATOM      2  O   UNL     1       1.873   3.535  17.201  0.00  0.00    +0.000 OA
ENDROOT
BRANCH   1   9
ATOM      3  C   UNL     1       2.238   3.986  20.708  0.00  0.00    +0.000 C 
ATOM      4  C   UNL     1       2.202   5.260  19.905  0.00  0.00    +0.000 A 
ATOM      5  C   UNL     1       1.865   6.448  20.585  0.00  0.00    +0.000 A 
ATOM      6  C   UNL     1       1.901   7.701  19.955  0.00  0.00    +0.000 A 
ATOM      7  C   UNL     1       2.340   7.762  18.627  0.00  0.00    +0.000 A 
ATOM      8  C   UNL     1       2.644   6.596  17.931  0.00  0.00    +0.000 A 
ATOM      9  C   UNL     1       2.539   5.337  18.542  0.00  0.00    +0.000 A 
BRANCH   6  10
ATOM     10  C   UNL     1       1.521   8.956  20.711  0.00  0.00    +0.000 C 
BRANCH  10  11
ATOM     11  N   UNL     1       0.101   9.195  20.976  0.00  0.00    +0.000 NA
ATOM     12  C   UNL     1      -0.420  10.524  20.636  0.00  0.00    +0.000 C 
ATOM     13  C   UNL     1      -0.400  11.533  21.794  0.00  0.00    +0.000 C 
ATOM     14  O   UNL     1      -1.072  11.011  22.947  0.00  0.00    +0.000 OA
ATOM     15  C   UNL     1      -0.452   9.795  23.384  0.00  0.00    +0.000 C 
ATOM     16  C   UNL     1      -0.416   8.735  22.269  0.00  0.00    +0.000 C 
ENDBRANCH  10  11
ENDBRANCH   6  10
ENDBRANCH   1   9
BRANCH   1  17
ATOM     17  C   UNL     1       4.293   3.751  17.478  0.00  0.00    +0.000 C 
BRANCH  17  18
ATOM     18  N   UNL     1       5.218   4.835  17.799  0.00  0.00    +0.000 N 
ATOM     19  C   UNL     1       5.370   5.883  16.911  0.00  0.00    +0.000 A 
ATOM     20  C   UNL     1       6.297   6.824  17.115  0.00  0.00    +0.000 A 
ATOM     21  C   UNL     1       7.203   6.725  18.233  0.00  0.00    +0.000 A 
ATOM     22  C   UNL     1       6.996   5.789  19.177  0.00  0.00    +0.000 A 
ATOM     23  C   UNL     1       5.905   4.787  19.010  0.00  0.00    +0.000 A 
ATOM     24  O   UNL     1       5.683   3.971  19.900  0.00  0.00    +0.000 OA
BRANCH  21  25
ATOM     25  O   UNL     1       8.226   7.631  18.141  0.00  0.00    +0.000 OA
BRANCH  25  26
ATOM     26  C   UNL     1       7.968   8.906  17.563  0.00  0.00    +0.000 C 
BRANCH  26  27
ATOM     27  C   UNL     1       8.593  10.038  18.359  0.00  0.00    +0.000 A 
ATOM     28  C   UNL     1       9.096   9.875  19.656  0.00  0.00    +0.000 A 
ATOM     29  C   UNL     1       9.779  10.917  20.291  0.00  0.00    +0.000 A 
ATOM     30  C   UNL     1       9.958  12.137  19.640  0.00  0.00    +0.000 A 
ATOM     31  C   UNL     1       9.420  12.330  18.371  0.00  0.00    +0.000 A 
ATOM     32  C   UNL     1       8.736  11.290  17.738  0.00  0.00    +0.000 A 
ENDBRANCH  26  27
ENDBRANCH  25  26
ENDBRANCH  21  25
ENDBRANCH  17  18
ENDBRANCH   1  17
TORSDOF 8
ENDMDL
MODEL 3
REMARK VINA RESULT:      -8.1      1.045      1.532
REMARK  Name = 
REMARK  9 active torsions:
REMARK  status: ('A' for Active; 'I' for Inactive)
REMARK    1  A    between atoms: C_1  and  C_2
REMARK    2  A    between atoms: C_4  and  C_5
REMARK    3  A    between atoms: C_5  and  N_6
REMARK    4  A    between atoms: C_14  and  C_15
REMARK    5  A    between atoms: C_15  and  C_17
REMARK    6  A    between atoms: C_17  and  N_18
REMARK    7  A    between atoms: C_21  and  O_22
REMARK    8  A    between atoms: O_22  and  C_23
REMARK    9  A    between atoms: C_23  and  C_24
REMARK                            x       y       z     vdW  Elec       q    Type
REMARK                         _______ _______ _______ _____ _____    ______ ____
ROOT
ATOM      1  C   UNL     1       3.410   4.049  18.052  0.00  0.00    +0.000 C 
ATOM      2  O   UNL     1       2.669   3.475  17.257  0.00  0.00    +0.000 OA
ENDROOT
BRANCH   1   9
ATOM      3  C   UNL     1       2.385   3.823  20.963  0.00  0.00    +0.000 C 
ATOM      4  C   UNL     1       2.322   5.080  20.136  0.00  0.00    +0.000 A 
ATOM      5  C   UNL     1       1.744   6.220  20.730  0.00  0.00    +0.000 A 
ATOM      6  C   UNL     1       1.728   7.466  20.086  0.00  0.00    +0.000 A 
ATOM      7  C   UNL     1       2.356   7.576  18.840  0.00  0.00    +0.000 A 
ATOM      8  C   UNL     1       2.902   6.453  18.225  0.00  0.00    +0.000 A 
ATOM      9  C   UNL     1       2.854   5.192  18.839  0.00  0.00    +0.000 A 
BRANCH   6  10
ATOM     10  C   UNL     1       1.088   8.669  20.746  0.00  0.00    +0.000 C 
BRANCH  10  11
ATOM     11  N   UNL     1       1.050   9.925  19.997  0.00  0.00    +0.000 NA
ATOM     12  C   UNL     1       1.081  11.164  20.781  0.00  0.00    +0.000 C 
ATOM     13  C   UNL     1      -0.303  11.740  21.121  0.00  0.00    +0.000 C 
ATOM     14  O   UNL     1      -1.095  11.914  19.940  0.00  0.00    +0.000 OA
ATOM     15  C   UNL     1      -1.269  10.664  19.261  0.00  0.00    +0.000 C 
ATOM     16  C   UNL     1       0.078  10.012  18.902  0.00  0.00    +0.000 C 
ENDBRANCH  10  11
ENDBRANCH   6  10
ENDBRANCH   1   9
BRANCH   1  17
ATOM     17  C   UNL     1       4.860   3.629  18.331  0.00  0.00    +0.000 C 
BRANCH  17  18
ATOM     18  N   UNL     1       5.818   4.689  18.025  0.00  0.00    +0.000 N 
ATOM     19  C   UNL     1       6.580   5.230  19.043  0.00  0.00    +0.000 A 
ATOM     20  C   UNL     1       7.373   6.283  18.819  0.00  0.00    +0.000 A 
ATOM     21  C   UNL     1       7.397   6.915  17.523  0.00  0.00    +0.000 A 
ATOM     22  C   UNL     1       6.765   6.334  16.486  0.00  0.00    +0.000 A 
ATOM     23  C   UNL     1       5.950   5.104  16.702  0.00  0.00    +0.000 A 
ATOM     24  O   UNL     1       5.423   4.545  15.744  0.00  0.00    +0.000 OA
BRANCH  21  25
ATOM     25  O   UNL     1       8.069   8.108  17.550  0.00  0.00    +0.000 OA
BRANCH  25  26
ATOM     26  C   UNL     1       8.626   8.557  18.781  0.00  0.00    +0.000 C 
BRANCH  26  27
ATOM     27  C   UNL     1       8.977  10.034  18.750  0.00  0.00    +0.000 A 
ATOM     28  C   UNL     1       8.607  10.888  17.703  0.00  0.00    +0.000 A 
ATOM     29  C   UNL     1       8.843  12.263  17.789  0.00  0.00    +0.000 A 
ATOM     30  C   UNL     1       9.458  12.800  18.919  0.00  0.00    +0.000 A 
ATOM     31  C   UNL     1       9.877  11.957  19.944  0.00  0.00    +0.000 A 
ATOM     32  C   UNL     1       9.645  10.583  19.857  0.00  0.00    +0.000 A 
ENDBRANCH  26  27
ENDBRANCH  25  26
ENDBRANCH  21  25
ENDBRANCH  17  18
ENDBRANCH   1  17
TORSDOF 8
ENDMDL
MODEL 4
REMARK VINA RESULT:      -8.1      1.791      2.251
REMARK  Name = 
REMARK  9 active torsions:
REMARK  status: ('A' for Active; 'I' for Inactive)
REMARK    1  A    between atoms: C_1  and  C_2
REMARK    2  A    between atoms: C_4  and  C_5
REMARK    3  A    between atoms: C_5  and  N_6
REMARK    4  A    between atoms: C_14  and  C_15
REMARK    5  A    between atoms: C_15  and  C_17
REMARK    6  A    between atoms: C_17  and  N_18
REMARK    7  A    between atoms: C_21  and  O_22
REMARK    8  A    between atoms: O_22  and  C_23
REMARK    9  A    between atoms: C_23  and  C_24
REMARK                            x       y       z     vdW  Elec       q    Type
REMARK                         _______ _______ _______ _____ _____    ______ ____
ROOT
ATOM      1  C   UNL     1       4.007   4.094  18.371  0.00  0.00    +0.000 C 
ATOM      2  O   UNL     1       3.732   3.063  18.982  0.00  0.00    +0.000 OA
ENDROOT
BRANCH   1   9
ATOM      3  C   UNL     1       2.564   4.488  21.079  0.00  0.00    +0.000 C 
ATOM      4  C   UNL     1       2.624   5.527  19.991  0.00  0.00    +0.000 A 
ATOM      5  C   UNL     1       1.966   6.751  20.223  0.00  0.00    +0.000 A 
ATOM      6  C   UNL     1       2.044   7.821  19.320  0.00  0.00    +0.000 A 
ATOM      7  C   UNL     1       2.850   7.671  18.184  0.00  0.00    +0.000 A 
ATOM      8  C   UNL     1       3.480   6.458  17.923  0.00  0.00    +0.000 A 
ATOM      9  C   UNL     1       3.341   5.365  18.792  0.00  0.00    +0.000 A 
BRANCH   6  10
ATOM     10  C   UNL     1       1.315   9.119  19.593  0.00  0.00    +0.000 C 
BRANCH  10  11
ATOM     11  N   UNL     1       0.941   9.952  18.449  0.00  0.00    +0.000 NA
ATOM     12  C   UNL     1       1.880  11.012  18.068  0.00  0.00    +0.000 C 
ATOM     13  C   UNL     1       1.590  12.381  18.703  0.00  0.00    +0.000 C 
ATOM     14  O   UNL     1       0.241  12.792  18.453  0.00  0.00    +0.000 OA
ATOM     15  C   UNL     1      -0.684  11.834  18.980  0.00  0.00    +0.000 C 
ATOM     16  C   UNL     1      -0.446  10.426  18.404  0.00  0.00    +0.000 C 
ENDBRANCH  10  11
ENDBRANCH   6  10
ENDBRANCH   1   9
BRANCH   1  17
ATOM     17  C   UNL     1       5.037   4.170  17.236  0.00  0.00    +0.000 C 
BRANCH  17  18
ATOM     18  N   UNL     1       6.071   5.171  17.484  0.00  0.00    +0.000 N 
ATOM     19  C   UNL     1       6.773   5.142  18.674  0.00  0.00    +0.000 A 
ATOM     20  C   UNL     1       7.636   6.115  18.984  0.00  0.00    +0.000 A 
ATOM     21  C   UNL     1       7.800   7.250  18.110  0.00  0.00    +0.000 A 
ATOM     22  C   UNL     1       7.227   7.241  16.892  0.00  0.00    +0.000 A 
ATOM     23  C   UNL     1       6.334   6.116  16.494  0.00  0.00    +0.000 A 
ATOM     24  O   UNL     1       5.860   6.084  15.362  0.00  0.00    +0.000 OA
BRANCH  21  25
ATOM     25  O   UNL     1       8.529   8.247  18.702  0.00  0.00    +0.000 OA
BRANCH  25  26
ATOM     26  C   UNL     1       8.380   9.582  18.231  0.00  0.00    +0.000 C 
BRANCH  26  27
ATOM     27  C   UNL     1       9.401  10.526  18.840  0.00  0.00    +0.000 A 
ATOM     28  C   UNL     1      10.290  11.291  18.072  0.00  0.00    +0.000 A 
ATOM     29  C   UNL     1      11.118  12.240  18.679  0.00  0.00    +0.000 A 
ATOM     30  C   UNL     1      11.075  12.429  20.059  0.00  0.00    +0.000 A 
ATOM     31  C   UNL     1      10.234  11.641  20.840  0.00  0.00    +0.000 A 
ATOM     32  C   UNL     1       9.409  10.691  20.235  0.00  0.00    +0.000 A 
ENDBRANCH  26  27
ENDBRANCH  25  26
ENDBRANCH  21  25
ENDBRANCH  17  18
ENDBRANCH   1  17
TORSDOF 8
ENDMDL
MODEL 5
REMARK VINA RESULT:      -8.1      1.479      1.870
REMARK  Name = 
REMARK  9 active torsions:
REMARK  status: ('A' for Active; 'I' for Inactive)
REMARK    1  A    between atoms: C_1  and  C_2
REMARK    2  A    between atoms: C_4  and  C_5
REMARK    3  A    between atoms: C_5  and  N_6
REMARK    4  A    between atoms: C_14  and  C_15
REMARK    5  A    between atoms: C_15  and  C_17
REMARK    6  A    between atoms: C_17  and  N_18
REMARK    7  A    between atoms: C_21  and  O_22
REMARK    8  A    between atoms: O_22  and  C_23
REMARK    9  A    between atoms: C_23  and  C_24
REMARK                            x       y       z     vdW  Elec       q    Type
REMARK                         _______ _______ _______ _____ _____    ______ ____
ROOT
ATOM      1  C   UNL     1       3.813   4.302  18.357  0.00  0.00    +0.000 C 
ATOM      2  O   UNL     1       3.393   3.372  19.043  0.00  0.00    +0.000 OA
ENDROOT
BRANCH   1   9
ATOM      3  C   UNL     1       2.220   5.133  20.876  0.00  0.00    +0.000 C 
ATOM      4  C   UNL     1       2.442   6.021  19.681  0.00  0.00    +0.000 A 
ATOM      5  C   UNL     1       1.871   7.310  19.713  0.00  0.00    +0.000 A 
ATOM      6  C   UNL     1       2.101   8.251  18.699  0.00  0.00    +0.000 A 
ATOM      7  C   UNL     1       2.969   7.903  17.657  0.00  0.00    +0.000 A 
ATOM      8  C   UNL     1       3.514   6.624  17.592  0.00  0.00    +0.000 A 
ATOM      9  C   UNL     1       3.226   5.660  18.570  0.00  0.00    +0.000 A 
BRANCH   6  10
ATOM     10  C   UNL     1       1.463   9.622  18.758  0.00  0.00    +0.000 C 
BRANCH  10  11
ATOM     11  N   UNL     1       0.661   9.957  19.936  0.00  0.00    +0.000 NA
ATOM     12  C   UNL     1      -0.792  10.029  19.749  0.00  0.00    +0.000 C 
ATOM     13  C   UNL     1      -1.326  11.433  19.428  0.00  0.00    +0.000 C 
ATOM     14  O   UNL     1      -0.900  12.385  20.410  0.00  0.00    +0.000 OA
ATOM     15  C   UNL     1       0.530  12.439  20.472  0.00  0.00    +0.000 C 
ATOM     16  C   UNL     1       1.146  11.061  20.772  0.00  0.00    +0.000 C 
ENDBRANCH  10  11
ENDBRANCH   6  10
ENDBRANCH   1   9
BRANCH   1  17
ATOM     17  C   UNL     1       4.946   4.168  17.330  0.00  0.00    +0.000 C 
BRANCH  17  18
ATOM     18  N   UNL     1       6.030   5.119  17.565  0.00  0.00    +0.000 N 
ATOM     19  C   UNL     1       6.625   5.176  18.811  0.00  0.00    +0.000 A 
ATOM     20  C   UNL     1       7.530   6.118  19.094  0.00  0.00    +0.000 A 
ATOM     21  C   UNL     1       7.854   7.134  18.123  0.00  0.00    +0.000 A 
ATOM     22  C   UNL     1       7.387   7.026  16.865  0.00  0.00    +0.000 A 
ATOM     23  C   UNL     1       6.446   5.926  16.508  0.00  0.00    +0.000 A 
ATOM     24  O   UNL     1       6.067   5.798  15.348  0.00  0.00    +0.000 OA
BRANCH  21  25
ATOM     25  O   UNL     1       8.606   8.140  18.669  0.00  0.00    +0.000 OA
BRANCH  25  26
ATOM     26  C   UNL     1       8.357   9.482  18.266  0.00  0.00    +0.000 C 
BRANCH  26  27
ATOM     27  C   UNL     1       9.413  10.444  18.781  0.00  0.00    +0.000 A 
ATOM     28  C   UNL     1      10.326  11.099  17.944  0.00  0.00    +0.000 A 
ATOM     29  C   UNL     1      11.189  12.073  18.456  0.00  0.00    +0.000 A 
ATOM     30  C   UNL     1      11.156  12.396  19.812  0.00  0.00    +0.000 A 
ATOM     31  C   UNL     1      10.290  11.718  20.664  0.00  0.00    +0.000 A 
ATOM     32  C   UNL     1       9.430  10.743  20.154  0.00  0.00    +0.000 A 
ENDBRANCH  26  27
ENDBRANCH  25  26
ENDBRANCH  21  25
ENDBRANCH  17  18
ENDBRANCH   1  17
TORSDOF 8
ENDMDL
MODEL 6
REMARK VINA RESULT:      -8.1      0.632      1.581
REMARK  Name = 
REMARK  9 active torsions:
REMARK  status: ('A' for Active; 'I' for Inactive)
REMARK    1  A    between atoms: C_1  and  C_2
REMARK    2  A    between atoms: C_4  and  C_5
REMARK    3  A    between atoms: C_5  and  N_6
REMARK    4  A    between atoms: C_14  and  C_15
REMARK    5  A    between atoms: C_15  and  C_17
REMARK    6  A    between atoms: C_17  and  N_18
REMARK    7  A    between atoms: C_21  and  O_22
REMARK    8  A    between atoms: O_22  and  C_23
REMARK    9  A    between atoms: C_23  and  C_24
REMARK                            x       y       z     vdW  Elec       q    Type
REMARK                         _______ _______ _______ _____ _____    ______ ____
ROOT
ATOM      1  C   UNL     1       3.143   3.966  18.118  0.00  0.00    +0.000 C 
ATOM      2  O   UNL     1       2.374   3.422  17.327  0.00  0.00    +0.000 OA
ENDROOT
BRANCH   1   9
ATOM      3  C   UNL     1       3.428   6.866  17.081  0.00  0.00    +0.000 C 
ATOM      4  C   UNL     1       2.853   6.498  18.423  0.00  0.00    +0.000 A 
ATOM      5  C   UNL     1       2.431   7.550  19.261  0.00  0.00    +0.000 A 
ATOM      6  C   UNL     1       1.788   7.313  20.485  0.00  0.00    +0.000 A 
ATOM      7  C   UNL     1       1.517   5.988  20.846  0.00  0.00    +0.000 A 
ATOM      8  C   UNL     1       1.957   4.937  20.046  0.00  0.00    +0.000 A 
ATOM      9  C   UNL     1       2.662   5.174  18.857  0.00  0.00    +0.000 A 
BRANCH   6  10
ATOM     10  C   UNL     1       1.359   8.466  21.367  0.00  0.00    +0.000 C 
BRANCH  10  11
ATOM     11  N   UNL     1      -0.046   8.875  21.328  0.00  0.00    +0.000 NA
ATOM     12  C   UNL     1      -0.397   9.944  20.387  0.00  0.00    +0.000 C 
ATOM     13  C   UNL     1      -0.374  11.357  20.988  0.00  0.00    +0.000 C 
ATOM     14  O   UNL     1      -1.191  11.434  22.162  0.00  0.00    +0.000 OA
ATOM     15  C   UNL     1      -0.739  10.504  23.153  0.00  0.00    +0.000 C 
ATOM     16  C   UNL     1      -0.716   9.060  22.619  0.00  0.00    +0.000 C 
ENDBRANCH  10  11
ENDBRANCH   6  10
ENDBRANCH   1   9
BRANCH   1  17
ATOM     17  C   UNL     1       4.551   3.447  18.440  0.00  0.00    +0.000 C 
BRANCH  17  18
ATOM     18  N   UNL     1       5.591   4.430  18.146  0.00  0.00    +0.000 N 
ATOM     19  C   UNL     1       6.147   5.159  19.179  0.00  0.00    +0.000 A 
ATOM     20  C   UNL     1       7.008   6.152  18.931  0.00  0.00    +0.000 A 
ATOM     21  C   UNL     1       7.321   6.523  17.573  0.00  0.00    +0.000 A 
ATOM     22  C   UNL     1       6.894   5.751  16.556  0.00  0.00    +0.000 A 
ATOM     23  C   UNL     1       6.007   4.584  16.825  0.00  0.00    +0.000 A 
ATOM     24  O   UNL     1       5.667   3.849  15.902  0.00  0.00    +0.000 OA
BRANCH  21  25
ATOM     25  O   UNL     1       8.017   7.701  17.514  0.00  0.00    +0.000 OA
BRANCH  25  26
ATOM     26  C   UNL     1       8.565   8.238  18.713  0.00  0.00    +0.000 C 
BRANCH  26  27
ATOM     27  C   UNL     1       8.819   9.732  18.613  0.00  0.00    +0.000 A 
ATOM     28  C   UNL     1       8.294  10.531  17.588  0.00  0.00    +0.000 A 
ATOM     29  C   UNL     1       8.451  11.920  17.618  0.00  0.00    +0.000 A 
ATOM     30  C   UNL     1       9.142  12.525  18.667  0.00  0.00    +0.000 A 
ATOM     31  C   UNL     1       9.712  11.739  19.665  0.00  0.00    +0.000 A 
ATOM     32  C   UNL     1       9.558  10.352  19.634  0.00  0.00    +0.000 A 
ENDBRANCH  26  27
ENDBRANCH  25  26
ENDBRANCH  21  25
ENDBRANCH  17  18
ENDBRANCH   1  17
TORSDOF 8
ENDMDL
MODEL 7
REMARK VINA RESULT:      -8.0      3.423      5.495
REMARK  Name = 
REMARK  9 active torsions:
REMARK  status: ('A' for Active; 'I' for Inactive)
REMARK    1  A    between atoms: C_1  and  C_2
REMARK    2  A    between atoms: C_4  and  C_5
REMARK    3  A    between atoms: C_5  and  N_6
REMARK    4  A    between atoms: C_14  and  C_15
REMARK    5  A    between atoms: C_15  and  C_17
REMARK    6  A    between atoms: C_17  and  N_18
REMARK    7  A    between atoms: C_21  and  O_22
REMARK    8  A    between atoms: O_22  and  C_23
REMARK    9  A    between atoms: C_23  and  C_24
REMARK                            x       y       z     vdW  Elec       q    Type
REMARK                         _______ _______ _______ _____ _____    ______ ____
ROOT
ATOM      1  C   UNL     1       2.899   3.963  18.436  0.00  0.00    +0.000 C 
ATOM      2  O   UNL     1       2.011   3.264  17.951  0.00  0.00    +0.000 OA
ENDROOT
BRANCH   1   9
ATOM      3  C   UNL     1       2.069   4.531  21.361  0.00  0.00    +0.000 C 
ATOM      4  C   UNL     1       2.084   5.566  20.268  0.00  0.00    +0.000 A 
ATOM      5  C   UNL     1       1.679   6.874  20.603  0.00  0.00    +0.000 A 
ATOM      6  C   UNL     1       1.752   7.933  19.687  0.00  0.00    +0.000 A 
ATOM      7  C   UNL     1       2.297   7.679  18.423  0.00  0.00    +0.000 A 
ATOM      8  C   UNL     1       2.670   6.387  18.063  0.00  0.00    +0.000 A 
ATOM      9  C   UNL     1       2.529   5.315  18.958  0.00  0.00    +0.000 A 
BRANCH   6  10
ATOM     10  C   UNL     1       1.297   9.324  20.076  0.00  0.00    +0.000 C 
BRANCH  10  11
ATOM     11  N   UNL     1       0.978  10.267  19.003  0.00  0.00    +0.000 NA
ATOM     12  C   UNL     1       1.162  11.692  19.300  0.00  0.00    +0.000 C 
ATOM     13  C   UNL     1      -0.097  12.405  19.816  0.00  0.00    +0.000 C 
ATOM     14  O   UNL     1      -1.200  12.218  18.922  0.00  0.00    +0.000 OA
ATOM     15  C   UNL     1      -1.491  10.824  18.765  0.00  0.00    +0.000 C 
ATOM     16  C   UNL     1      -0.268  10.033  18.267  0.00  0.00    +0.000 C 
ENDBRANCH  10  11
ENDBRANCH   6  10
ENDBRANCH   1   9
BRANCH   1  17
ATOM     17  C   UNL     1       4.358   3.512  18.592  0.00  0.00    +0.000 C 
BRANCH  17  18
ATOM     18  N   UNL     1       5.217   4.017  17.524  0.00  0.00    +0.000 N 
ATOM     19  C   UNL     1       4.749   4.028  16.224  0.00  0.00    +0.000 A 
ATOM     20  C   UNL     1       5.553   4.365  15.210  0.00  0.00    +0.000 A 
ATOM     21  C   UNL     1       6.944   4.659  15.449  0.00  0.00    +0.000 A 
ATOM     22  C   UNL     1       7.392   4.779  16.713  0.00  0.00    +0.000 A 
ATOM     23  C   UNL     1       6.482   4.496  17.859  0.00  0.00    +0.000 A 
ATOM     24  O   UNL     1       6.878   4.662  19.009  0.00  0.00    +0.000 OA
BRANCH  21  25
ATOM     25  O   UNL     1       7.656   4.740  14.282  0.00  0.00    +0.000 OA
BRANCH  25  26
ATOM     26  C   UNL     1       6.958   4.980  13.064  0.00  0.00    +0.000 C 
BRANCH  26  27
ATOM     27  C   UNL     1       6.576   3.693  12.355  0.00  0.00    +0.000 A 
ATOM     28  C   UNL     1       5.250   3.337  12.076  0.00  0.00    +0.000 A 
ATOM     29  C   UNL     1       4.964   2.206  11.305  0.00  0.00    +0.000 A 
ATOM     30  C   UNL     1       5.999   1.413  10.813  0.00  0.00    +0.000 A 
ATOM     31  C   UNL     1       7.319   1.726  11.125  0.00  0.00    +0.000 A 
ATOM     32  C   UNL     1       7.605   2.853  11.897  0.00  0.00    +0.000 A 
ENDBRANCH  26  27
ENDBRANCH  25  26
ENDBRANCH  21  25
ENDBRANCH  17  18
ENDBRANCH   1  17
TORSDOF 8
ENDMDL
MODEL 8
REMARK VINA RESULT:      -7.8      1.005      1.967
REMARK  Name = 
REMARK  9 active torsions:
REMARK  status: ('A' for Active; 'I' for Inactive)
REMARK    1  A    between atoms: C_1  and  C_2
REMARK    2  A    between atoms: C_4  and  C_5
REMARK    3  A    between atoms: C_5  and  N_6
REMARK    4  A    between atoms: C_14  and  C_15
REMARK    5  A    between atoms: C_15  and  C_17
REMARK    6  A    between atoms: C_17  and  N_18
REMARK    7  A    between atoms: C_21  and  O_22
REMARK    8  A    between atoms: O_22  and  C_23
REMARK    9  A    between atoms: C_23  and  C_24
REMARK                            x       y       z     vdW  Elec       q    Type
REMARK                         _______ _______ _______ _____ _____    ______ ____
ROOT
ATOM      1  C   UNL     1       3.664   4.134  17.736  0.00  0.00    +0.000 C 
ATOM      2  O   UNL     1       3.163   3.809  16.661  0.00  0.00    +0.000 OA
ENDROOT
BRANCH   1   9
ATOM      3  C   UNL     1       3.782   7.219  17.536  0.00  0.00    +0.000 C 
ATOM      4  C   UNL     1       3.003   6.465  18.581  0.00  0.00    +0.000 A 
ATOM      5  C   UNL     1       2.294   7.222  19.536  0.00  0.00    +0.000 A 
ATOM      6  C   UNL     1       1.457   6.623  20.489  0.00  0.00    +0.000 A 
ATOM      7  C   UNL     1       1.289   5.234  20.441  0.00  0.00    +0.000 A 
ATOM      8  C   UNL     1       2.007   4.468  19.527  0.00  0.00    +0.000 A 
ATOM      9  C   UNL     1       2.899   5.063  18.622  0.00  0.00    +0.000 A 
BRANCH   6  10
ATOM     10  C   UNL     1       0.720   7.464  21.508  0.00  0.00    +0.000 C 
BRANCH  10  11
ATOM     11  N   UNL     1       1.099   8.871  21.641  0.00  0.00    +0.000 NA
ATOM     12  C   UNL     1       0.794   9.520  22.921  0.00  0.00    +0.000 C 
ATOM     13  C   UNL     1      -0.557  10.250  22.961  0.00  0.00    +0.000 C 
ATOM     14  O   UNL     1      -0.670  11.188  21.884  0.00  0.00    +0.000 OA
ATOM     15  C   UNL     1      -0.542  10.524  20.622  0.00  0.00    +0.000 C 
ATOM     16  C   UNL     1       0.784   9.750  20.510  0.00  0.00    +0.000 C 
ENDBRANCH  10  11
ENDBRANCH   6  10
ENDBRANCH   1   9
BRANCH   1  17
ATOM     17  C   UNL     1       5.006   3.598  18.253  0.00  0.00    +0.000 C 
BRANCH  17  18
ATOM     18  N   UNL     1       6.065   4.604  18.209  0.00  0.00    +0.000 N 
ATOM     19  C   UNL     1       6.577   5.104  19.391  0.00  0.00    +0.000 A 
ATOM     20  C   UNL     1       7.455   6.112  19.385  0.00  0.00    +0.000 A 
ATOM     21  C   UNL     1       7.834   6.742  18.144  0.00  0.00    +0.000 A 
ATOM     22  C   UNL     1       7.450   6.194  16.975  0.00  0.00    +0.000 A 
ATOM     23  C   UNL     1       6.544   5.011  16.966  0.00  0.00    +0.000 A 
ATOM     24  O   UNL     1       6.243   4.480  15.900  0.00  0.00    +0.000 OA
BRANCH  21  25
ATOM     25  O   UNL     1       8.540   7.896  18.353  0.00  0.00    +0.000 OA
BRANCH  25  26
ATOM     26  C   UNL     1       7.952   9.139  17.985  0.00  0.00    +0.000 C 
BRANCH  26  27
ATOM     27  C   UNL     1       8.761  10.327  18.474  0.00  0.00    +0.000 A 
ATOM     28  C   UNL     1       8.906  11.511  17.737  0.00  0.00    +0.000 A 
ATOM     29  C   UNL     1       9.552  12.619  18.292  0.00  0.00    +0.000 A 
ATOM     30  C   UNL     1      10.069  12.556  19.585  0.00  0.00    +0.000 A 
ATOM     31  C   UNL     1       9.978  11.370  20.309  0.00  0.00    +0.000 A 
ATOM     32  C   UNL     1       9.336  10.262  19.754  0.00  0.00    +0.000 A 
ENDBRANCH  26  27
ENDBRANCH  25  26
ENDBRANCH  21  25
ENDBRANCH  17  18
ENDBRANCH   1  17
TORSDOF 8
ENDMDL
MODEL 9
REMARK VINA RESULT:      -7.7      1.722      2.375
REMARK  Name = 
REMARK  9 active torsions:
REMARK  status: ('A' for Active; 'I' for Inactive)
REMARK    1  A    between atoms: C_1  and  C_2
REMARK    2  A    between atoms: C_4  and  C_5
REMARK    3  A    between atoms: C_5  and  N_6
REMARK    4  A    between atoms: C_14  and  C_15
REMARK    5  A    between atoms: C_15  and  C_17
REMARK    6  A    between atoms: C_17  and  N_18
REMARK    7  A    between atoms: C_21  and  O_22
REMARK    8  A    between atoms: O_22  and  C_23
REMARK    9  A    between atoms: C_23  and  C_24
REMARK                            x       y       z     vdW  Elec       q    Type
REMARK                         _______ _______ _______ _____ _____    ______ ____
ROOT
ATOM      1  C   UNL     1       3.999   4.422  17.408  0.00  0.00    +0.000 C 
ATOM      2  O   UNL     1       3.411   3.344  17.459  0.00  0.00    +0.000 OA
ENDROOT
BRANCH   1   9
ATOM      3  C   UNL     1       3.108   4.462  20.371  0.00  0.00    +0.000 C 
ATOM      4  C   UNL     1       2.904   5.601  19.408  0.00  0.00    +0.000 A 
ATOM      5  C   UNL     1       2.251   6.753  19.893  0.00  0.00    +0.000 A 
ATOM      6  C   UNL     1       2.101   7.907  19.110  0.00  0.00    +0.000 A 
ATOM      7  C   UNL     1       2.670   7.919  17.831  0.00  0.00    +0.000 A 
ATOM      8  C   UNL     1       3.288   6.779  17.325  0.00  0.00    +0.000 A 
ATOM      9  C   UNL     1       3.374   5.601  18.083  0.00  0.00    +0.000 A 
BRANCH   6  10
ATOM     10  C   UNL     1       1.383   9.123  19.656  0.00  0.00    +0.000 C 
BRANCH  10  11
ATOM     11  N   UNL     1       0.982  10.166  18.712  0.00  0.00    +0.000 NA
ATOM     12  C   UNL     1       1.630  11.474  18.856  0.00  0.00    +0.000 C 
ATOM     13  C   UNL     1       0.864  12.474  19.734  0.00  0.00    +0.000 C 
ATOM     14  O   UNL     1      -0.486  12.631  19.282  0.00  0.00    +0.000 OA
ATOM     15  C   UNL     1      -1.175  11.376  19.304  0.00  0.00    +0.000 C 
ATOM     16  C   UNL     1      -0.456  10.310  18.458  0.00  0.00    +0.000 C 
ENDBRANCH  10  11
ENDBRANCH   6  10
ENDBRANCH   1   9
BRANCH   1  17
ATOM     17  C   UNL     1       5.367   4.624  16.742  0.00  0.00    +0.000 C 
BRANCH  17  18
ATOM     18  N   UNL     1       6.166   5.653  17.403  0.00  0.00    +0.000 N 
ATOM     19  C   UNL     1       6.309   6.890  16.803  0.00  0.00    +0.000 A 
ATOM     20  C   UNL     1       7.132   7.809  17.318  0.00  0.00    +0.000 A 
ATOM     21  C   UNL     1       7.939   7.500  18.473  0.00  0.00    +0.000 A 
ATOM     22  C   UNL     1       7.726   6.355  19.148  0.00  0.00    +0.000 A 
ATOM     23  C   UNL     1       6.741   5.359  18.637  0.00  0.00    +0.000 A 
ATOM     24  O   UNL     1       6.509   4.342  19.285  0.00  0.00    +0.000 OA
BRANCH  21  25
ATOM     25  O   UNL     1       8.886   8.462  18.705  0.00  0.00    +0.000 OA
BRANCH  25  26
ATOM     26  C   UNL     1       8.714   9.752  18.129  0.00  0.00    +0.000 C 
BRANCH  26  27
ATOM     27  C   UNL     1       9.566  10.807  18.811  0.00  0.00    +0.000 A 
ATOM     28  C   UNL     1       9.586  10.994  20.200  0.00  0.00    +0.000 A 
ATOM     29  C   UNL     1      10.487  11.891  20.783  0.00  0.00    +0.000 A 
ATOM     30  C   UNL     1      11.370  12.616  19.986  0.00  0.00    +0.000 A 
ATOM     31  C   UNL     1      11.326  12.478  18.601  0.00  0.00    +0.000 A 
ATOM     32  C   UNL     1      10.425  11.586  18.018  0.00  0.00    +0.000 A 
ENDBRANCH  26  27
ENDBRANCH  25  26
ENDBRANCH  21  25
ENDBRANCH  17  18
ENDBRANCH   1  17
TORSDOF 8
ENDMDL
