MODEL 1
REMARK VINA RESULT:      -7.1      0.000      0.000
REMARK  Name = 
REMARK  10 active torsions:
REMARK  status: ('A' for Active; 'I' for Inactive)
REMARK    1  A    between atoms: C_1  and  C_2
REMARK    2  A    between atoms: C_2  and  C_3
REMARK    3  A    between atoms: C_3  and  C_4
REMARK    4  A    between atoms: C_3  and  C_5
REMARK    5  A    between atoms: C_3  and  N_6
REMARK    6  A    between atoms: N_6  and  C_7
REMARK    7  A    between atoms: C_8  and  C_9
REMARK    8  A    between atoms: C_16  and  N_17
REMARK    9  A    between atoms: N_17  and  C_18
REMARK   10  A    between atoms: C_18  and  C_19
REMARK                            x       y       z     vdW  Elec       q    Type
REMARK                         _______ _______ _______ _____ _____    ______ ____
ROOT
ATOM      1  C   UNL     1       3.144   4.920  18.522  0.00  0.00    +0.000 A 
ATOM      2  C   UNL     1       3.158   3.790  19.374  0.00  0.00    +0.000 A 
ATOM      3  C   UNL     1       2.594   3.907  20.638  0.00  0.00    +0.000 A 
ATOM      4  N   UNL     1       2.016   5.014  21.131  0.00  0.00    +0.000 NA
ATOM      5  C   UNL     1       1.988   6.094  20.342  0.00  0.00    +0.000 A 
ATOM      6  C   UNL     1       1.426   7.259  20.821  0.00  0.00    +0.000 A 
ATOM      7  N   UNL     1       1.341   8.432  20.154  0.00  0.00    +0.000 NA
ATOM      8  C   UNL     1       1.892   8.486  18.935  0.00  0.00    +0.000 A 
ATOM      9  C   UNL     1       2.435   7.349  18.336  0.00  0.00    +0.000 A 
ATOM     10  C   UNL     1       2.518   6.116  19.036  0.00  0.00    +0.000 A 
ENDROOT
BRANCH   1  11
ATOM     11  N   UNL     1       3.623   4.983  17.198  0.00  0.00    +0.000 N 
ATOM     12  H   UNL     1       3.093   4.349  16.595  0.00  0.00    +0.000 HD
BRANCH  11  13
ATOM     13  C   UNL     1       5.014   5.162  16.721  0.00  0.00    +0.000 C 
ATOM     14  C   UNL     1       5.108   6.439  15.864  0.00  0.00    +0.000 C 
ATOM     15  C   UNL     1       5.552   3.900  16.027  0.00  0.00    +0.000 C 
BRANCH  13  17
ATOM     16  C   UNL     1       7.155   6.321  17.701  0.00  0.00    +0.000 C 
ATOM     17  C   UNL     1       5.939   5.439  17.954  0.00  0.00    +0.000 C 
ENDBRANCH  13  17
ENDBRANCH  11  13
ENDBRANCH   1  11
BRANCH   2  18
ATOM     18  C   UNL     1       3.704   2.499  19.106  0.00  0.00    +0.000 C 
ATOM     19  N   UNL     1       4.084   1.444  18.804  0.00  0.00    +0.000 NA
ENDBRANCH   2  18
BRANCH   8  20
ATOM     20  N   UNL     1       1.863   9.733  18.345  0.00  0.00    +0.000 N 
ATOM     21  H   UNL     1       2.773   9.962  17.958  0.00  0.00    +0.000 HD
BRANCH  20  22
ATOM     22  C   UNL     1       1.179  10.826  19.002  0.00  0.00    +0.000 C 
BRANCH  22  23
ATOM     23  C   UNL     1      -0.260  10.918  18.572  0.00  0.00    +0.000 A 
ATOM     24  C   UNL     1      -0.855  10.016  17.683  0.00  0.00    +0.000 A 
ATOM     25  C   UNL     1      -2.217  10.112  17.405  0.00  0.00    +0.000 A 
ATOM     26  C   UNL     1      -2.947  11.102  18.041  0.00  0.00    +0.000 A 
ATOM     27  N   UNL     1      -2.415  11.983  18.913  0.00  0.00    +0.000 NA
ATOM     28  C   UNL     1      -1.091  11.866  19.162  0.00  0.00    +0.000 A 
ENDBRANCH  22  23
ENDBRANCH  20  22
ENDBRANCH   8  20
TORSDOF 7
ENDMDL
MODEL 2
REMARK VINA RESULT:      -7.0      0.494      1.262
REMARK  Name = 
REMARK  10 active torsions:
REMARK  status: ('A' for Active; 'I' for Inactive)
REMARK    1  A    between atoms: C_1  and  C_2
REMARK    2  A    between atoms: C_2  and  C_3
REMARK    3  A    between atoms: C_3  and  C_4
REMARK    4  A    between atoms: C_3  and  C_5
REMARK    5  A    between atoms: C_3  and  N_6
REMARK    6  A    between atoms: N_6  and  C_7
REMARK    7  A    between atoms: C_8  and  C_9
REMARK    8  A    between atoms: C_16  and  N_17
REMARK    9  A    between atoms: N_17  and  C_18
REMARK   10  A    between atoms: C_18  and  C_19
REMARK                            x       y       z     vdW  Elec       q    Type
REMARK                         _______ _______ _______ _____ _____    ______ ____
ROOT
ATOM      1  C   UNL     1       3.204   4.635  18.450  0.00  0.00    +0.000 A 
ATOM      2  C   UNL     1       3.195   3.469  19.252  0.00  0.00    +0.000 A 
ATOM      3  C   UNL     1       2.621   3.539  20.516  0.00  0.00    +0.000 A 
ATOM      4  N   UNL     1       2.053   4.632  21.050  0.00  0.00    +0.000 NA
ATOM      5  C   UNL     1       2.047   5.745  20.308  0.00  0.00    +0.000 A 
ATOM      6  C   UNL     1       1.496   6.896  20.832  0.00  0.00    +0.000 A 
ATOM      7  N   UNL     1       1.434   8.098  20.215  0.00  0.00    +0.000 NA
ATOM      8  C   UNL     1       1.997   8.197  19.005  0.00  0.00    +0.000 A 
ATOM      9  C   UNL     1       2.530   7.079  18.362  0.00  0.00    +0.000 A 
ATOM     10  C   UNL     1       2.590   5.816  19.009  0.00  0.00    +0.000 A 
ENDROOT
BRANCH   1  11
ATOM     11  N   UNL     1       3.697   4.747  17.134  0.00  0.00    +0.000 N 
ATOM     12  H   UNL     1       3.215   4.092  16.515  0.00  0.00    +0.000 HD
BRANCH  11  13
ATOM     13  C   UNL     1       5.080   5.019  16.680  0.00  0.00    +0.000 C 
ATOM     14  C   UNL     1       6.038   4.983  17.887  0.00  0.00    +0.000 C 
ATOM     15  C   UNL     1       5.171   6.307  15.846  0.00  0.00    +0.000 C 
BRANCH  13  17
ATOM     16  C   UNL     1       5.815   4.188  14.301  0.00  0.00    +0.000 C 
ATOM     17  C   UNL     1       5.551   3.841  15.761  0.00  0.00    +0.000 C 
ENDBRANCH  13  17
ENDBRANCH  11  13
ENDBRANCH   1  11
BRANCH   2  18
ATOM     18  C   UNL     1       3.726   2.183  18.934  0.00  0.00    +0.000 C 
ATOM     19  N   UNL     1       4.062   1.098  18.692  0.00  0.00    +0.000 NA
ENDBRANCH   2  18
BRANCH   8  20
ATOM     20  N   UNL     1       1.990   9.469  18.469  0.00  0.00    +0.000 N 
ATOM     21  H   UNL     1       2.917   9.716  18.136  0.00  0.00    +0.000 HD
BRANCH  20  22
ATOM     22  C   UNL     1       1.271  10.530  19.140  0.00  0.00    +0.000 C 
BRANCH  22  23
ATOM     23  C   UNL     1      -0.077  10.767  18.515  0.00  0.00    +0.000 A 
ATOM     24  C   UNL     1      -0.723   9.829  17.702  0.00  0.00    +0.000 A 
ATOM     25  C   UNL     1      -2.010  10.083  17.235  0.00  0.00    +0.000 A 
ATOM     26  C   UNL     1      -2.620  11.268  17.611  0.00  0.00    +0.000 A 
ATOM     27  N   UNL     1      -2.038  12.194  18.402  0.00  0.00    +0.000 NA
ATOM     28  C   UNL     1      -0.789  11.919  18.838  0.00  0.00    +0.000 A 
ENDBRANCH  22  23
ENDBRANCH  20  22
ENDBRANCH   8  20
TORSDOF 7
ENDMDL
MODEL 3
REMARK VINA RESULT:      -6.9      1.633      2.615
REMARK  Name = 
REMARK  10 active torsions:
REMARK  status: ('A' for Active; 'I' for Inactive)
REMARK    1  A    between atoms: C_1  and  C_2
REMARK    2  A    between atoms: C_2  and  C_3
REMARK    3  A    between atoms: C_3  and  C_4
REMARK    4  A    between atoms: C_3  and  C_5
REMARK    5  A    between atoms: C_3  and  N_6
REMARK    6  A    between atoms: N_6  and  C_7
REMARK    7  A    between atoms: C_8  and  C_9
REMARK    8  A    between atoms: C_16  and  N_17
REMARK    9  A    between atoms: N_17  and  C_18
REMARK   10  A    between atoms: C_18  and  C_19
REMARK                            x       y       z     vdW  Elec       q    Type
REMARK                         _______ _______ _______ _____ _____    ______ ____
ROOT
ATOM      1  C   UNL     1       3.206   4.739  18.428  0.00  0.00    +0.000 A 
ATOM      2  C   UNL     1       3.159   3.614  19.286  0.00  0.00    +0.000 A 
ATOM      3  C   UNL     1       2.573   3.760  20.537  0.00  0.00    +0.000 A 
ATOM      4  N   UNL     1       2.027   4.891  21.011  0.00  0.00    +0.000 NA
ATOM      5  C   UNL     1       2.056   5.966  20.216  0.00  0.00    +0.000 A 
ATOM      6  C   UNL     1       1.528   7.154  20.677  0.00  0.00    +0.000 A 
ATOM      7  N   UNL     1       1.501   8.325  20.001  0.00  0.00    +0.000 NA
ATOM      8  C   UNL     1       2.079   8.352  18.794  0.00  0.00    +0.000 A 
ATOM      9  C   UNL     1       2.592   7.191  18.213  0.00  0.00    +0.000 A 
ATOM     10  C   UNL     1       2.615   5.960  18.922  0.00  0.00    +0.000 A 
ENDROOT
BRANCH   1  11
ATOM     11  N   UNL     1       3.715   4.775  17.114  0.00  0.00    +0.000 N 
ATOM     12  H   UNL     1       3.233   4.093  16.525  0.00  0.00    +0.000 HD
BRANCH  11  13
ATOM     13  C   UNL     1       5.107   5.005  16.664  0.00  0.00    +0.000 C 
ATOM     14  C   UNL     1       6.053   5.007  17.881  0.00  0.00    +0.000 C 
ATOM     15  C   UNL     1       5.226   6.254  15.776  0.00  0.00    +0.000 C 
BRANCH  13  17
ATOM     16  C   UNL     1       5.927   4.075  14.350  0.00  0.00    +0.000 C 
ATOM     17  C   UNL     1       5.569   3.781  15.802  0.00  0.00    +0.000 C 
ENDBRANCH  13  17
ENDBRANCH  11  13
ENDBRANCH   1  11
BRANCH   2  18
ATOM     18  C   UNL     1       3.663   2.302  19.037  0.00  0.00    +0.000 C 
ATOM     19  N   UNL     1       4.037   1.245  18.735  0.00  0.00    +0.000 NA
ENDBRANCH   2  18
BRANCH   8  20
ATOM     20  N   UNL     1       2.110   9.595  18.197  0.00  0.00    +0.000 N 
ATOM     21  H   UNL     1       3.055   9.966  18.201  0.00  0.00    +0.000 HD
BRANCH  20  22
ATOM     22  C   UNL     1       1.067  10.558  18.482  0.00  0.00    +0.000 C 
BRANCH  22  23
ATOM     23  C   UNL     1       1.621  11.796  19.134  0.00  0.00    +0.000 A 
ATOM     24  C   UNL     1       2.386  12.747  18.450  0.00  0.00    +0.000 A 
ATOM     25  C   UNL     1       2.785  13.914  19.098  0.00  0.00    +0.000 A 
ATOM     26  C   UNL     1       2.389  14.101  20.412  0.00  0.00    +0.000 A 
ATOM     27  N   UNL     1       1.641  13.216  21.104  0.00  0.00    +0.000 NA
ATOM     28  C   UNL     1       1.271  12.093  20.448  0.00  0.00    +0.000 A 
ENDBRANCH  22  23
ENDBRANCH  20  22
ENDBRANCH   8  20
TORSDOF 7
ENDMDL
MODEL 4
REMARK VINA RESULT:      -6.9      2.297      4.059
REMARK  Name = 
REMARK  10 active torsions:
REMARK  status: ('A' for Active; 'I' for Inactive)
REMARK    1  A    between atoms: C_1  and  C_2
REMARK    2  A    between atoms: C_2  and  C_3
REMARK    3  A    between atoms: C_3  and  C_4
REMARK    4  A    between atoms: C_3  and  C_5
REMARK    5  A    between atoms: C_3  and  N_6
REMARK    6  A    between atoms: N_6  and  C_7
REMARK    7  A    between atoms: C_8  and  C_9
REMARK    8  A    between atoms: C_16  and  N_17
REMARK    9  A    between atoms: N_17  and  C_18
REMARK   10  A    between atoms: C_18  and  C_19
REMARK                            x       y       z     vdW  Elec       q    Type
REMARK                         _______ _______ _______ _____ _____    ______ ____
ROOT
ATOM      1  C   UNL     1       3.905   5.239  18.097  0.00  0.00    +0.000 A 
ATOM      2  C   UNL     1       4.634   5.267  16.884  0.00  0.00    +0.000 A 
ATOM      3  C   UNL     1       4.644   6.443  16.145  0.00  0.00    +0.000 A 
ATOM      4  N   UNL     1       4.023   7.582  16.491  0.00  0.00    +0.000 NA
ATOM      5  C   UNL     1       3.331   7.581  17.635  0.00  0.00    +0.000 A 
ATOM      6  C   UNL     1       2.656   8.724  18.012  0.00  0.00    +0.000 A 
ATOM      7  N   UNL     1       1.903   8.869  19.125  0.00  0.00    +0.000 NA
ATOM      8  C   UNL     1       1.757   7.797  19.913  0.00  0.00    +0.000 A 
ATOM      9  C   UNL     1       2.442   6.610  19.652  0.00  0.00    +0.000 A 
ATOM     10  C   UNL     1       3.238   6.460  18.485  0.00  0.00    +0.000 A 
ENDROOT
BRANCH   1  11
ATOM     11  N   UNL     1       3.814   4.160  19.000  0.00  0.00    +0.000 N 
ATOM     12  H   UNL     1       4.742   3.896  19.337  0.00  0.00    +0.000 HD
BRANCH  11  13
ATOM     13  C   UNL     1       2.888   3.005  18.976  0.00  0.00    +0.000 C 
ATOM     14  C   UNL     1       3.630   1.756  18.462  0.00  0.00    +0.000 C 
ATOM     15  C   UNL     1       1.591   3.322  18.213  0.00  0.00    +0.000 C 
BRANCH  13  17
ATOM     16  C   UNL     1       1.226   3.328  20.983  0.00  0.00    +0.000 C 
ATOM     17  C   UNL     1       2.482   2.651  20.447  0.00  0.00    +0.000 C 
ENDBRANCH  13  17
ENDBRANCH  11  13
ENDBRANCH   1  11
BRANCH   2  18
ATOM     18  C   UNL     1       5.378   4.206  16.286  0.00  0.00    +0.000 C 
ATOM     19  N   UNL     1       6.011   3.412  15.723  0.00  0.00    +0.000 NA
ENDBRANCH   2  18
BRANCH   8  20
ATOM     20  N   UNL     1       0.898   7.977  20.977  0.00  0.00    +0.000 N 
ATOM     21  H   UNL     1      -0.061   8.048  20.650  0.00  0.00    +0.000 HD
BRANCH  20  22
ATOM     22  C   UNL     1       1.253   8.888  22.045  0.00  0.00    +0.000 C 
BRANCH  22  23
ATOM     23  C   UNL     1       0.277  10.027  22.150  0.00  0.00    +0.000 A 
ATOM     24  C   UNL     1      -0.747  10.077  23.103  0.00  0.00    +0.000 A 
ATOM     25  C   UNL     1      -1.554  11.209  23.197  0.00  0.00    +0.000 A 
ATOM     26  C   UNL     1      -1.299  12.267  22.341  0.00  0.00    +0.000 A 
ATOM     27  N   UNL     1      -0.316  12.265  21.417  0.00  0.00    +0.000 NA
ATOM     28  C   UNL     1       0.449  11.152  21.349  0.00  0.00    +0.000 A 
ENDBRANCH  22  23
ENDBRANCH  20  22
ENDBRANCH   8  20
TORSDOF 7
ENDMDL
MODEL 5
REMARK VINA RESULT:      -6.9      2.278      4.170
REMARK  Name = 
REMARK  10 active torsions:
REMARK  status: ('A' for Active; 'I' for Inactive)
REMARK    1  A    between atoms: C_1  and  C_2
REMARK    2  A    between atoms: C_2  and  C_3
REMARK    3  A    between atoms: C_3  and  C_4
REMARK    4  A    between atoms: C_3  and  C_5
REMARK    5  A    between atoms: C_3  and  N_6
REMARK    6  A    between atoms: N_6  and  C_7
REMARK    7  A    between atoms: C_8  and  C_9
REMARK    8  A    between atoms: C_16  and  N_17
REMARK    9  A    between atoms: N_17  and  C_18
REMARK   10  A    between atoms: C_18  and  C_19
REMARK                            x       y       z     vdW  Elec       q    Type
REMARK                         _______ _______ _______ _____ _____    ______ ____
ROOT
ATOM      1  C   UNL     1       3.064   6.186  19.284  0.00  0.00    +0.000 A 
ATOM      2  C   UNL     1       3.792   6.171  18.071  0.00  0.00    +0.000 A 
ATOM      3  C   UNL     1       3.661   7.252  17.207  0.00  0.00    +0.000 A 
ATOM      4  N   UNL     1       2.898   8.335  17.429  0.00  0.00    +0.000 NA
ATOM      5  C   UNL     1       2.204   8.371  18.572  0.00  0.00    +0.000 A 
ATOM      6  C   UNL     1       1.388   9.455  18.825  0.00  0.00    +0.000 A 
ATOM      7  N   UNL     1       0.614   9.626  19.920  0.00  0.00    +0.000 NA
ATOM      8  C   UNL     1       0.597   8.637  20.822  0.00  0.00    +0.000 A 
ATOM      9  C   UNL     1       1.429   7.523  20.688  0.00  0.00    +0.000 A 
ATOM     10  C   UNL     1       2.245   7.348  19.540  0.00  0.00    +0.000 A 
ENDROOT
BRANCH   1  11
ATOM     11  N   UNL     1       3.102   5.209  20.301  0.00  0.00    +0.000 N 
ATOM     12  H   UNL     1       4.014   5.209  20.763  0.00  0.00    +0.000 HD
BRANCH  11  13
ATOM     13  C   UNL     1       2.473   3.869  20.325  0.00  0.00    +0.000 C 
ATOM     14  C   UNL     1       1.343   3.808  19.278  0.00  0.00    +0.000 C 
ATOM     15  C   UNL     1       2.037   3.462  21.741  0.00  0.00    +0.000 C 
BRANCH  13  17
ATOM     16  C   UNL     1       3.090   1.906  18.694  0.00  0.00    +0.000 C 
ATOM     17  C   UNL     1       3.521   2.810  19.843  0.00  0.00    +0.000 C 
ENDBRANCH  13  17
ENDBRANCH  11  13
ENDBRANCH   1  11
BRANCH   2  18
ATOM     18  C   UNL     1       4.668   5.154  17.588  0.00  0.00    +0.000 C 
ATOM     19  N   UNL     1       5.450   4.403  17.172  0.00  0.00    +0.000 NA
ENDBRANCH   2  18
BRANCH   8  20
ATOM     20  N   UNL     1      -0.285   8.823  21.866  0.00  0.00    +0.000 N 
ATOM     21  H   UNL     1      -1.241   8.828  21.524  0.00  0.00    +0.000 HD
BRANCH  20  22
ATOM     22  C   UNL     1       0.008   9.801  22.892  0.00  0.00    +0.000 C 
BRANCH  22  23
ATOM     23  C   UNL     1      -0.796  11.059  22.704  0.00  0.00    +0.000 A 
ATOM     24  C   UNL     1      -2.034  11.278  23.319  0.00  0.00    +0.000 A 
ATOM     25  C   UNL     1      -2.676  12.506  23.171  0.00  0.00    +0.000 A 
ATOM     26  C   UNL     1      -2.047  13.486  22.421  0.00  0.00    +0.000 A 
ATOM     27  N   UNL     1      -0.849  13.321  21.823  0.00  0.00    +0.000 NA
ATOM     28  C   UNL     1      -0.252  12.118  21.984  0.00  0.00    +0.000 A 
ENDBRANCH  22  23
ENDBRANCH  20  22
ENDBRANCH   8  20
TORSDOF 7
ENDMDL
MODEL 6
REMARK VINA RESULT:      -6.8      1.632      2.328
REMARK  Name = 
REMARK  10 active torsions:
REMARK  status: ('A' for Active; 'I' for Inactive)
REMARK    1  A    between atoms: C_1  and  C_2
REMARK    2  A    between atoms: C_2  and  C_3
REMARK    3  A    between atoms: C_3  and  C_4
REMARK    4  A    between atoms: C_3  and  C_5
REMARK    5  A    between atoms: C_3  and  N_6
REMARK    6  A    between atoms: N_6  and  C_7
REMARK    7  A    between atoms: C_8  and  C_9
REMARK    8  A    between atoms: C_16  and  N_17
REMARK    9  A    between atoms: N_17  and  C_18
REMARK   10  A    between atoms: C_18  and  C_19
REMARK                            x       y       z     vdW  Elec       q    Type
REMARK                         _______ _______ _______ _____ _____    ______ ____
ROOT
ATOM      1  C   UNL     1       3.248   4.684  18.328  0.00  0.00    +0.000 A 
ATOM      2  C   UNL     1       3.200   3.544  19.166  0.00  0.00    +0.000 A 
ATOM      3  C   UNL     1       2.622   3.670  20.423  0.00  0.00    +0.000 A 
ATOM      4  N   UNL     1       2.085   4.795  20.920  0.00  0.00    +0.000 NA
ATOM      5  C   UNL     1       2.115   5.884  20.145  0.00  0.00    +0.000 A 
ATOM      6  C   UNL     1       1.597   7.067  20.631  0.00  0.00    +0.000 A 
ATOM      7  N   UNL     1       1.573   8.250  19.977  0.00  0.00    +0.000 NA
ATOM      8  C   UNL     1       2.144   8.295  18.767  0.00  0.00    +0.000 A 
ATOM      9  C   UNL     1       2.647   7.143  18.162  0.00  0.00    +0.000 A 
ATOM     10  C   UNL     1       2.667   5.899  18.848  0.00  0.00    +0.000 A 
ENDROOT
BRANCH   1  11
ATOM     11  N   UNL     1       3.750   4.741  17.012  0.00  0.00    +0.000 N 
ATOM     12  H   UNL     1       3.264   4.069  16.414  0.00  0.00    +0.000 HD
BRANCH  11  13
ATOM     13  C   UNL     1       5.139   4.978  16.558  0.00  0.00    +0.000 C 
ATOM     14  C   UNL     1       5.203   6.286  15.743  0.00  0.00    +0.000 C 
ATOM     15  C   UNL     1       5.724   3.757  15.830  0.00  0.00    +0.000 C 
BRANCH  13  17
ATOM     16  C   UNL     1       7.052   6.379  17.687  0.00  0.00    +0.000 C 
ATOM     17  C   UNL     1       6.042   5.244  17.810  0.00  0.00    +0.000 C 
ENDBRANCH  13  17
ENDBRANCH  11  13
ENDBRANCH   1  11
BRANCH   2  18
ATOM     18  C   UNL     1       3.695   2.234  18.889  0.00  0.00    +0.000 C 
ATOM     19  N   UNL     1       4.005   1.130  18.703  0.00  0.00    +0.000 NA
ENDBRANCH   2  18
BRANCH   8  20
ATOM     20  N   UNL     1       2.178   9.549  18.193  0.00  0.00    +0.000 N 
ATOM     21  H   UNL     1       3.125   9.917  18.203  0.00  0.00    +0.000 HD
BRANCH  20  22
ATOM     22  C   UNL     1       1.140  10.511  18.497  0.00  0.00    +0.000 C 
BRANCH  22  23
ATOM     23  C   UNL     1       1.717  11.831  18.930  0.00  0.00    +0.000 A 
ATOM     24  C   UNL     1       2.504  12.635  18.098  0.00  0.00    +0.000 A 
ATOM     25  C   UNL     1       2.925  13.888  18.538  0.00  0.00    +0.000 A 
ATOM     26  C   UNL     1       2.529  14.305  19.798  0.00  0.00    +0.000 A 
ATOM     27  N   UNL     1       1.761  13.568  20.626  0.00  0.00    +0.000 NA
ATOM     28  C   UNL     1       1.369  12.356  20.171  0.00  0.00    +0.000 A 
ENDBRANCH  22  23
ENDBRANCH  20  22
ENDBRANCH   8  20
TORSDOF 7
ENDMDL
MODEL 7
REMARK VINA RESULT:      -6.8      2.294      4.253
REMARK  Name = 
REMARK  10 active torsions:
REMARK  status: ('A' for Active; 'I' for Inactive)
REMARK    1  A    between atoms: C_1  and  C_2
REMARK    2  A    between atoms: C_2  and  C_3
REMARK    3  A    between atoms: C_3  and  C_4
REMARK    4  A    between atoms: C_3  and  C_5
REMARK    5  A    between atoms: C_3  and  N_6
REMARK    6  A    between atoms: N_6  and  C_7
REMARK    7  A    between atoms: C_8  and  C_9
REMARK    8  A    between atoms: C_16  and  N_17
REMARK    9  A    between atoms: N_17  and  C_18
REMARK   10  A    between atoms: C_18  and  C_19
REMARK                            x       y       z     vdW  Elec       q    Type
REMARK                         _______ _______ _______ _____ _____    ______ ____
ROOT
ATOM      1  C   UNL     1       3.052   6.239  19.295  0.00  0.00    +0.000 A 
ATOM      2  C   UNL     1       3.765   6.236  18.072  0.00  0.00    +0.000 A 
ATOM      3  C   UNL     1       3.605   7.312  17.209  0.00  0.00    +0.000 A 
ATOM      4  N   UNL     1       2.827   8.382  17.439  0.00  0.00    +0.000 NA
ATOM      5  C   UNL     1       2.146   8.409  18.590  0.00  0.00    +0.000 A 
ATOM      6  C   UNL     1       1.316   9.479  18.852  0.00  0.00    +0.000 A 
ATOM      7  N   UNL     1       0.552   9.639  19.956  0.00  0.00    +0.000 NA
ATOM      8  C   UNL     1       0.563   8.651  20.859  0.00  0.00    +0.000 A 
ATOM      9  C   UNL     1       1.411   7.551  20.717  0.00  0.00    +0.000 A 
ATOM     10  C   UNL     1       2.217   7.388  19.559  0.00  0.00    +0.000 A 
ENDROOT
BRANCH   1  11
ATOM     11  N   UNL     1       3.119   5.265  20.312  0.00  0.00    +0.000 N 
ATOM     12  H   UNL     1       4.019   5.313  20.794  0.00  0.00    +0.000 HD
BRANCH  11  13
ATOM     13  C   UNL     1       2.560   3.893  20.322  0.00  0.00    +0.000 C 
ATOM     14  C   UNL     1       1.996   3.573  21.720  0.00  0.00    +0.000 C 
ATOM     15  C   UNL     1       3.569   2.857  19.800  0.00  0.00    +0.000 C 
BRANCH  13  17
ATOM     16  C   UNL     1       0.915   2.472  18.851  0.00  0.00    +0.000 C 
ATOM     17  C   UNL     1       1.317   3.847  19.370  0.00  0.00    +0.000 C 
ENDBRANCH  13  17
ENDBRANCH  11  13
ENDBRANCH   1  11
BRANCH   2  18
ATOM     18  C   UNL     1       4.652   5.232  17.580  0.00  0.00    +0.000 C 
ATOM     19  N   UNL     1       5.377   4.469  17.088  0.00  0.00    +0.000 NA
ENDBRANCH   2  18
BRANCH   8  20
ATOM     20  N   UNL     1      -0.310   8.824  21.914  0.00  0.00    +0.000 N 
ATOM     21  H   UNL     1      -1.268   8.845  21.579  0.00  0.00    +0.000 HD
BRANCH  20  22
ATOM     22  C   UNL     1       0.000   9.777  22.957  0.00  0.00    +0.000 C 
BRANCH  22  23
ATOM     23  C   UNL     1      -0.763  11.061  22.779  0.00  0.00    +0.000 A 
ATOM     24  C   UNL     1      -0.305  12.123  21.990  0.00  0.00    +0.000 A 
ATOM     25  C   UNL     1      -1.111  13.244  21.798  0.00  0.00    +0.000 A 
ATOM     26  C   UNL     1      -2.362  13.259  22.392  0.00  0.00    +0.000 A 
ATOM     27  N   UNL     1      -2.846  12.252  23.149  0.00  0.00    +0.000 NA
ATOM     28  C   UNL     1      -2.041  11.180  23.317  0.00  0.00    +0.000 A 
ENDBRANCH  22  23
ENDBRANCH  20  22
ENDBRANCH   8  20
TORSDOF 7
ENDMDL
MODEL 8
REMARK VINA RESULT:      -6.8      1.304      1.710
REMARK  Name = 
REMARK  10 active torsions:
REMARK  status: ('A' for Active; 'I' for Inactive)
REMARK    1  A    between atoms: C_1  and  C_2
REMARK    2  A    between atoms: C_2  and  C_3
REMARK    3  A    between atoms: C_3  and  C_4
REMARK    4  A    between atoms: C_3  and  C_5
REMARK    5  A    between atoms: C_3  and  N_6
REMARK    6  A    between atoms: N_6  and  C_7
REMARK    7  A    between atoms: C_8  and  C_9
REMARK    8  A    between atoms: C_16  and  N_17
REMARK    9  A    between atoms: N_17  and  C_18
REMARK   10  A    between atoms: C_18  and  C_19
REMARK                            x       y       z     vdW  Elec       q    Type
REMARK                         _______ _______ _______ _____ _____    ______ ____
ROOT
ATOM      1  C   UNL     1       3.188   4.591  18.417  0.00  0.00    +0.000 A 
ATOM      2  C   UNL     1       3.181   3.400  19.183  0.00  0.00    +0.000 A 
ATOM      3  C   UNL     1       2.624   3.435  20.455  0.00  0.00    +0.000 A 
ATOM      4  N   UNL     1       2.070   4.515  21.031  0.00  0.00    +0.000 NA
ATOM      5  C   UNL     1       2.062   5.650  20.324  0.00  0.00    +0.000 A 
ATOM      6  C   UNL     1       1.527   6.788  20.891  0.00  0.00    +0.000 A 
ATOM      7  N   UNL     1       1.464   8.009  20.312  0.00  0.00    +0.000 NA
ATOM      8  C   UNL     1       2.012   8.142  19.098  0.00  0.00    +0.000 A 
ATOM      9  C   UNL     1       2.529   7.041  18.414  0.00  0.00    +0.000 A 
ATOM     10  C   UNL     1       2.589   5.758  19.021  0.00  0.00    +0.000 A 
ENDROOT
BRANCH   1  11
ATOM     11  N   UNL     1       3.664   4.741  17.098  0.00  0.00    +0.000 N 
ATOM     12  H   UNL     1       3.148   4.131  16.460  0.00  0.00    +0.000 HD
BRANCH  11  13
ATOM     13  C   UNL     1       5.050   4.979  16.633  0.00  0.00    +0.000 C 
ATOM     14  C   UNL     1       5.135   6.352  15.937  0.00  0.00    +0.000 C 
ATOM     15  C   UNL     1       5.582   3.813  15.786  0.00  0.00    +0.000 C 
BRANCH  13  17
ATOM     16  C   UNL     1       7.420   4.620  17.703  0.00  0.00    +0.000 C 
ATOM     17  C   UNL     1       5.987   5.107  17.882  0.00  0.00    +0.000 C 
ENDBRANCH  13  17
ENDBRANCH  11  13
ENDBRANCH   1  11
BRANCH   2  18
ATOM     18  C   UNL     1       3.700   2.122  18.818  0.00  0.00    +0.000 C 
ATOM     19  N   UNL     1       4.021   1.051  18.504  0.00  0.00    +0.000 NA
ENDBRANCH   2  18
BRANCH   8  20
ATOM     20  N   UNL     1       2.007   9.429  18.602  0.00  0.00    +0.000 N 
ATOM     21  H   UNL     1       2.681  10.002  19.100  0.00  0.00    +0.000 HD
BRANCH  20  22
ATOM     22  C   UNL     1       0.751  10.080  18.296  0.00  0.00    +0.000 C 
BRANCH  22  23
ATOM     23  C   UNL     1       0.317  10.996  19.407  0.00  0.00    +0.000 A 
ATOM     24  C   UNL     1      -1.012  11.114  19.831  0.00  0.00    +0.000 A 
ATOM     25  C   UNL     1      -1.322  11.914  20.929  0.00  0.00    +0.000 A 
ATOM     26  C   UNL     1      -0.286  12.562  21.580  0.00  0.00    +0.000 A 
ATOM     27  N   UNL     1       1.009  12.466  21.213  0.00  0.00    +0.000 NA
ATOM     28  C   UNL     1       1.278  11.683  20.143  0.00  0.00    +0.000 A 
ENDBRANCH  22  23
ENDBRANCH  20  22
ENDBRANCH   8  20
TORSDOF 7
ENDMDL
MODEL 9
REMARK VINA RESULT:      -6.8      0.772      1.210
REMARK  Name = 
REMARK  10 active torsions:
REMARK  status: ('A' for Active; 'I' for Inactive)
REMARK    1  A    between atoms: C_1  and  C_2
REMARK    2  A    between atoms: C_2  and  C_3
REMARK    3  A    between atoms: C_3  and  C_4
REMARK    4  A    between atoms: C_3  and  C_5
REMARK    5  A    between atoms: C_3  and  N_6
REMARK    6  A    between atoms: N_6  and  C_7
REMARK    7  A    between atoms: C_8  and  C_9
REMARK    8  A    between atoms: C_16  and  N_17
REMARK    9  A    between atoms: N_17  and  C_18
REMARK   10  A    between atoms: C_18  and  C_19
REMARK                            x       y       z     vdW  Elec       q    Type
REMARK                         _______ _______ _______ _____ _____    ______ ____
ROOT
ATOM      1  C   UNL     1       3.167   4.539  18.467  0.00  0.00    +0.000 A 
ATOM      2  C   UNL     1       3.157   3.330  19.203  0.00  0.00    +0.000 A 
ATOM      3  C   UNL     1       2.592   3.331  20.472  0.00  0.00    +0.000 A 
ATOM      4  N   UNL     1       2.034   4.395  21.072  0.00  0.00    +0.000 NA
ATOM      5  C   UNL     1       2.029   5.548  20.394  0.00  0.00    +0.000 A 
ATOM      6  C   UNL     1       1.488   6.671  20.987  0.00  0.00    +0.000 A 
ATOM      7  N   UNL     1       1.427   7.906  20.439  0.00  0.00    +0.000 NA
ATOM      8  C   UNL     1       1.982   8.070  19.232  0.00  0.00    +0.000 A 
ATOM      9  C   UNL     1       2.505   6.988  18.523  0.00  0.00    +0.000 A 
ATOM     10  C   UNL     1       2.563   5.690  19.098  0.00  0.00    +0.000 A 
ENDROOT
BRANCH   1  11
ATOM     11  N   UNL     1       3.650   4.724  17.156  0.00  0.00    +0.000 N 
ATOM     12  H   UNL     1       3.137   4.132  16.499  0.00  0.00    +0.000 HD
BRANCH  11  13
ATOM     13  C   UNL     1       5.039   4.972  16.705  0.00  0.00    +0.000 C 
ATOM     14  C   UNL     1       5.120   6.342  16.004  0.00  0.00    +0.000 C 
ATOM     15  C   UNL     1       5.590   3.806  15.869  0.00  0.00    +0.000 C 
BRANCH  13  17
ATOM     16  C   UNL     1       7.411   4.674  17.790  0.00  0.00    +0.000 C 
ATOM     17  C   UNL     1       5.962   5.112  17.964  0.00  0.00    +0.000 C 
ENDBRANCH  13  17
ENDBRANCH  11  13
ENDBRANCH   1  11
BRANCH   2  18
ATOM     18  C   UNL     1       3.680   2.062  18.808  0.00  0.00    +0.000 C 
ATOM     19  N   UNL     1       4.005   1.002  18.463  0.00  0.00    +0.000 NA
ENDBRANCH   2  18
BRANCH   8  20
ATOM     20  N   UNL     1       1.978   9.370  18.769  0.00  0.00    +0.000 N 
ATOM     21  H   UNL     1       2.205  10.013  19.521  0.00  0.00    +0.000 HD
BRANCH  20  22
ATOM     22  C   UNL     1       0.932   9.813  17.872  0.00  0.00    +0.000 C 
BRANCH  22  23
ATOM     23  C   UNL     1      -0.138  10.576  18.605  0.00  0.00    +0.000 A 
ATOM     24  C   UNL     1       0.117  11.371  19.728  0.00  0.00    +0.000 A 
ATOM     25  C   UNL     1      -0.910  12.122  20.296  0.00  0.00    +0.000 A 
ATOM     26  C   UNL     1      -2.163  12.065  19.709  0.00  0.00    +0.000 A 
ATOM     27  N   UNL     1      -2.449  11.322  18.619  0.00  0.00    +0.000 NA
ATOM     28  C   UNL     1      -1.432  10.604  18.092  0.00  0.00    +0.000 A 
ENDBRANCH  22  23
ENDBRANCH  20  22
ENDBRANCH   8  20
TORSDOF 7
ENDMDL
