MODEL 1
REMARK VINA RESULT:      -6.5      0.000      0.000
REMARK  Name = 
REMARK  22 active torsions:
REMARK  status: ('A' for Active; 'I' for Inactive)
REMARK    1  A    between atoms: C_1  and  C_2
REMARK    2  A    between atoms: C_2  and  C_3
REMARK    3  A    between atoms: C_3  and  C_4
REMARK    4  A    between atoms: C_4  and  C_5
REMARK    5  A    between atoms: C_5  and  C_6
REMARK    6  A    between atoms: C_6  and  C_7
REMARK    7  A    between atoms: C_7  and  C_8
REMARK    8  A    between atoms: C_8  and  C_9
REMARK    9  A    between atoms: C_9  and  C_10
REMARK   10  A    between atoms: C_10  and  C_11
REMARK   11  A    between atoms: C_11  and  C_12
REMARK   12  A    between atoms: C_12  and  C_13
REMARK   13  A    between atoms: C_13  and  C_14
REMARK   14  A    between atoms: C_14  and  C_15
REMARK   15  A    between atoms: C_15  and  C_16
REMARK   16  A    between atoms: C_16  and  C_17
REMARK   17  A    between atoms: C_17  and  C_18
REMARK   18  A    between atoms: N_20  and  C_21
REMARK   19  A    between atoms: C_21  and  C_22
REMARK   20  A    between atoms: C_25  and  O_26
REMARK   21  A    between atoms: C_27  and  O_28
REMARK   22  A    between atoms: O_28  and  C_29
REMARK                            x       y       z     vdW  Elec       q    Type
REMARK                         _______ _______ _______ _____ _____    ______ ____
ROOT
ATOM      1  C   UNL     1       2.221   7.418  19.767  0.00  0.00    +0.000 C 
ENDROOT
BRANCH   1   2
ATOM      2  C   UNL     1       2.336   7.913  18.333  0.00  0.00    +0.000 C 
BRANCH   2   3
ATOM      3  C   UNL     1       1.842   9.341  18.221  0.00  0.00    +0.000 C 
ATOM      4  O   UNL     1       2.345  10.176  17.479  0.00  0.00    +0.000 OA
ATOM      5  N   UNL     1       0.778   9.607  19.059  0.00  0.00    +0.000 N 
ATOM      6  H   UNL     1       0.315   8.832  19.516  0.00  0.00    +0.000 HD
BRANCH   5   7
ATOM      7  C   UNL     1       0.164  10.917  19.082  0.00  0.00    +0.000 C 
BRANCH   7   8
ATOM      8  C   UNL     1      -1.231  10.943  18.502  0.00  0.00    +0.000 A 
ATOM      9  C   UNL     1      -2.191  11.763  19.082  0.00  0.00    +0.000 A 
ATOM     10  C   UNL     1      -3.489  11.815  18.573  0.00  0.00    +0.000 A 
ATOM     11  C   UNL     1      -3.833  11.045  17.455  0.00  0.00    +0.000 A 
ATOM     12  C   UNL     1      -2.896  10.226  16.845  0.00  0.00    +0.000 A 
ATOM     13  C   UNL     1      -1.596  10.168  17.384  0.00  0.00    +0.000 A 
BRANCH  12  14
ATOM     14  O   UNL     1      -3.049   9.421  15.746  0.00  0.00    +0.000 OA
ATOM     15  C   UNL     1      -3.008  10.003  14.455  0.00  0.00    +0.000 C 
ENDBRANCH  12  14
BRANCH  11  16
ATOM     16  O   UNL     1      -5.123  11.140  17.006  0.00  0.00    +0.000 OA
ATOM     17  H   UNL     1      -5.099  11.576  16.140  0.00  0.00    +0.000 HD
ENDBRANCH  11  16
ENDBRANCH   7   8
ENDBRANCH   5   7
ENDBRANCH   2   3
ENDBRANCH   1   2
BRANCH   1  18
ATOM     18  C   UNL     1       2.430   5.914  19.871  0.00  0.00    +0.000 C 
BRANCH  18  19
ATOM     19  C   UNL     1       1.509   5.342  20.941  0.00  0.00    +0.000 C 
BRANCH  19  20
ATOM     20  C   UNL     1       1.172   3.890  20.646  0.00  0.00    +0.000 C 
BRANCH  20  21
ATOM     21  C   UNL     1       2.096   2.966  21.425  0.00  0.00    +0.000 C 
BRANCH  21  22
ATOM     22  C   UNL     1       3.209   2.458  20.523  0.00  0.00    +0.000 C 
BRANCH  22  23
ATOM     23  C   UNL     1       2.633   1.609  19.404  0.00  0.00    +0.000 C 
BRANCH  23  24
ATOM     24  C   UNL     1       3.355   1.907  18.100  0.00  0.00    +0.000 C 
BRANCH  24  25
ATOM     25  C   UNL     1       2.510   2.825  17.234  0.00  0.00    +0.000 C 
BRANCH  25  26
ATOM     26  C   UNL     1       3.099   4.226  17.228  0.00  0.00    +0.000 C 
BRANCH  26  27
ATOM     27  C   UNL     1       4.617   4.153  17.248  0.00  0.00    +0.000 C 
BRANCH  27  28
ATOM     28  C   UNL     1       5.174   4.453  15.866  0.00  0.00    +0.000 C 
BRANCH  28  29
ATOM     29  C   UNL     1       5.731   5.869  15.817  0.00  0.00    +0.000 C 
BRANCH  29  30
ATOM     30  C   UNL     1       7.162   5.893  16.334  0.00  0.00    +0.000 C 
BRANCH  30  32
ATOM     31  C   UNL     1       7.710   6.143  18.763  0.00  0.00    +0.000 C 
ATOM     32  C   UNL     1       7.302   6.870  17.495  0.00  0.00    +0.000 C 
ENDBRANCH  30  32
ENDBRANCH  29  30
ENDBRANCH  28  29
ENDBRANCH  27  28
ENDBRANCH  26  27
ENDBRANCH  25  26
ENDBRANCH  24  25
ENDBRANCH  23  24
ENDBRANCH  22  23
ENDBRANCH  21  22
ENDBRANCH  20  21
ENDBRANCH  19  20
ENDBRANCH  18  19
ENDBRANCH   1  18
TORSDOF 20
ENDMDL
MODEL 2
REMARK VINA RESULT:      -6.2      4.418      8.630
REMARK  Name = 
REMARK  22 active torsions:
REMARK  status: ('A' for Active; 'I' for Inactive)
REMARK    1  A    between atoms: C_1  and  C_2
REMARK    2  A    between atoms: C_2  and  C_3
REMARK    3  A    between atoms: C_3  and  C_4
REMARK    4  A    between atoms: C_4  and  C_5
REMARK    5  A    between atoms: C_5  and  C_6
REMARK    6  A    between atoms: C_6  and  C_7
REMARK    7  A    between atoms: C_7  and  C_8
REMARK    8  A    between atoms: C_8  and  C_9
REMARK    9  A    between atoms: C_9  and  C_10
REMARK   10  A    between atoms: C_10  and  C_11
REMARK   11  A    between atoms: C_11  and  C_12
REMARK   12  A    between atoms: C_12  and  C_13
REMARK   13  A    between atoms: C_13  and  C_14
REMARK   14  A    between atoms: C_14  and  C_15
REMARK   15  A    between atoms: C_15  and  C_16
REMARK   16  A    between atoms: C_16  and  C_17
REMARK   17  A    between atoms: C_17  and  C_18
REMARK   18  A    between atoms: N_20  and  C_21
REMARK   19  A    between atoms: C_21  and  C_22
REMARK   20  A    between atoms: C_25  and  O_26
REMARK   21  A    between atoms: C_27  and  O_28
REMARK   22  A    between atoms: O_28  and  C_29
REMARK                            x       y       z     vdW  Elec       q    Type
REMARK                         _______ _______ _______ _____ _____    ______ ____
ROOT
ATOM      1  C   UNL     1       6.725   5.606  19.521  0.00  0.00    +0.000 C 
ENDROOT
BRANCH   1   2
ATOM      2  C   UNL     1       7.828   5.618  18.472  0.00  0.00    +0.000 C 
BRANCH   2   3
ATOM      3  C   UNL     1       7.739   6.868  17.621  0.00  0.00    +0.000 C 
ATOM      4  O   UNL     1       7.419   6.861  16.437  0.00  0.00    +0.000 OA
ATOM      5  N   UNL     1       8.075   8.013  18.313  0.00  0.00    +0.000 N 
ATOM      6  H   UNL     1       8.166   7.962  19.320  0.00  0.00    +0.000 HD
BRANCH   5   7
ATOM      7  C   UNL     1       8.037   9.307  17.666  0.00  0.00    +0.000 C 
BRANCH   7   8
ATOM      8  C   UNL     1       8.880  10.354  18.355  0.00  0.00    +0.000 A 
ATOM      9  C   UNL     1       9.272  10.149  19.673  0.00  0.00    +0.000 A 
ATOM     10  C   UNL     1      10.053  11.092  20.341  0.00  0.00    +0.000 A 
ATOM     11  C   UNL     1      10.463  12.257  19.679  0.00  0.00    +0.000 A 
ATOM     12  C   UNL     1      10.100  12.486  18.361  0.00  0.00    +0.000 A 
ATOM     13  C   UNL     1       9.293  11.534  17.707  0.00  0.00    +0.000 A 
BRANCH  12  14
ATOM     14  O   UNL     1      10.417  13.550  17.558  0.00  0.00    +0.000 OA
ATOM     15  C   UNL     1      11.634  13.528  16.833  0.00  0.00    +0.000 C 
ENDBRANCH  12  14
BRANCH  11  16
ATOM     16  O   UNL     1      11.226  13.143  20.391  0.00  0.00    +0.000 OA
ATOM     17  H   UNL     1      10.863  13.184  21.290  0.00  0.00    +0.000 HD
ENDBRANCH  11  16
ENDBRANCH   7   8
ENDBRANCH   5   7
ENDBRANCH   2   3
ENDBRANCH   1   2
BRANCH   1  18
ATOM     18  C   UNL     1       5.510   4.812  19.062  0.00  0.00    +0.000 C 
BRANCH  18  19
ATOM     19  C   UNL     1       4.767   5.591  17.984  0.00  0.00    +0.000 C 
BRANCH  19  20
ATOM     20  C   UNL     1       4.351   4.677  16.845  0.00  0.00    +0.000 C 
BRANCH  20  21
ATOM     21  C   UNL     1       3.237   3.746  17.297  0.00  0.00    +0.000 C 
BRANCH  21  22
ATOM     22  C   UNL     1       3.778   2.339  17.491  0.00  0.00    +0.000 C 
BRANCH  22  23
ATOM     23  C   UNL     1       3.080   1.663  18.658  0.00  0.00    +0.000 C 
BRANCH  23  24
ATOM     24  C   UNL     1       2.180   2.658  19.374  0.00  0.00    +0.000 C 
BRANCH  24  25
ATOM     25  C   UNL     1       2.691   2.904  20.782  0.00  0.00    +0.000 C 
BRANCH  25  26
ATOM     26  C   UNL     1       2.092   4.185  21.339  0.00  0.00    +0.000 C 
BRANCH  26  27
ATOM     27  C   UNL     1       1.933   5.212  20.230  0.00  0.00    +0.000 C 
BRANCH  27  28
ATOM     28  C   UNL     1       1.511   6.551  20.812  0.00  0.00    +0.000 C 
BRANCH  28  29
ATOM     29  C   UNL     1       2.060   7.692  19.966  0.00  0.00    +0.000 C 
BRANCH  29  30
ATOM     30  C   UNL     1       2.138   7.276  18.504  0.00  0.00    +0.000 C 
BRANCH  30  32
ATOM     31  C   UNL     1       1.921   9.761  18.306  0.00  0.00    +0.000 C 
ATOM     32  C   UNL     1       1.753   8.434  17.591  0.00  0.00    +0.000 C 
ENDBRANCH  30  32
ENDBRANCH  29  30
ENDBRANCH  28  29
ENDBRANCH  27  28
ENDBRANCH  26  27
ENDBRANCH  25  26
ENDBRANCH  24  25
ENDBRANCH  23  24
ENDBRANCH  22  23
ENDBRANCH  21  22
ENDBRANCH  20  21
ENDBRANCH  19  20
ENDBRANCH  18  19
ENDBRANCH   1  18
TORSDOF 20
ENDMDL
MODEL 3
REMARK VINA RESULT:      -6.1      2.399      3.367
REMARK  Name = 
REMARK  22 active torsions:
REMARK  status: ('A' for Active; 'I' for Inactive)
REMARK    1  A    between atoms: C_1  and  C_2
REMARK    2  A    between atoms: C_2  and  C_3
REMARK    3  A    between atoms: C_3  and  C_4
REMARK    4  A    between atoms: C_4  and  C_5
REMARK    5  A    between atoms: C_5  and  C_6
REMARK    6  A    between atoms: C_6  and  C_7
REMARK    7  A    between atoms: C_7  and  C_8
REMARK    8  A    between atoms: C_8  and  C_9
REMARK    9  A    between atoms: C_9  and  C_10
REMARK   10  A    between atoms: C_10  and  C_11
REMARK   11  A    between atoms: C_11  and  C_12
REMARK   12  A    between atoms: C_12  and  C_13
REMARK   13  A    between atoms: C_13  and  C_14
REMARK   14  A    between atoms: C_14  and  C_15
REMARK   15  A    between atoms: C_15  and  C_16
REMARK   16  A    between atoms: C_16  and  C_17
REMARK   17  A    between atoms: C_17  and  C_18
REMARK   18  A    between atoms: N_20  and  C_21
REMARK   19  A    between atoms: C_21  and  C_22
REMARK   20  A    between atoms: C_25  and  O_26
REMARK   21  A    between atoms: C_27  and  O_28
REMARK   22  A    between atoms: O_28  and  C_29
REMARK                            x       y       z     vdW  Elec       q    Type
REMARK                         _______ _______ _______ _____ _____    ______ ____
ROOT
ATOM      1  C   UNL     1       2.517   8.164  18.196  0.00  0.00    +0.000 C 
ENDROOT
BRANCH   1   2
ATOM      2  C   UNL     1       1.227   8.884  17.831  0.00  0.00    +0.000 C 
BRANCH   2   3
ATOM      3  C   UNL     1       1.236  10.300  18.369  0.00  0.00    +0.000 C 
ATOM      4  O   UNL     1       2.221  11.029  18.344  0.00  0.00    +0.000 OA
ATOM      5  N   UNL     1       0.023  10.676  18.910  0.00  0.00    +0.000 N 
ATOM      6  H   UNL     1      -0.784  10.087  18.747  0.00  0.00    +0.000 HD
BRANCH   5   7
ATOM      7  C   UNL     1      -0.161  12.000  19.463  0.00  0.00    +0.000 C 
BRANCH   7   8
ATOM      8  C   UNL     1      -1.093  12.035  20.652  0.00  0.00    +0.000 A 
ATOM      9  C   UNL     1      -0.695  11.439  21.843  0.00  0.00    +0.000 A 
ATOM     10  C   UNL     1      -1.528  11.454  22.962  0.00  0.00    +0.000 A 
ATOM     11  C   UNL     1      -2.775  12.088  22.899  0.00  0.00    +0.000 A 
ATOM     12  C   UNL     1      -3.197  12.702  21.730  0.00  0.00    +0.000 A 
ATOM     13  C   UNL     1      -2.354  12.660  20.602  0.00  0.00    +0.000 A 
BRANCH  12  14
ATOM     14  O   UNL     1      -4.366  13.375  21.490  0.00  0.00    +0.000 OA
ATOM     15  C   UNL     1      -4.314  14.750  21.153  0.00  0.00    +0.000 C 
ENDBRANCH  12  14
BRANCH  11  16
ATOM     16  O   UNL     1      -3.544  12.065  24.030  0.00  0.00    +0.000 OA
ATOM     17  H   UNL     1      -4.293  12.666  23.887  0.00  0.00    +0.000 HD
ENDBRANCH  11  16
ENDBRANCH   7   8
ENDBRANCH   5   7
ENDBRANCH   2   3
ENDBRANCH   1   2
BRANCH   1  18
ATOM     18  C   UNL     1       2.310   6.665  18.355  0.00  0.00    +0.000 C 
BRANCH  18  19
ATOM     19  C   UNL     1       2.792   6.225  19.732  0.00  0.00    +0.000 C 
BRANCH  19  20
ATOM     20  C   UNL     1       1.688   5.504  20.488  0.00  0.00    +0.000 C 
BRANCH  20  21
ATOM     21  C   UNL     1       2.278   4.413  21.367  0.00  0.00    +0.000 C 
BRANCH  21  22
ATOM     22  C   UNL     1       1.965   3.045  20.782  0.00  0.00    +0.000 C 
BRANCH  22  23
ATOM     23  C   UNL     1       0.823   3.146  19.787  0.00  0.00    +0.000 C 
BRANCH  23  24
ATOM     24  C   UNL     1       1.249   2.578  18.444  0.00  0.00    +0.000 C 
BRANCH  24  25
ATOM     25  C   UNL     1       2.713   2.175  18.490  0.00  0.00    +0.000 C 
BRANCH  25  26
ATOM     26  C   UNL     1       3.501   2.946  17.444  0.00  0.00    +0.000 C 
BRANCH  26  27
ATOM     27  C   UNL     1       4.672   3.662  18.097  0.00  0.00    +0.000 C 
BRANCH  27  28
ATOM     28  C   UNL     1       5.530   4.335  17.038  0.00  0.00    +0.000 C 
BRANCH  28  29
ATOM     29  C   UNL     1       4.840   5.586  16.513  0.00  0.00    +0.000 C 
BRANCH  29  30
ATOM     30  C   UNL     1       5.717   6.809  16.739  0.00  0.00    +0.000 C 
BRANCH  30  32
ATOM     31  C   UNL     1       7.822   7.502  17.902  0.00  0.00    +0.000 C 
ATOM     32  C   UNL     1       7.133   6.396  17.124  0.00  0.00    +0.000 C 
ENDBRANCH  30  32
ENDBRANCH  29  30
ENDBRANCH  28  29
ENDBRANCH  27  28
ENDBRANCH  26  27
ENDBRANCH  25  26
ENDBRANCH  24  25
ENDBRANCH  23  24
ENDBRANCH  22  23
ENDBRANCH  21  22
ENDBRANCH  20  21
ENDBRANCH  19  20
ENDBRANCH  18  19
ENDBRANCH   1  18
TORSDOF 20
ENDMDL
MODEL 4
REMARK VINA RESULT:      -6.0      2.503      3.738
REMARK  Name = 
REMARK  22 active torsions:
REMARK  status: ('A' for Active; 'I' for Inactive)
REMARK    1  A    between atoms: C_1  and  C_2
REMARK    2  A    between atoms: C_2  and  C_3
REMARK    3  A    between atoms: C_3  and  C_4
REMARK    4  A    between atoms: C_4  and  C_5
REMARK    5  A    between atoms: C_5  and  C_6
REMARK    6  A    between atoms: C_6  and  C_7
REMARK    7  A    between atoms: C_7  and  C_8
REMARK    8  A    between atoms: C_8  and  C_9
REMARK    9  A    between atoms: C_9  and  C_10
REMARK   10  A    between atoms: C_10  and  C_11
REMARK   11  A    between atoms: C_11  and  C_12
REMARK   12  A    between atoms: C_12  and  C_13
REMARK   13  A    between atoms: C_13  and  C_14
REMARK   14  A    between atoms: C_14  and  C_15
REMARK   15  A    between atoms: C_15  and  C_16
REMARK   16  A    between atoms: C_16  and  C_17
REMARK   17  A    between atoms: C_17  and  C_18
REMARK   18  A    between atoms: N_20  and  C_21
REMARK   19  A    between atoms: C_21  and  C_22
REMARK   20  A    between atoms: C_25  and  O_26
REMARK   21  A    between atoms: C_27  and  O_28
REMARK   22  A    between atoms: O_28  and  C_29
REMARK                            x       y       z     vdW  Elec       q    Type
REMARK                         _______ _______ _______ _____ _____    ______ ____
ROOT
ATOM      1  C   UNL     1       2.077   8.700  18.882  0.00  0.00    +0.000 C 
ENDROOT
BRANCH   1   2
ATOM      2  C   UNL     1       1.134   8.815  17.693  0.00  0.00    +0.000 C 
BRANCH   2   3
ATOM      3  C   UNL     1       0.159   9.957  17.895  0.00  0.00    +0.000 C 
ATOM      4  O   UNL     1      -1.015   9.917  17.544  0.00  0.00    +0.000 OA
ATOM      5  N   UNL     1       0.737  11.055  18.499  0.00  0.00    +0.000 N 
ATOM      6  H   UNL     1       1.658  10.955  18.908  0.00  0.00    +0.000 HD
BRANCH   5   7
ATOM      7  C   UNL     1      -0.044  12.239  18.784  0.00  0.00    +0.000 C 
BRANCH   7   8
ATOM      8  C   UNL     1      -0.782  12.175  20.101  0.00  0.00    +0.000 A 
ATOM      9  C   UNL     1      -2.003  12.827  20.226  0.00  0.00    +0.000 A 
ATOM     10  C   UNL     1      -2.714  12.788  21.426  0.00  0.00    +0.000 A 
ATOM     11  C   UNL     1      -2.206  12.075  22.518  0.00  0.00    +0.000 A 
ATOM     12  C   UNL     1      -0.997  11.404  22.423  0.00  0.00    +0.000 A 
ATOM     13  C   UNL     1      -0.280  11.471  21.212  0.00  0.00    +0.000 A 
BRANCH  12  14
ATOM     14  O   UNL     1      -0.358  10.652  23.374  0.00  0.00    +0.000 OA
ATOM     15  C   UNL     1       0.136   9.371  23.023  0.00  0.00    +0.000 C 
ENDBRANCH  12  14
BRANCH  11  16
ATOM     16  O   UNL     1      -2.951  12.078  23.666  0.00  0.00    +0.000 OA
ATOM     17  H   UNL     1      -3.840  11.762  23.438  0.00  0.00    +0.000 HD
ENDBRANCH  11  16
ENDBRANCH   7   8
ENDBRANCH   5   7
ENDBRANCH   2   3
ENDBRANCH   1   2
BRANCH   1  18
ATOM     18  C   UNL     1       2.439   7.253  19.186  0.00  0.00    +0.000 C 
BRANCH  18  19
ATOM     19  C   UNL     1       1.588   6.744  20.341  0.00  0.00    +0.000 C 
BRANCH  19  20
ATOM     20  C   UNL     1       2.055   5.370  20.793  0.00  0.00    +0.000 C 
BRANCH  20  21
ATOM     21  C   UNL     1       1.145   4.292  20.227  0.00  0.00    +0.000 C 
BRANCH  21  22
ATOM     22  C   UNL     1       1.156   3.070  21.132  0.00  0.00    +0.000 C 
BRANCH  22  23
ATOM     23  C   UNL     1       2.579   2.588  21.347  0.00  0.00    +0.000 C 
BRANCH  23  24
ATOM     24  C   UNL     1       3.223   2.250  20.012  0.00  0.00    +0.000 C 
BRANCH  24  25
ATOM     25  C   UNL     1       4.663   2.729  19.992  0.00  0.00    +0.000 C 
BRANCH  25  26
ATOM     26  C   UNL     1       4.924   3.548  18.738  0.00  0.00    +0.000 C 
BRANCH  26  27
ATOM     27  C   UNL     1       3.804   3.332  17.732  0.00  0.00    +0.000 C 
BRANCH  27  28
ATOM     28  C   UNL     1       3.602   4.587  16.898  0.00  0.00    +0.000 C 
BRANCH  28  29
ATOM     29  C   UNL     1       4.809   5.505  17.023  0.00  0.00    +0.000 C 
BRANCH  29  30
ATOM     30  C   UNL     1       5.441   5.738  15.658  0.00  0.00    +0.000 C 
BRANCH  30  32
ATOM     31  C   UNL     1       6.102   3.938  14.050  0.00  0.00    +0.000 C 
ATOM     32  C   UNL     1       6.460   4.651  15.340  0.00  0.00    +0.000 C 
ENDBRANCH  30  32
ENDBRANCH  29  30
ENDBRANCH  28  29
ENDBRANCH  27  28
ENDBRANCH  26  27
ENDBRANCH  25  26
ENDBRANCH  24  25
ENDBRANCH  23  24
ENDBRANCH  22  23
ENDBRANCH  21  22
ENDBRANCH  20  21
ENDBRANCH  19  20
ENDBRANCH  18  19
ENDBRANCH   1  18
TORSDOF 20
ENDMDL
MODEL 5
REMARK VINA RESULT:      -5.9      1.970      2.944
REMARK  Name = 
REMARK  22 active torsions:
REMARK  status: ('A' for Active; 'I' for Inactive)
REMARK    1  A    between atoms: C_1  and  C_2
REMARK    2  A    between atoms: C_2  and  C_3
REMARK    3  A    between atoms: C_3  and  C_4
REMARK    4  A    between atoms: C_4  and  C_5
REMARK    5  A    between atoms: C_5  and  C_6
REMARK    6  A    between atoms: C_6  and  C_7
REMARK    7  A    between atoms: C_7  and  C_8
REMARK    8  A    between atoms: C_8  and  C_9
REMARK    9  A    between atoms: C_9  and  C_10
REMARK   10  A    between atoms: C_10  and  C_11
REMARK   11  A    between atoms: C_11  and  C_12
REMARK   12  A    between atoms: C_12  and  C_13
REMARK   13  A    between atoms: C_13  and  C_14
REMARK   14  A    between atoms: C_14  and  C_15
REMARK   15  A    between atoms: C_15  and  C_16
REMARK   16  A    between atoms: C_16  and  C_17
REMARK   17  A    between atoms: C_17  and  C_18
REMARK   18  A    between atoms: N_20  and  C_21
REMARK   19  A    between atoms: C_21  and  C_22
REMARK   20  A    between atoms: C_25  and  O_26
REMARK   21  A    between atoms: C_27  and  O_28
REMARK   22  A    between atoms: O_28  and  C_29
REMARK                            x       y       z     vdW  Elec       q    Type
REMARK                         _______ _______ _______ _____ _____    ______ ____
ROOT
ATOM      1  C   UNL     1       1.940   6.073  19.341  0.00  0.00    +0.000 C 
ENDROOT
BRANCH   1   2
ATOM      2  C   UNL     1       2.852   7.289  19.273  0.00  0.00    +0.000 C 
BRANCH   2   3
ATOM      3  C   UNL     1       2.263   8.346  18.361  0.00  0.00    +0.000 C 
ATOM      4  O   UNL     1       2.566   8.469  17.180  0.00  0.00    +0.000 OA
ATOM      5  N   UNL     1       1.362   9.169  19.007  0.00  0.00    +0.000 N 
ATOM      6  H   UNL     1       1.040   8.906  19.930  0.00  0.00    +0.000 HD
BRANCH   5   7
ATOM      7  C   UNL     1       0.688  10.231  18.293  0.00  0.00    +0.000 C 
BRANCH   7   8
ATOM      8  C   UNL     1      -0.352  10.951  19.120  0.00  0.00    +0.000 A 
ATOM      9  C   UNL     1      -1.425  11.559  18.479  0.00  0.00    +0.000 A 
ATOM     10  C   UNL     1      -2.406  12.231  19.209  0.00  0.00    +0.000 A 
ATOM     11  C   UNL     1      -2.324  12.286  20.606  0.00  0.00    +0.000 A 
ATOM     12  C   UNL     1      -1.273  11.679  21.277  0.00  0.00    +0.000 A 
ATOM     13  C   UNL     1      -0.279  11.024  20.524  0.00  0.00    +0.000 A 
BRANCH  12  14
ATOM     14  O   UNL     1      -1.040  11.620  22.626  0.00  0.00    +0.000 OA
ATOM     15  C   UNL     1      -0.919  10.353  23.249  0.00  0.00    +0.000 C 
ENDBRANCH  12  14
BRANCH  11  16
ATOM     16  O   UNL     1      -3.317  12.961  21.263  0.00  0.00    +0.000 OA
ATOM     17  H   UNL     1      -4.135  12.846  20.753  0.00  0.00    +0.000 HD
ENDBRANCH  11  16
ENDBRANCH   7   8
ENDBRANCH   5   7
ENDBRANCH   2   3
ENDBRANCH   1   2
BRANCH   1  18
ATOM     18  C   UNL     1       1.699   5.620  20.774  0.00  0.00    +0.000 C 
BRANCH  18  19
ATOM     19  C   UNL     1       2.271   4.221  20.971  0.00  0.00    +0.000 C 
BRANCH  19  20
ATOM     20  C   UNL     1       1.162   3.184  21.014  0.00  0.00    +0.000 C 
BRANCH  20  21
ATOM     21  C   UNL     1       0.933   2.600  19.629  0.00  0.00    +0.000 C 
BRANCH  21  22
ATOM     22  C   UNL     1       2.150   1.802  19.190  0.00  0.00    +0.000 C 
BRANCH  22  23
ATOM     23  C   UNL     1       2.447   2.061  17.724  0.00  0.00    +0.000 C 
BRANCH  23  24
ATOM     24  C   UNL     1       3.943   2.233  17.518  0.00  0.00    +0.000 C 
BRANCH  24  25
ATOM     25  C   UNL     1       4.356   3.654  17.858  0.00  0.00    +0.000 C 
BRANCH  25  26
ATOM     26  C   UNL     1       3.856   4.614  16.791  0.00  0.00    +0.000 C 
BRANCH  26  27
ATOM     27  C   UNL     1       4.807   5.793  16.662  0.00  0.00    +0.000 C 
BRANCH  27  28
ATOM     28  C   UNL     1       5.932   5.454  15.698  0.00  0.00    +0.000 C 
BRANCH  28  29
ATOM     29  C   UNL     1       7.283   5.662  16.368  0.00  0.00    +0.000 C 
BRANCH  29  30
ATOM     30  C   UNL     1       7.236   6.873  17.289  0.00  0.00    +0.000 C 
BRANCH  30  32
ATOM     31  C   UNL     1       7.220   5.550  19.412  0.00  0.00    +0.000 C 
ATOM     32  C   UNL     1       7.966   6.588  18.596  0.00  0.00    +0.000 C 
ENDBRANCH  30  32
ENDBRANCH  29  30
ENDBRANCH  28  29
ENDBRANCH  27  28
ENDBRANCH  26  27
ENDBRANCH  25  26
ENDBRANCH  24  25
ENDBRANCH  23  24
ENDBRANCH  22  23
ENDBRANCH  21  22
ENDBRANCH  20  21
ENDBRANCH  19  20
ENDBRANCH  18  19
ENDBRANCH   1  18
TORSDOF 20
ENDMDL
MODEL 6
REMARK VINA RESULT:      -5.7      3.211      5.613
REMARK  Name = 
REMARK  22 active torsions:
REMARK  status: ('A' for Active; 'I' for Inactive)
REMARK    1  A    between atoms: C_1  and  C_2
REMARK    2  A    between atoms: C_2  and  C_3
REMARK    3  A    between atoms: C_3  and  C_4
REMARK    4  A    between atoms: C_4  and  C_5
REMARK    5  A    between atoms: C_5  and  C_6
REMARK    6  A    between atoms: C_6  and  C_7
REMARK    7  A    between atoms: C_7  and  C_8
REMARK    8  A    between atoms: C_8  and  C_9
REMARK    9  A    between atoms: C_9  and  C_10
REMARK   10  A    between atoms: C_10  and  C_11
REMARK   11  A    between atoms: C_11  and  C_12
REMARK   12  A    between atoms: C_12  and  C_13
REMARK   13  A    between atoms: C_13  and  C_14
REMARK   14  A    between atoms: C_14  and  C_15
REMARK   15  A    between atoms: C_15  and  C_16
REMARK   16  A    between atoms: C_16  and  C_17
REMARK   17  A    between atoms: C_17  and  C_18
REMARK   18  A    between atoms: N_20  and  C_21
REMARK   19  A    between atoms: C_21  and  C_22
REMARK   20  A    between atoms: C_25  and  O_26
REMARK   21  A    between atoms: C_27  and  O_28
REMARK   22  A    between atoms: O_28  and  C_29
REMARK                            x       y       z     vdW  Elec       q    Type
REMARK                         _______ _______ _______ _____ _____    ______ ____
ROOT
ATOM      1  C   UNL     1       2.159   2.522  18.443  0.00  0.00    +0.000 C 
ENDROOT
BRANCH   1   2
ATOM      2  C   UNL     1       0.891   3.209  18.930  0.00  0.00    +0.000 C 
BRANCH   2   3
ATOM      3  C   UNL     1       1.169   4.010  20.185  0.00  0.00    +0.000 C 
ATOM      4  O   UNL     1       1.130   3.535  21.315  0.00  0.00    +0.000 OA
ATOM      5  N   UNL     1       1.451   5.336  19.925  0.00  0.00    +0.000 N 
ATOM      6  H   UNL     1       1.626   5.615  18.968  0.00  0.00    +0.000 HD
BRANCH   5   7
ATOM      7  C   UNL     1       1.753   6.253  21.002  0.00  0.00    +0.000 C 
BRANCH   7   8
ATOM      8  C   UNL     1       1.267   7.661  20.753  0.00  0.00    +0.000 A 
ATOM      9  C   UNL     1       0.554   8.319  21.748  0.00  0.00    +0.000 A 
ATOM     10  C   UNL     1       0.091   9.621  21.555  0.00  0.00    +0.000 A 
ATOM     11  C   UNL     1       0.356  10.287  20.351  0.00  0.00    +0.000 A 
ATOM     12  C   UNL     1       1.075   9.664  19.343  0.00  0.00    +0.000 A 
ATOM     13  C   UNL     1       1.517   8.342  19.545  0.00  0.00    +0.000 A 
BRANCH  12  14
ATOM     14  O   UNL     1       1.438  10.160  18.118  0.00  0.00    +0.000 OA
ATOM     15  C   UNL     1       2.317  11.270  18.056  0.00  0.00    +0.000 C 
ENDBRANCH  12  14
BRANCH  11  16
ATOM     16  O   UNL     1      -0.126  11.561  20.224  0.00  0.00    +0.000 OA
ATOM     17  H   UNL     1      -1.009  11.500  19.825  0.00  0.00    +0.000 HD
ENDBRANCH  11  16
ENDBRANCH   7   8
ENDBRANCH   5   7
ENDBRANCH   2   3
ENDBRANCH   1   2
BRANCH   1  18
ATOM     18  C   UNL     1       3.048   2.079  19.596  0.00  0.00    +0.000 C 
BRANCH  18  19
ATOM     19  C   UNL     1       4.450   2.643  19.407  0.00  0.00    +0.000 C 
BRANCH  19  20
ATOM     20  C   UNL     1       4.545   3.435  18.114  0.00  0.00    +0.000 C 
BRANCH  20  21
ATOM     21  C   UNL     1       5.323   4.722  18.340  0.00  0.00    +0.000 C 
BRANCH  21  22
ATOM     22  C   UNL     1       4.398   5.921  18.210  0.00  0.00    +0.000 C 
BRANCH  22  23
ATOM     23  C   UNL     1       4.532   6.542  16.831  0.00  0.00    +0.000 C 
BRANCH  23  24
ATOM     24  C   UNL     1       5.847   6.120  16.195  0.00  0.00    +0.000 C 
BRANCH  24  25
ATOM     25  C   UNL     1       5.584   5.392  14.889  0.00  0.00    +0.000 C 
BRANCH  25  26
ATOM     26  C   UNL     1       6.458   4.151  14.798  0.00  0.00    +0.000 C 
BRANCH  26  27
ATOM     27  C   UNL     1       6.322   3.518  13.422  0.00  0.00    +0.000 C 
BRANCH  27  28
ATOM     28  C   UNL     1       5.023   3.960  12.769  0.00  0.00    +0.000 C 
BRANCH  28  29
ATOM     29  C   UNL     1       4.776   3.165  11.494  0.00  0.00    +0.000 C 
BRANCH  29  30
ATOM     30  C   UNL     1       3.324   3.301  11.058  0.00  0.00    +0.000 C 
BRANCH  30  32
ATOM     31  C   UNL     1       2.368   4.810   9.305  0.00  0.00    +0.000 C 
ATOM     32  C   UNL     1       3.232   3.590   9.564  0.00  0.00    +0.000 C 
ENDBRANCH  30  32
ENDBRANCH  29  30
ENDBRANCH  28  29
ENDBRANCH  27  28
ENDBRANCH  26  27
ENDBRANCH  25  26
ENDBRANCH  24  25
ENDBRANCH  23  24
ENDBRANCH  22  23
ENDBRANCH  21  22
ENDBRANCH  20  21
ENDBRANCH  19  20
ENDBRANCH  18  19
ENDBRANCH   1  18
TORSDOF 20
ENDMDL
MODEL 7
REMARK VINA RESULT:      -5.7      1.245      1.874
REMARK  Name = 
REMARK  22 active torsions:
REMARK  status: ('A' for Active; 'I' for Inactive)
REMARK    1  A    between atoms: C_1  and  C_2
REMARK    2  A    between atoms: C_2  and  C_3
REMARK    3  A    between atoms: C_3  and  C_4
REMARK    4  A    between atoms: C_4  and  C_5
REMARK    5  A    between atoms: C_5  and  C_6
REMARK    6  A    between atoms: C_6  and  C_7
REMARK    7  A    between atoms: C_7  and  C_8
REMARK    8  A    between atoms: C_8  and  C_9
REMARK    9  A    between atoms: C_9  and  C_10
REMARK   10  A    between atoms: C_10  and  C_11
REMARK   11  A    between atoms: C_11  and  C_12
REMARK   12  A    between atoms: C_12  and  C_13
REMARK   13  A    between atoms: C_13  and  C_14
REMARK   14  A    between atoms: C_14  and  C_15
REMARK   15  A    between atoms: C_15  and  C_16
REMARK   16  A    between atoms: C_16  and  C_17
REMARK   17  A    between atoms: C_17  and  C_18
REMARK   18  A    between atoms: N_20  and  C_21
REMARK   19  A    between atoms: C_21  and  C_22
REMARK   20  A    between atoms: C_25  and  O_26
REMARK   21  A    between atoms: C_27  and  O_28
REMARK   22  A    between atoms: O_28  and  C_29
REMARK                            x       y       z     vdW  Elec       q    Type
REMARK                         _______ _______ _______ _____ _____    ______ ____
ROOT
ATOM      1  C   UNL     1       3.107   8.065  17.780  0.00  0.00    +0.000 C 
ENDROOT
BRANCH   1   2
ATOM      2  C   UNL     1       1.634   8.444  17.801  0.00  0.00    +0.000 C 
BRANCH   2   3
ATOM      3  C   UNL     1       1.440   9.789  18.471  0.00  0.00    +0.000 C 
ATOM      4  O   UNL     1       2.017  10.812  18.118  0.00  0.00    +0.000 OA
ATOM      5  N   UNL     1       0.560   9.738  19.533  0.00  0.00    +0.000 N 
ATOM      6  H   UNL     1       0.001   8.904  19.660  0.00  0.00    +0.000 HD
BRANCH   5   7
ATOM      7  C   UNL     1       0.241  10.931  20.288  0.00  0.00    +0.000 C 
BRANCH   7   8
ATOM      8  C   UNL     1      -1.144  11.468  20.014  0.00  0.00    +0.000 A 
ATOM      9  C   UNL     1      -1.750  12.291  20.956  0.00  0.00    +0.000 A 
ATOM     10  C   UNL     1      -3.027  12.808  20.738  0.00  0.00    +0.000 A 
ATOM     11  C   UNL     1      -3.709  12.511  19.551  0.00  0.00    +0.000 A 
ATOM     12  C   UNL     1      -3.128  11.704  18.585  0.00  0.00    +0.000 A 
ATOM     13  C   UNL     1      -1.847  11.172  18.830  0.00  0.00    +0.000 A 
BRANCH  12  14
ATOM     14  O   UNL     1      -3.634  11.322  17.370  0.00  0.00    +0.000 OA
ATOM     15  C   UNL     1      -2.990  10.286  16.649  0.00  0.00    +0.000 C 
ENDBRANCH  12  14
BRANCH  11  16
ATOM     16  O   UNL     1      -4.958  13.048  19.398  0.00  0.00    +0.000 OA
ATOM     17  H   UNL     1      -4.849  13.952  19.061  0.00  0.00    +0.000 HD
ENDBRANCH  11  16
ENDBRANCH   7   8
ENDBRANCH   5   7
ENDBRANCH   2   3
ENDBRANCH   1   2
BRANCH   1  18
ATOM     18  C   UNL     1       3.372   6.760  18.518  0.00  0.00    +0.000 C 
BRANCH  18  19
ATOM     19  C   UNL     1       2.222   6.471  19.475  0.00  0.00    +0.000 C 
BRANCH  19  20
ATOM     20  C   UNL     1       2.499   5.222  20.293  0.00  0.00    +0.000 C 
BRANCH  20  21
ATOM     21  C   UNL     1       1.193   4.586  20.743  0.00  0.00    +0.000 C 
BRANCH  21  22
ATOM     22  C   UNL     1       1.210   3.094  20.454  0.00  0.00    +0.000 C 
BRANCH  22  23
ATOM     23  C   UNL     1       0.652   2.819  19.069  0.00  0.00    +0.000 C 
BRANCH  23  24
ATOM     24  C   UNL     1       1.781   2.769  18.053  0.00  0.00    +0.000 C 
BRANCH  24  25
ATOM     25  C   UNL     1       2.733   1.634  18.386  0.00  0.00    +0.000 C 
BRANCH  25  26
ATOM     26  C   UNL     1       4.115   1.929  17.827  0.00  0.00    +0.000 C 
BRANCH  26  27
ATOM     27  C   UNL     1       4.190   3.373  17.357  0.00  0.00    +0.000 C 
BRANCH  27  28
ATOM     28  C   UNL     1       5.368   4.076  18.012  0.00  0.00    +0.000 C 
BRANCH  28  29
ATOM     29  C   UNL     1       6.340   4.576  16.953  0.00  0.00    +0.000 C 
BRANCH  29  30
ATOM     30  C   UNL     1       6.192   6.079  16.766  0.00  0.00    +0.000 C 
BRANCH  30  32
ATOM     31  C   UNL     1       7.782   6.403  18.671  0.00  0.00    +0.000 C 
ATOM     32  C   UNL     1       7.438   6.810  17.250  0.00  0.00    +0.000 C 
ENDBRANCH  30  32
ENDBRANCH  29  30
ENDBRANCH  28  29
ENDBRANCH  27  28
ENDBRANCH  26  27
ENDBRANCH  25  26
ENDBRANCH  24  25
ENDBRANCH  23  24
ENDBRANCH  22  23
ENDBRANCH  21  22
ENDBRANCH  20  21
ENDBRANCH  19  20
ENDBRANCH  18  19
ENDBRANCH   1  18
TORSDOF 20
ENDMDL
MODEL 8
REMARK VINA RESULT:      -5.6      1.019      1.474
REMARK  Name = 
REMARK  22 active torsions:
REMARK  status: ('A' for Active; 'I' for Inactive)
REMARK    1  A    between atoms: C_1  and  C_2
REMARK    2  A    between atoms: C_2  and  C_3
REMARK    3  A    between atoms: C_3  and  C_4
REMARK    4  A    between atoms: C_4  and  C_5
REMARK    5  A    between atoms: C_5  and  C_6
REMARK    6  A    between atoms: C_6  and  C_7
REMARK    7  A    between atoms: C_7  and  C_8
REMARK    8  A    between atoms: C_8  and  C_9
REMARK    9  A    between atoms: C_9  and  C_10
REMARK   10  A    between atoms: C_10  and  C_11
REMARK   11  A    between atoms: C_11  and  C_12
REMARK   12  A    between atoms: C_12  and  C_13
REMARK   13  A    between atoms: C_13  and  C_14
REMARK   14  A    between atoms: C_14  and  C_15
REMARK   15  A    between atoms: C_15  and  C_16
REMARK   16  A    between atoms: C_16  and  C_17
REMARK   17  A    between atoms: C_17  and  C_18
REMARK   18  A    between atoms: N_20  and  C_21
REMARK   19  A    between atoms: C_21  and  C_22
REMARK   20  A    between atoms: C_25  and  O_26
REMARK   21  A    between atoms: C_27  and  O_28
REMARK   22  A    between atoms: O_28  and  C_29
REMARK                            x       y       z     vdW  Elec       q    Type
REMARK                         _______ _______ _______ _____ _____    ______ ____
ROOT
ATOM      1  C   UNL     1       2.150   7.742  18.168  0.00  0.00    +0.000 C 
ENDROOT
BRANCH   1   2
ATOM      2  C   UNL     1       2.142   9.248  17.944  0.00  0.00    +0.000 C 
BRANCH   2   3
ATOM      3  C   UNL     1       1.080   9.908  18.798  0.00  0.00    +0.000 C 
ATOM      4  O   UNL     1       0.622   9.407  19.818  0.00  0.00    +0.000 OA
ATOM      5  N   UNL     1       0.667  11.125  18.295  0.00  0.00    +0.000 N 
ATOM      6  H   UNL     1       1.203  11.548  17.547  0.00  0.00    +0.000 HD
BRANCH   5   7
ATOM      7  C   UNL     1      -0.335  11.909  18.983  0.00  0.00    +0.000 C 
BRANCH   7   8
ATOM      8  C   UNL     1      -1.746  11.627  18.523  0.00  0.00    +0.000 A 
ATOM      9  C   UNL     1      -2.810  12.220  19.193  0.00  0.00    +0.000 A 
ATOM     10  C   UNL     1      -4.126  11.985  18.795  0.00  0.00    +0.000 A 
ATOM     11  C   UNL     1      -4.388  11.154  17.698  0.00  0.00    +0.000 A 
ATOM     12  C   UNL     1      -3.349  10.556  17.001  0.00  0.00    +0.000 A 
ATOM     13  C   UNL     1      -2.027  10.786  17.428  0.00  0.00    +0.000 A 
BRANCH  12  14
ATOM     14  O   UNL     1      -3.415   9.733  15.907  0.00  0.00    +0.000 OA
ATOM     15  C   UNL     1      -3.252  10.289  14.614  0.00  0.00    +0.000 C 
ENDBRANCH  12  14
BRANCH  11  16
ATOM     16  O   UNL     1      -5.700  10.963  17.360  0.00  0.00    +0.000 OA
ATOM     17  H   UNL     1      -5.939  10.057  17.614  0.00  0.00    +0.000 HD
ENDBRANCH  11  16
ENDBRANCH   7   8
ENDBRANCH   5   7
ENDBRANCH   2   3
ENDBRANCH   1   2
BRANCH   1  18
ATOM     18  C   UNL     1       2.722   7.371  19.529  0.00  0.00    +0.000 C 
BRANCH  18  19
ATOM     19  C   UNL     1       2.677   5.859  19.707  0.00  0.00    +0.000 C 
BRANCH  19  20
ATOM     20  C   UNL     1       1.630   5.466  20.735  0.00  0.00    +0.000 C 
BRANCH  20  21
ATOM     21  C   UNL     1       1.226   4.012  20.547  0.00  0.00    +0.000 C 
BRANCH  21  22
ATOM     22  C   UNL     1       1.666   3.187  21.746  0.00  0.00    +0.000 C 
BRANCH  22  23
ATOM     23  C   UNL     1       2.690   2.150  21.323  0.00  0.00    +0.000 C 
BRANCH  23  24
ATOM     24  C   UNL     1       3.408   2.608  20.064  0.00  0.00    +0.000 C 
BRANCH  24  25
ATOM     25  C   UNL     1       2.828   1.906  18.849  0.00  0.00    +0.000 C 
BRANCH  25  26
ATOM     26  C   UNL     1       3.699   2.166  17.630  0.00  0.00    +0.000 C 
BRANCH  26  27
ATOM     27  C   UNL     1       4.352   3.534  17.738  0.00  0.00    +0.000 C 
BRANCH  27  28
ATOM     28  C   UNL     1       4.479   4.164  16.361  0.00  0.00    +0.000 C 
BRANCH  28  29
ATOM     29  C   UNL     1       4.850   5.635  16.485  0.00  0.00    +0.000 C 
BRANCH  29  30
ATOM     30  C   UNL     1       5.647   5.875  17.759  0.00  0.00    +0.000 C 
BRANCH  30  32
ATOM     31  C   UNL     1       7.890   4.803  18.045  0.00  0.00    +0.000 C 
ATOM     32  C   UNL     1       7.136   5.980  17.455  0.00  0.00    +0.000 C 
ENDBRANCH  30  32
ENDBRANCH  29  30
ENDBRANCH  28  29
ENDBRANCH  27  28
ENDBRANCH  26  27
ENDBRANCH  25  26
ENDBRANCH  24  25
ENDBRANCH  23  24
ENDBRANCH  22  23
ENDBRANCH  21  22
ENDBRANCH  20  21
ENDBRANCH  19  20
ENDBRANCH  18  19
ENDBRANCH   1  18
TORSDOF 20
ENDMDL
MODEL 9
REMARK VINA RESULT:      -5.6      3.343      6.359
REMARK  Name = 
REMARK  22 active torsions:
REMARK  status: ('A' for Active; 'I' for Inactive)
REMARK    1  A    between atoms: C_1  and  C_2
REMARK    2  A    between atoms: C_2  and  C_3
REMARK    3  A    between atoms: C_3  and  C_4
REMARK    4  A    between atoms: C_4  and  C_5
REMARK    5  A    between atoms: C_5  and  C_6
REMARK    6  A    between atoms: C_6  and  C_7
REMARK    7  A    between atoms: C_7  and  C_8
REMARK    8  A    between atoms: C_8  and  C_9
REMARK    9  A    between atoms: C_9  and  C_10
REMARK   10  A    between atoms: C_10  and  C_11
REMARK   11  A    between atoms: C_11  and  C_12
REMARK   12  A    between atoms: C_12  and  C_13
REMARK   13  A    between atoms: C_13  and  C_14
REMARK   14  A    between atoms: C_14  and  C_15
REMARK   15  A    between atoms: C_15  and  C_16
REMARK   16  A    between atoms: C_16  and  C_17
REMARK   17  A    between atoms: C_17  and  C_18
REMARK   18  A    between atoms: N_20  and  C_21
REMARK   19  A    between atoms: C_21  and  C_22
REMARK   20  A    between atoms: C_25  and  O_26
REMARK   21  A    between atoms: C_27  and  O_28
REMARK   22  A    between atoms: O_28  and  C_29
REMARK                            x       y       z     vdW  Elec       q    Type
REMARK                         _______ _______ _______ _____ _____    ______ ____
ROOT
ATOM      1  C   UNL     1      -2.479  10.313  18.216  0.00  0.00    +0.000 C 
ENDROOT
BRANCH   1   2
ATOM      2  C   UNL     1      -3.485  11.122  17.410  0.00  0.00    +0.000 C 
BRANCH   2   3
ATOM      3  C   UNL     1      -4.667  11.513  18.273  0.00  0.00    +0.000 C 
ATOM      4  O   UNL     1      -5.734  10.909  18.276  0.00  0.00    +0.000 OA
ATOM      5  N   UNL     1      -4.423  12.633  19.041  0.00  0.00    +0.000 N 
ATOM      6  H   UNL     1      -3.473  12.976  19.110  0.00  0.00    +0.000 HD
BRANCH   5   7
ATOM      7  C   UNL     1      -5.434  13.149  19.938  0.00  0.00    +0.000 C 
BRANCH   7   8
ATOM      8  C   UNL     1      -5.103  12.955  21.399  0.00  0.00    +0.000 A 
ATOM      9  C   UNL     1      -6.109  13.101  22.348  0.00  0.00    +0.000 A 
ATOM     10  C   UNL     1      -5.841  12.927  23.706  0.00  0.00    +0.000 A 
ATOM     11  C   UNL     1      -4.549  12.588  24.127  0.00  0.00    +0.000 A 
ATOM     12  C   UNL     1      -3.526  12.423  23.206  0.00  0.00    +0.000 A 
ATOM     13  C   UNL     1      -3.807  12.624  21.841  0.00  0.00    +0.000 A 
BRANCH  12  14
ATOM     14  O   UNL     1      -2.218  12.082  23.432  0.00  0.00    +0.000 OA
ATOM     15  C   UNL     1      -1.201  12.709  22.670  0.00  0.00    +0.000 C 
ENDBRANCH  12  14
BRANCH  11  16
ATOM     16  O   UNL     1      -4.353  12.434  25.473  0.00  0.00    +0.000 OA
ATOM     17  H   UNL     1      -3.477  12.795  25.683  0.00  0.00    +0.000 HD
ENDBRANCH  11  16
ENDBRANCH   7   8
ENDBRANCH   5   7
ENDBRANCH   2   3
ENDBRANCH   1   2
BRANCH   1  18
ATOM     18  C   UNL     1      -1.387  11.190  18.813  0.00  0.00    +0.000 C 
BRANCH  18  19
ATOM     19  C   UNL     1      -0.125  10.364  19.024  0.00  0.00    +0.000 C 
BRANCH  19  20
ATOM     20  C   UNL     1       1.105  11.129  18.567  0.00  0.00    +0.000 C 
BRANCH  20  21
ATOM     21  C   UNL     1       2.139  10.171  17.996  0.00  0.00    +0.000 C 
BRANCH  21  22
ATOM     22  C   UNL     1       1.545   8.778  17.863  0.00  0.00    +0.000 C 
BRANCH  22  23
ATOM     23  C   UNL     1       2.422   7.762  18.572  0.00  0.00    +0.000 C 
BRANCH  23  24
ATOM     24  C   UNL     1       3.580   7.357  17.675  0.00  0.00    +0.000 C 
BRANCH  24  25
ATOM     25  C   UNL     1       4.146   6.021  18.125  0.00  0.00    +0.000 C 
BRANCH  25  26
ATOM     26  C   UNL     1       4.102   5.022  16.980  0.00  0.00    +0.000 C 
BRANCH  26  27
ATOM     27  C   UNL     1       4.764   3.719  17.399  0.00  0.00    +0.000 C 
BRANCH  27  28
ATOM     28  C   UNL     1       3.713   2.726  17.869  0.00  0.00    +0.000 C 
BRANCH  28  29
ATOM     29  C   UNL     1       2.316   3.287  17.642  0.00  0.00    +0.000 C 
BRANCH  29  30
ATOM     30  C   UNL     1       1.360   2.773  18.708  0.00  0.00    +0.000 C 
BRANCH  30  32
ATOM     31  C   UNL     1       1.300   3.240  21.166  0.00  0.00    +0.000 C 
ATOM     32  C   UNL     1       1.124   3.831  19.779  0.00  0.00    +0.000 C 
ENDBRANCH  30  32
ENDBRANCH  29  30
ENDBRANCH  28  29
ENDBRANCH  27  28
ENDBRANCH  26  27
ENDBRANCH  25  26
ENDBRANCH  24  25
ENDBRANCH  23  24
ENDBRANCH  22  23
ENDBRANCH  21  22
ENDBRANCH  20  21
ENDBRANCH  19  20
ENDBRANCH  18  19
ENDBRANCH   1  18
TORSDOF 20
ENDMDL
