MODEL 1
REMARK VINA RESULT:      -6.6      0.000      0.000
REMARK  Name = 
REMARK  17 active torsions:
REMARK  status: ('A' for Active; 'I' for Inactive)
REMARK    1  A    between atoms: C_1  and  C_2
REMARK    2  A    between atoms: C_2  and  C_3
REMARK    3  A    between atoms: C_3  and  C_4
REMARK    4  A    between atoms: C_3  and  N_5
REMARK    5  A    between atoms: N_5  and  C_6
REMARK    6  A    between atoms: N_5  and  S_10
REMARK    7  A    between atoms: C_6  and  C_7
REMARK    8  A    between atoms: C_6  and  C_8
REMARK    9  A    between atoms: C_8  and  C_9
REMARK   10  A    between atoms: S_10  and  N_13
REMARK   11  A    between atoms: N_16  and  C_17
REMARK   12  A    between atoms: C_18  and  C_19
REMARK   13  A    between atoms: C_19  and  C_20
REMARK   14  A    between atoms: C_19  and  C_21
REMARK   15  A    between atoms: C_25  and  C_26
REMARK   16  A    between atoms: C_26  and  C_27
REMARK   17  A    between atoms: C_26  and  C_28
REMARK                            x       y       z     vdW  Elec       q    Type
REMARK                         _______ _______ _______ _____ _____    ______ ____
ROOT
ATOM      1  N   UNL     1       1.961   8.495  19.516  0.00  0.00    +0.000 N 
ATOM      2  C   UNL     1       2.326   7.390  18.755  0.00  0.00    +0.000 C 
ATOM      3  O   UNL     1       1.971   7.196  17.601  0.00  0.00    +0.000 OA
ATOM      4  N   UNL     1       3.078   6.479  19.490  0.00  0.00    +0.000 N 
ATOM      5  H   UNL     1       2.588   8.781  20.256  0.00  0.00    +0.000 HD
ATOM      6  H   UNL     1       2.856   6.483  20.471  0.00  0.00    +0.000 HD
ENDROOT
BRANCH   4   7
ATOM      7  C   UNL     1       3.432   5.228  18.927  0.00  0.00    +0.000 A 
ATOM      8  C   UNL     1       4.465   5.193  17.955  0.00  0.00    +0.000 A 
ATOM      9  C   UNL     1       4.770   3.957  17.346  0.00  0.00    +0.000 A 
ATOM     10  C   UNL     1       4.107   2.791  17.704  0.00  0.00    +0.000 A 
ATOM     11  C   UNL     1       3.129   2.828  18.689  0.00  0.00    +0.000 A 
ATOM     12  C   UNL     1       2.780   4.030  19.339  0.00  0.00    +0.000 A 
BRANCH   8  13
ATOM     13  C   UNL     1       5.308   6.380  17.485  0.00  0.00    +0.000 C 
ATOM     14  C   UNL     1       6.780   6.223  17.867  0.00  0.00    +0.000 C 
ATOM     15  C   UNL     1       5.151   6.782  16.017  0.00  0.00    +0.000 C 
ENDBRANCH   8  13
BRANCH  12  16
ATOM     16  C   UNL     1       1.660   3.976  20.382  0.00  0.00    +0.000 C 
ATOM     17  C   UNL     1       0.477   3.148  19.869  0.00  0.00    +0.000 C 
ATOM     18  C   UNL     1       2.096   3.394  21.744  0.00  0.00    +0.000 C 
ENDBRANCH  12  16
ENDBRANCH   4   7
BRANCH   1  19
ATOM     19  S   UNL     1       1.133   9.815  18.934  0.00  0.00    +0.000 S 
ATOM     20  O   UNL     1      -0.128   9.445  18.343  0.00  0.00    +0.000 OA
ATOM     21  O   UNL     1       2.134  10.524  18.166  0.00  0.00    +0.000 OA
BRANCH  19  22
ATOM     22  N   UNL     1       0.784  10.804  20.335  0.00  0.00    +0.000 NA
BRANCH  22  23
ATOM     23  C   UNL     1       0.609  12.305  19.886  0.00  0.00    +0.000 C 
ATOM     24  C   UNL     1       1.257  13.317  20.843  0.00  0.00    +0.000 C 
BRANCH  23  26
ATOM     25  C   UNL     1      -1.275  14.089  20.232  0.00  0.00    +0.000 C 
ATOM     26  C   UNL     1      -0.845  12.765  19.612  0.00  0.00    +0.000 C 
ENDBRANCH  23  26
ENDBRANCH  22  23
BRANCH  22  27
ATOM     27  C   UNL     1      -0.359  10.363  21.258  0.00  0.00    +0.000 C 
ATOM     28  C   UNL     1      -0.362   8.857  21.540  0.00  0.00    +0.000 C 
BRANCH  27  29
ATOM     29  C   UNL     1      -0.479  11.116  22.598  0.00  0.00    +0.000 C 
ATOM     30  C   UNL     1      -1.866  11.590  22.993  0.00  0.00    +0.000 C 
ENDBRANCH  27  29
ENDBRANCH  22  27
ENDBRANCH  19  22
ENDBRANCH   1  19
TORSDOF 9
ENDMDL
MODEL 2
REMARK VINA RESULT:      -6.5      0.326      3.242
REMARK  Name = 
REMARK  17 active torsions:
REMARK  status: ('A' for Active; 'I' for Inactive)
REMARK    1  A    between atoms: C_1  and  C_2
REMARK    2  A    between atoms: C_2  and  C_3
REMARK    3  A    between atoms: C_3  and  C_4
REMARK    4  A    between atoms: C_3  and  N_5
REMARK    5  A    between atoms: N_5  and  C_6
REMARK    6  A    between atoms: N_5  and  S_10
REMARK    7  A    between atoms: C_6  and  C_7
REMARK    8  A    between atoms: C_6  and  C_8
REMARK    9  A    between atoms: C_8  and  C_9
REMARK   10  A    between atoms: S_10  and  N_13
REMARK   11  A    between atoms: N_16  and  C_17
REMARK   12  A    between atoms: C_18  and  C_19
REMARK   13  A    between atoms: C_19  and  C_20
REMARK   14  A    between atoms: C_19  and  C_21
REMARK   15  A    between atoms: C_25  and  C_26
REMARK   16  A    between atoms: C_26  and  C_27
REMARK   17  A    between atoms: C_26  and  C_28
REMARK                            x       y       z     vdW  Elec       q    Type
REMARK                         _______ _______ _______ _____ _____    ______ ____
ROOT
ATOM      1  N   UNL     1       1.939   8.543  19.429  0.00  0.00    +0.000 N 
ATOM      2  C   UNL     1       2.300   7.485  18.601  0.00  0.00    +0.000 C 
ATOM      3  O   UNL     1       1.925   7.351  17.446  0.00  0.00    +0.000 OA
ATOM      4  N   UNL     1       3.075   6.543  19.271  0.00  0.00    +0.000 N 
ATOM      5  H   UNL     1       2.577   8.794  20.172  0.00  0.00    +0.000 HD
ATOM      6  H   UNL     1       2.871   6.491  20.254  0.00  0.00    +0.000 HD
ENDROOT
BRANCH   4   7
ATOM      7  C   UNL     1       3.430   5.329  18.633  0.00  0.00    +0.000 A 
ATOM      8  C   UNL     1       2.767   4.139  19.027  0.00  0.00    +0.000 A 
ATOM      9  C   UNL     1       3.170   2.921  18.439  0.00  0.00    +0.000 A 
ATOM     10  C   UNL     1       4.166   2.879  17.473  0.00  0.00    +0.000 A 
ATOM     11  C   UNL     1       4.778   4.055  17.061  0.00  0.00    +0.000 A 
ATOM     12  C   UNL     1       4.418   5.305  17.605  0.00  0.00    +0.000 A 
BRANCH   8  13
ATOM     13  C   UNL     1       1.631   4.030  20.045  0.00  0.00    +0.000 C 
ATOM     14  C   UNL     1       0.572   3.015  19.614  0.00  0.00    +0.000 C 
ATOM     15  C   UNL     1       2.046   3.820  21.503  0.00  0.00    +0.000 C 
ENDBRANCH   8  13
BRANCH  12  16
ATOM     16  C   UNL     1       5.180   6.540  17.116  0.00  0.00    +0.000 C 
ATOM     17  C   UNL     1       6.645   6.491  17.566  0.00  0.00    +0.000 C 
ATOM     18  C   UNL     1       5.156   6.728  15.584  0.00  0.00    +0.000 C 
ENDBRANCH  12  16
ENDBRANCH   4   7
BRANCH   1  19
ATOM     19  S   UNL     1       1.087   9.884  18.937  0.00  0.00    +0.000 S 
ATOM     20  O   UNL     1      -0.149   9.531  18.286  0.00  0.00    +0.000 OA
ATOM     21  O   UNL     1       2.085  10.679  18.254  0.00  0.00    +0.000 OA
BRANCH  19  22
ATOM     22  N   UNL     1       0.679  10.745  20.404  0.00  0.00    +0.000 NA
BRANCH  22  23
ATOM     23  C   UNL     1       0.322  12.239  20.052  0.00  0.00    +0.000 C 
ATOM     24  C   UNL     1       0.885  13.262  21.051  0.00  0.00    +0.000 C 
BRANCH  23  26
ATOM     25  C   UNL     1      -1.685  13.893  20.355  0.00  0.00    +0.000 C 
ATOM     26  C   UNL     1      -1.183  12.546  19.848  0.00  0.00    +0.000 C 
ENDBRANCH  23  26
ENDBRANCH  22  23
BRANCH  22  27
ATOM     27  C   UNL     1      -0.375  10.124  21.331  0.00  0.00    +0.000 C 
ATOM     28  C   UNL     1      -0.280   8.597  21.416  0.00  0.00    +0.000 C 
BRANCH  27  29
ATOM     29  C   UNL     1      -0.442  10.696  22.761  0.00  0.00    +0.000 C 
ATOM     30  C   UNL     1      -1.728  11.400  23.155  0.00  0.00    +0.000 C 
ENDBRANCH  27  29
ENDBRANCH  22  27
ENDBRANCH  19  22
ENDBRANCH   1  19
TORSDOF 9
ENDMDL
MODEL 3
REMARK VINA RESULT:      -6.4      1.165      2.200
REMARK  Name = 
REMARK  17 active torsions:
REMARK  status: ('A' for Active; 'I' for Inactive)
REMARK    1  A    between atoms: C_1  and  C_2
REMARK    2  A    between atoms: C_2  and  C_3
REMARK    3  A    between atoms: C_3  and  C_4
REMARK    4  A    between atoms: C_3  and  N_5
REMARK    5  A    between atoms: N_5  and  C_6
REMARK    6  A    between atoms: N_5  and  S_10
REMARK    7  A    between atoms: C_6  and  C_7
REMARK    8  A    between atoms: C_6  and  C_8
REMARK    9  A    between atoms: C_8  and  C_9
REMARK   10  A    between atoms: S_10  and  N_13
REMARK   11  A    between atoms: N_16  and  C_17
REMARK   12  A    between atoms: C_18  and  C_19
REMARK   13  A    between atoms: C_19  and  C_20
REMARK   14  A    between atoms: C_19  and  C_21
REMARK   15  A    between atoms: C_25  and  C_26
REMARK   16  A    between atoms: C_26  and  C_27
REMARK   17  A    between atoms: C_26  and  C_28
REMARK                            x       y       z     vdW  Elec       q    Type
REMARK                         _______ _______ _______ _____ _____    ______ ____
ROOT
ATOM      1  N   UNL     1       1.985   8.539  19.415  0.00  0.00    +0.000 N 
ATOM      2  C   UNL     1       2.417   7.370  18.798  0.00  0.00    +0.000 C 
ATOM      3  O   UNL     1       2.066   7.002  17.687  0.00  0.00    +0.000 OA
ATOM      4  N   UNL     1       3.235   6.615  19.633  0.00  0.00    +0.000 N 
ATOM      5  H   UNL     1       2.598   8.960  20.100  0.00  0.00    +0.000 HD
ATOM      6  H   UNL     1       3.022   6.733  20.609  0.00  0.00    +0.000 HD
ENDROOT
BRANCH   4   7
ATOM      7  C   UNL     1       3.668   5.327  19.232  0.00  0.00    +0.000 A 
ATOM      8  C   UNL     1       4.681   5.231  18.244  0.00  0.00    +0.000 A 
ATOM      9  C   UNL     1       5.062   3.948  17.797  0.00  0.00    +0.000 A 
ATOM     10  C   UNL     1       4.493   2.798  18.328  0.00  0.00    +0.000 A 
ATOM     11  C   UNL     1       3.535   2.901  19.327  0.00  0.00    +0.000 A 
ATOM     12  C   UNL     1       3.114   4.153  19.821  0.00  0.00    +0.000 A 
BRANCH   8  13
ATOM     13  C   UNL     1       5.425   6.399  17.594  0.00  0.00    +0.000 C 
ATOM     14  C   UNL     1       6.925   6.355  17.887  0.00  0.00    +0.000 C 
ATOM     15  C   UNL     1       5.152   6.631  16.106  0.00  0.00    +0.000 C 
ENDBRANCH   8  13
BRANCH  12  16
ATOM     16  C   UNL     1       2.022   4.164  20.895  0.00  0.00    +0.000 C 
ATOM     17  C   UNL     1       0.628   4.160  20.256  0.00  0.00    +0.000 C 
ATOM     18  C   UNL     1       2.098   2.979  21.882  0.00  0.00    +0.000 C 
ENDBRANCH  12  16
ENDBRANCH   4   7
BRANCH   1  19
ATOM     19  S   UNL     1       1.065   9.714  18.680  0.00  0.00    +0.000 S 
ATOM     20  O   UNL     1       0.594   9.299  17.383  0.00  0.00    +0.000 OA
ATOM     21  O   UNL     1       1.868  10.908  18.831  0.00  0.00    +0.000 OA
BRANCH  19  22
ATOM     22  N   UNL     1      -0.337   9.921  19.705  0.00  0.00    +0.000 NA
BRANCH  22  23
ATOM     23  C   UNL     1       0.131  10.188  21.186  0.00  0.00    +0.000 C 
ATOM     24  C   UNL     1      -0.090   8.996  22.130  0.00  0.00    +0.000 C 
BRANCH  23  26
ATOM     25  C   UNL     1      -1.407  11.227  23.032  0.00  0.00    +0.000 C 
ATOM     26  C   UNL     1      -0.454  11.452  21.864  0.00  0.00    +0.000 C 
ENDBRANCH  23  26
ENDBRANCH  22  23
BRANCH  22  27
ATOM     27  C   UNL     1      -1.403  10.934  19.267  0.00  0.00    +0.000 C 
ATOM     28  C   UNL     1      -0.810  12.229  18.703  0.00  0.00    +0.000 C 
BRANCH  27  29
ATOM     29  C   UNL     1      -2.473  10.413  18.286  0.00  0.00    +0.000 C 
ATOM     30  C   UNL     1      -3.729  11.251  18.138  0.00  0.00    +0.000 C 
ENDBRANCH  27  29
ENDBRANCH  22  27
ENDBRANCH  19  22
ENDBRANCH   1  19
TORSDOF 9
ENDMDL
MODEL 4
REMARK VINA RESULT:      -6.4      0.616      1.124
REMARK  Name = 
REMARK  17 active torsions:
REMARK  status: ('A' for Active; 'I' for Inactive)
REMARK    1  A    between atoms: C_1  and  C_2
REMARK    2  A    between atoms: C_2  and  C_3
REMARK    3  A    between atoms: C_3  and  C_4
REMARK    4  A    between atoms: C_3  and  N_5
REMARK    5  A    between atoms: N_5  and  C_6
REMARK    6  A    between atoms: N_5  and  S_10
REMARK    7  A    between atoms: C_6  and  C_7
REMARK    8  A    between atoms: C_6  and  C_8
REMARK    9  A    between atoms: C_8  and  C_9
REMARK   10  A    between atoms: S_10  and  N_13
REMARK   11  A    between atoms: N_16  and  C_17
REMARK   12  A    between atoms: C_18  and  C_19
REMARK   13  A    between atoms: C_19  and  C_20
REMARK   14  A    between atoms: C_19  and  C_21
REMARK   15  A    between atoms: C_25  and  C_26
REMARK   16  A    between atoms: C_26  and  C_27
REMARK   17  A    between atoms: C_26  and  C_28
REMARK                            x       y       z     vdW  Elec       q    Type
REMARK                         _______ _______ _______ _____ _____    ______ ____
ROOT
ATOM      1  N   UNL     1       1.918   8.545  19.697  0.00  0.00    +0.000 N 
ATOM      2  C   UNL     1       2.250   7.463  18.887  0.00  0.00    +0.000 C 
ATOM      3  O   UNL     1       1.835   7.296  17.750  0.00  0.00    +0.000 OA
ATOM      4  N   UNL     1       3.046   6.539  19.557  0.00  0.00    +0.000 N 
ATOM      5  H   UNL     1       2.582   8.816  20.410  0.00  0.00    +0.000 HD
ATOM      6  H   UNL     1       2.876   6.515  20.548  0.00  0.00    +0.000 HD
ENDROOT
BRANCH   4   7
ATOM      7  C   UNL     1       3.378   5.306  18.943  0.00  0.00    +0.000 A 
ATOM      8  C   UNL     1       4.379   5.300  17.937  0.00  0.00    +0.000 A 
ATOM      9  C   UNL     1       4.660   4.084  17.279  0.00  0.00    +0.000 A 
ATOM     10  C   UNL     1       4.006   2.908  17.621  0.00  0.00    +0.000 A 
ATOM     11  C   UNL     1       3.060   2.916  18.637  0.00  0.00    +0.000 A 
ATOM     12  C   UNL     1       2.736   4.096  19.338  0.00  0.00    +0.000 A 
BRANCH   8  13
ATOM     13  C   UNL     1       5.209   6.500  17.479  0.00  0.00    +0.000 C 
ATOM     14  C   UNL     1       6.684   6.352  17.855  0.00  0.00    +0.000 C 
ATOM     15  C   UNL     1       5.045   6.917  16.015  0.00  0.00    +0.000 C 
ENDBRANCH   8  13
BRANCH  12  16
ATOM     16  C   UNL     1       1.651   4.011  20.414  0.00  0.00    +0.000 C 
ATOM     17  C   UNL     1       0.456   3.188  19.919  0.00  0.00    +0.000 C 
ATOM     18  C   UNL     1       2.133   3.400  21.747  0.00  0.00    +0.000 C 
ENDBRANCH  12  16
ENDBRANCH   4   7
BRANCH   1  19
ATOM     19  S   UNL     1       1.052   9.873  19.195  0.00  0.00    +0.000 S 
ATOM     20  O   UNL     1      -0.276   9.520  18.763  0.00  0.00    +0.000 OA
ATOM     21  O   UNL     1       1.969  10.550  18.303  0.00  0.00    +0.000 OA
BRANCH  19  22
ATOM     22  N   UNL     1       0.889  10.888  20.611  0.00  0.00    +0.000 NA
BRANCH  22  23
ATOM     23  C   UNL     1       0.851  12.400  20.168  0.00  0.00    +0.000 C 
ATOM     24  C   UNL     1      -0.103  12.678  18.996  0.00  0.00    +0.000 C 
BRANCH  23  26
ATOM     25  C   UNL     1       2.780  14.031  20.853  0.00  0.00    +0.000 C 
ATOM     26  C   UNL     1       2.219  13.045  19.836  0.00  0.00    +0.000 C 
ENDBRANCH  23  26
ENDBRANCH  22  23
BRANCH  22  27
ATOM     27  C   UNL     1      -0.241  10.568  21.597  0.00  0.00    +0.000 C 
ATOM     28  C   UNL     1       0.047   9.341  22.469  0.00  0.00    +0.000 C 
BRANCH  27  29
ATOM     29  C   UNL     1      -0.695  11.726  22.508  0.00  0.00    +0.000 C 
ATOM     30  C   UNL     1      -2.172  12.078  22.480  0.00  0.00    +0.000 C 
ENDBRANCH  27  29
ENDBRANCH  22  27
ENDBRANCH  19  22
ENDBRANCH   1  19
TORSDOF 9
ENDMDL
MODEL 5
REMARK VINA RESULT:      -6.4      0.726      3.412
REMARK  Name = 
REMARK  17 active torsions:
REMARK  status: ('A' for Active; 'I' for Inactive)
REMARK    1  A    between atoms: C_1  and  C_2
REMARK    2  A    between atoms: C_2  and  C_3
REMARK    3  A    between atoms: C_3  and  C_4
REMARK    4  A    between atoms: C_3  and  N_5
REMARK    5  A    between atoms: N_5  and  C_6
REMARK    6  A    between atoms: N_5  and  S_10
REMARK    7  A    between atoms: C_6  and  C_7
REMARK    8  A    between atoms: C_6  and  C_8
REMARK    9  A    between atoms: C_8  and  C_9
REMARK   10  A    between atoms: S_10  and  N_13
REMARK   11  A    between atoms: N_16  and  C_17
REMARK   12  A    between atoms: C_18  and  C_19
REMARK   13  A    between atoms: C_19  and  C_20
REMARK   14  A    between atoms: C_19  and  C_21
REMARK   15  A    between atoms: C_25  and  C_26
REMARK   16  A    between atoms: C_26  and  C_27
REMARK   17  A    between atoms: C_26  and  C_28
REMARK                            x       y       z     vdW  Elec       q    Type
REMARK                         _______ _______ _______ _____ _____    ______ ____
ROOT
ATOM      1  N   UNL     1       1.959   8.645  19.387  0.00  0.00    +0.000 N 
ATOM      2  C   UNL     1       2.294   7.581  18.555  0.00  0.00    +0.000 C 
ATOM      3  O   UNL     1       1.904   7.451  17.405  0.00  0.00    +0.000 OA
ATOM      4  N   UNL     1       3.060   6.627  19.218  0.00  0.00    +0.000 N 
ATOM      5  H   UNL     1       2.610   8.886  20.122  0.00  0.00    +0.000 HD
ATOM      6  H   UNL     1       2.867   6.578  20.203  0.00  0.00    +0.000 HD
ENDROOT
BRANCH   4   7
ATOM      7  C   UNL     1       3.389   5.406  18.577  0.00  0.00    +0.000 A 
ATOM      8  C   UNL     1       2.715   4.226  18.983  0.00  0.00    +0.000 A 
ATOM      9  C   UNL     1       3.092   3.002  18.393  0.00  0.00    +0.000 A 
ATOM     10  C   UNL     1       4.073   2.943  17.412  0.00  0.00    +0.000 A 
ATOM     11  C   UNL     1       4.695   4.110  16.989  0.00  0.00    +0.000 A 
ATOM     12  C   UNL     1       4.361   5.366  17.535  0.00  0.00    +0.000 A 
BRANCH   8  13
ATOM     13  C   UNL     1       1.592   4.136  20.018  0.00  0.00    +0.000 C 
ATOM     14  C   UNL     1       0.529   3.111  19.621  0.00  0.00    +0.000 C 
ATOM     15  C   UNL     1       2.027   3.954  21.474  0.00  0.00    +0.000 C 
ENDBRANCH   8  13
BRANCH  12  16
ATOM     16  C   UNL     1       5.133   6.589  17.032  0.00  0.00    +0.000 C 
ATOM     17  C   UNL     1       6.587   6.554  17.517  0.00  0.00    +0.000 C 
ATOM     18  C   UNL     1       5.145   6.738  15.496  0.00  0.00    +0.000 C 
ENDBRANCH  12  16
ENDBRANCH   4   7
BRANCH   1  19
ATOM     19  S   UNL     1       1.124   9.999  18.902  0.00  0.00    +0.000 S 
ATOM     20  O   UNL     1      -0.197   9.678  18.425  0.00  0.00    +0.000 OA
ATOM     21  O   UNL     1       2.073  10.689  18.055  0.00  0.00    +0.000 OA
BRANCH  19  22
ATOM     22  N   UNL     1       0.938  10.975  20.342  0.00  0.00    +0.000 NA
BRANCH  22  23
ATOM     23  C   UNL     1       0.853  12.496  19.937  0.00  0.00    +0.000 C 
ATOM     24  C   UNL     1      -0.014  12.758  18.695  0.00  0.00    +0.000 C 
BRANCH  23  26
ATOM     25  C   UNL     1       2.162  14.595  19.081  0.00  0.00    +0.000 C 
ATOM     26  C   UNL     1       2.207  13.221  19.738  0.00  0.00    +0.000 C 
ENDBRANCH  23  26
ENDBRANCH  22  23
BRANCH  22  27
ATOM     27  C   UNL     1      -0.179  10.598  21.324  0.00  0.00    +0.000 C 
ATOM     28  C   UNL     1       0.249   9.544  22.351  0.00  0.00    +0.000 C 
BRANCH  27  29
ATOM     29  C   UNL     1      -0.852  11.768  22.069  0.00  0.00    +0.000 C 
ATOM     30  C   UNL     1      -1.756  11.407  23.234  0.00  0.00    +0.000 C 
ENDBRANCH  27  29
ENDBRANCH  22  27
ENDBRANCH  19  22
ENDBRANCH   1  19
TORSDOF 9
ENDMDL
MODEL 6
REMARK VINA RESULT:      -6.3      1.773      4.141
REMARK  Name = 
REMARK  17 active torsions:
REMARK  status: ('A' for Active; 'I' for Inactive)
REMARK    1  A    between atoms: C_1  and  C_2
REMARK    2  A    between atoms: C_2  and  C_3
REMARK    3  A    between atoms: C_3  and  C_4
REMARK    4  A    between atoms: C_3  and  N_5
REMARK    5  A    between atoms: N_5  and  C_6
REMARK    6  A    between atoms: N_5  and  S_10
REMARK    7  A    between atoms: C_6  and  C_7
REMARK    8  A    between atoms: C_6  and  C_8
REMARK    9  A    between atoms: C_8  and  C_9
REMARK   10  A    between atoms: S_10  and  N_13
REMARK   11  A    between atoms: N_16  and  C_17
REMARK   12  A    between atoms: C_18  and  C_19
REMARK   13  A    between atoms: C_19  and  C_20
REMARK   14  A    between atoms: C_19  and  C_21
REMARK   15  A    between atoms: C_25  and  C_26
REMARK   16  A    between atoms: C_26  and  C_27
REMARK   17  A    between atoms: C_26  and  C_28
REMARK                            x       y       z     vdW  Elec       q    Type
REMARK                         _______ _______ _______ _____ _____    ______ ____
ROOT
ATOM      1  N   UNL     1       2.100   7.912  20.936  0.00  0.00    +0.000 N 
ATOM      2  C   UNL     1       2.175   6.965  19.920  0.00  0.00    +0.000 C 
ATOM      3  O   UNL     1       1.308   6.780  19.079  0.00  0.00    +0.000 OA
ATOM      4  N   UNL     1       3.323   6.184  20.022  0.00  0.00    +0.000 N 
ATOM      5  H   UNL     1       2.970   8.271  21.305  0.00  0.00    +0.000 HD
ATOM      6  H   UNL     1       3.642   6.073  20.969  0.00  0.00    +0.000 HD
ENDROOT
BRANCH   4   7
ATOM      7  C   UNL     1       3.513   5.079  19.157  0.00  0.00    +0.000 A 
ATOM      8  C   UNL     1       2.869   3.855  19.471  0.00  0.00    +0.000 A 
ATOM      9  C   UNL     1       3.115   2.737  18.647  0.00  0.00    +0.000 A 
ATOM     10  C   UNL     1       3.936   2.828  17.531  0.00  0.00    +0.000 A 
ATOM     11  C   UNL     1       4.526   4.041  17.206  0.00  0.00    +0.000 A 
ATOM     12  C   UNL     1       4.318   5.197  17.986  0.00  0.00    +0.000 A 
BRANCH   8  13
ATOM     13  C   UNL     1       1.911   3.610  20.638  0.00  0.00    +0.000 C 
ATOM     14  C   UNL     1       0.512   3.222  20.157  0.00  0.00    +0.000 C 
ATOM     15  C   UNL     1       2.407   2.664  21.734  0.00  0.00    +0.000 C 
ENDBRANCH   8  13
BRANCH  12  16
ATOM     16  C   UNL     1       5.045   6.479  17.569  0.00  0.00    +0.000 C 
ATOM     17  C   UNL     1       6.543   6.381  17.879  0.00  0.00    +0.000 C 
ATOM     18  C   UNL     1       4.888   6.833  16.075  0.00  0.00    +0.000 C 
ENDBRANCH  12  16
ENDBRANCH   4   7
BRANCH   1  19
ATOM     19  S   UNL     1       0.908   9.064  21.070  0.00  0.00    +0.000 S 
ATOM     20  O   UNL     1       1.305  10.157  21.921  0.00  0.00    +0.000 OA
ATOM     21  O   UNL     1      -0.276   8.285  21.365  0.00  0.00    +0.000 OA
BRANCH  19  22
ATOM     22  N   UNL     1       0.695   9.707  19.457  0.00  0.00    +0.000 NA
BRANCH  22  23
ATOM     23  C   UNL     1      -0.588  10.622  19.424  0.00  0.00    +0.000 C 
ATOM     24  C   UNL     1      -1.039  11.107  20.811  0.00  0.00    +0.000 C 
BRANCH  23  26
ATOM     25  C   UNL     1      -1.831  10.119  17.175  0.00  0.00    +0.000 C 
ATOM     26  C   UNL     1      -1.822  10.033  18.697  0.00  0.00    +0.000 C 
ENDBRANCH  23  26
ENDBRANCH  22  23
BRANCH  22  27
ATOM     27  C   UNL     1       1.893  10.404  18.799  0.00  0.00    +0.000 C 
ATOM     28  C   UNL     1       2.394   9.686  17.542  0.00  0.00    +0.000 C 
BRANCH  27  29
ATOM     29  C   UNL     1       1.713  11.900  18.474  0.00  0.00    +0.000 C 
ATOM     30  C   UNL     1       2.178  12.889  19.527  0.00  0.00    +0.000 C 
ENDBRANCH  27  29
ENDBRANCH  22  27
ENDBRANCH  19  22
ENDBRANCH   1  19
TORSDOF 9
ENDMDL
MODEL 7
REMARK VINA RESULT:      -6.2      1.717      4.125
REMARK  Name = 
REMARK  17 active torsions:
REMARK  status: ('A' for Active; 'I' for Inactive)
REMARK    1  A    between atoms: C_1  and  C_2
REMARK    2  A    between atoms: C_2  and  C_3
REMARK    3  A    between atoms: C_3  and  C_4
REMARK    4  A    between atoms: C_3  and  N_5
REMARK    5  A    between atoms: N_5  and  C_6
REMARK    6  A    between atoms: N_5  and  S_10
REMARK    7  A    between atoms: C_6  and  C_7
REMARK    8  A    between atoms: C_6  and  C_8
REMARK    9  A    between atoms: C_8  and  C_9
REMARK   10  A    between atoms: S_10  and  N_13
REMARK   11  A    between atoms: N_16  and  C_17
REMARK   12  A    between atoms: C_18  and  C_19
REMARK   13  A    between atoms: C_19  and  C_20
REMARK   14  A    between atoms: C_19  and  C_21
REMARK   15  A    between atoms: C_25  and  C_26
REMARK   16  A    between atoms: C_26  and  C_27
REMARK   17  A    between atoms: C_26  and  C_28
REMARK                            x       y       z     vdW  Elec       q    Type
REMARK                         _______ _______ _______ _____ _____    ______ ____
ROOT
ATOM      1  N   UNL     1       2.035   7.771  21.026  0.00  0.00    +0.000 N 
ATOM      2  C   UNL     1       2.136   6.889  19.955  0.00  0.00    +0.000 C 
ATOM      3  O   UNL     1       1.309   6.786  19.061  0.00  0.00    +0.000 OA
ATOM      4  N   UNL     1       3.253   6.067  20.065  0.00  0.00    +0.000 N 
ATOM      5  H   UNL     1       2.894   8.078  21.461  0.00  0.00    +0.000 HD
ATOM      6  H   UNL     1       3.519   5.885  21.017  0.00  0.00    +0.000 HD
ENDROOT
BRANCH   4   7
ATOM      7  C   UNL     1       3.457   5.013  19.139  0.00  0.00    +0.000 A 
ATOM      8  C   UNL     1       2.795   3.779  19.364  0.00  0.00    +0.000 A 
ATOM      9  C   UNL     1       3.053   2.710  18.480  0.00  0.00    +0.000 A 
ATOM     10  C   UNL     1       3.904   2.859  17.393  0.00  0.00    +0.000 A 
ATOM     11  C   UNL     1       4.512   4.084  17.156  0.00  0.00    +0.000 A 
ATOM     12  C   UNL     1       4.293   5.193  17.998  0.00  0.00    +0.000 A 
BRANCH   8  13
ATOM     13  C   UNL     1       1.805   3.474  20.488  0.00  0.00    +0.000 C 
ATOM     14  C   UNL     1       0.509   2.857  19.959  0.00  0.00    +0.000 C 
ATOM     15  C   UNL     1       2.354   2.683  21.678  0.00  0.00    +0.000 C 
ENDBRANCH   8  13
BRANCH  12  16
ATOM     16  C   UNL     1       5.041   6.490  17.678  0.00  0.00    +0.000 C 
ATOM     17  C   UNL     1       6.544   6.331  17.939  0.00  0.00    +0.000 C 
ATOM     18  C   UNL     1       4.857   6.980  16.226  0.00  0.00    +0.000 C 
ENDBRANCH  12  16
ENDBRANCH   4   7
BRANCH   1  19
ATOM     19  S   UNL     1       0.871   8.950  21.174  0.00  0.00    +0.000 S 
ATOM     20  O   UNL     1       1.318  10.051  21.989  0.00  0.00    +0.000 OA
ATOM     21  O   UNL     1      -0.318   8.202  21.522  0.00  0.00    +0.000 OA
BRANCH  19  22
ATOM     22  N   UNL     1       0.619   9.566  19.556  0.00  0.00    +0.000 NA
BRANCH  22  23
ATOM     23  C   UNL     1      -0.822  10.195  19.454  0.00  0.00    +0.000 C 
ATOM     24  C   UNL     1      -1.346  10.311  18.014  0.00  0.00    +0.000 C 
BRANCH  23  26
ATOM     25  C   UNL     1      -2.346  12.271  19.922  0.00  0.00    +0.000 C 
ATOM     26  C   UNL     1      -1.013  11.568  20.146  0.00  0.00    +0.000 C 
ENDBRANCH  23  26
ENDBRANCH  22  23
BRANCH  22  27
ATOM     27  C   UNL     1       1.681  10.509  18.974  0.00  0.00    +0.000 C 
ATOM     28  C   UNL     1       2.282  10.004  17.658  0.00  0.00    +0.000 C 
BRANCH  27  29
ATOM     29  C   UNL     1       1.255  11.979  18.790  0.00  0.00    +0.000 C 
ATOM     30  C   UNL     1       2.280  12.916  18.177  0.00  0.00    +0.000 C 
ENDBRANCH  27  29
ENDBRANCH  22  27
ENDBRANCH  19  22
ENDBRANCH   1  19
TORSDOF 9
ENDMDL
MODEL 8
REMARK VINA RESULT:      -6.2      1.346      3.965
REMARK  Name = 
REMARK  17 active torsions:
REMARK  status: ('A' for Active; 'I' for Inactive)
REMARK    1  A    between atoms: C_1  and  C_2
REMARK    2  A    between atoms: C_2  and  C_3
REMARK    3  A    between atoms: C_3  and  C_4
REMARK    4  A    between atoms: C_3  and  N_5
REMARK    5  A    between atoms: N_5  and  C_6
REMARK    6  A    between atoms: N_5  and  S_10
REMARK    7  A    between atoms: C_6  and  C_7
REMARK    8  A    between atoms: C_6  and  C_8
REMARK    9  A    between atoms: C_8  and  C_9
REMARK   10  A    between atoms: S_10  and  N_13
REMARK   11  A    between atoms: N_16  and  C_17
REMARK   12  A    between atoms: C_18  and  C_19
REMARK   13  A    between atoms: C_19  and  C_20
REMARK   14  A    between atoms: C_19  and  C_21
REMARK   15  A    between atoms: C_25  and  C_26
REMARK   16  A    between atoms: C_26  and  C_27
REMARK   17  A    between atoms: C_26  and  C_28
REMARK                            x       y       z     vdW  Elec       q    Type
REMARK                         _______ _______ _______ _____ _____    ______ ____
ROOT
ATOM      1  N   UNL     1       2.011   8.798  19.417  0.00  0.00    +0.000 N 
ATOM      2  C   UNL     1       2.298   7.716  18.591  0.00  0.00    +0.000 C 
ATOM      3  O   UNL     1       1.828   7.553  17.475  0.00  0.00    +0.000 OA
ATOM      4  N   UNL     1       3.121   6.787  19.221  0.00  0.00    +0.000 N 
ATOM      5  H   UNL     1       2.710   9.065  20.098  0.00  0.00    +0.000 HD
ATOM      6  H   UNL     1       2.999   6.762  20.219  0.00  0.00    +0.000 HD
ENDROOT
BRANCH   4   7
ATOM      7  C   UNL     1       3.417   5.554  18.589  0.00  0.00    +0.000 A 
ATOM      8  C   UNL     1       2.752   4.385  19.043  0.00  0.00    +0.000 A 
ATOM      9  C   UNL     1       3.099   3.148  18.460  0.00  0.00    +0.000 A 
ATOM     10  C   UNL     1       4.039   3.066  17.442  0.00  0.00    +0.000 A 
ATOM     11  C   UNL     1       4.651   4.221  16.974  0.00  0.00    +0.000 A 
ATOM     12  C   UNL     1       4.346   5.489  17.510  0.00  0.00    +0.000 A 
BRANCH   8  13
ATOM     13  C   UNL     1       1.671   4.320  20.123  0.00  0.00    +0.000 C 
ATOM     14  C   UNL     1       0.615   3.259  19.812  0.00  0.00    +0.000 C 
ATOM     15  C   UNL     1       2.165   4.211  21.568  0.00  0.00    +0.000 C 
ENDBRANCH   8  13
BRANCH  12  16
ATOM     16  C   UNL     1       5.104   6.698  16.956  0.00  0.00    +0.000 C 
ATOM     17  C   UNL     1       6.559   6.699  17.440  0.00  0.00    +0.000 C 
ATOM     18  C   UNL     1       5.113   6.782  15.414  0.00  0.00    +0.000 C 
ENDBRANCH  12  16
ENDBRANCH   4   7
BRANCH   1  19
ATOM     19  S   UNL     1       1.129  10.131  18.960  0.00  0.00    +0.000 S 
ATOM     20  O   UNL     1       0.914  10.175  17.535  0.00  0.00    +0.000 OA
ATOM     21  O   UNL     1       1.792  11.220  19.644  0.00  0.00    +0.000 OA
BRANCH  19  22
ATOM     22  N   UNL     1      -0.436   9.941  19.719  0.00  0.00    +0.000 NA
BRANCH  22  23
ATOM     23  C   UNL     1      -0.301  10.199  21.268  0.00  0.00    +0.000 C 
ATOM     24  C   UNL     1      -0.448   8.930  22.122  0.00  0.00    +0.000 C 
BRANCH  23  26
ATOM     25  C   UNL     1      -0.584  12.601  22.271  0.00  0.00    +0.000 C 
ATOM     26  C   UNL     1      -1.234  11.286  21.858  0.00  0.00    +0.000 C 
ENDBRANCH  23  26
ENDBRANCH  22  23
BRANCH  22  27
ATOM     27  C   UNL     1      -1.620  10.716  19.127  0.00  0.00    +0.000 C 
ATOM     28  C   UNL     1      -1.231  12.098  18.592  0.00  0.00    +0.000 C 
BRANCH  27  29
ATOM     29  C   UNL     1      -2.440   9.982  18.047  0.00  0.00    +0.000 C 
ATOM     30  C   UNL     1      -2.489  10.624  16.673  0.00  0.00    +0.000 C 
ENDBRANCH  27  29
ENDBRANCH  22  27
ENDBRANCH  19  22
ENDBRANCH   1  19
TORSDOF 9
ENDMDL
MODEL 9
REMARK VINA RESULT:      -6.2      1.854      2.164
REMARK  Name = 
REMARK  17 active torsions:
REMARK  status: ('A' for Active; 'I' for Inactive)
REMARK    1  A    between atoms: C_1  and  C_2
REMARK    2  A    between atoms: C_2  and  C_3
REMARK    3  A    between atoms: C_3  and  C_4
REMARK    4  A    between atoms: C_3  and  N_5
REMARK    5  A    between atoms: N_5  and  C_6
REMARK    6  A    between atoms: N_5  and  S_10
REMARK    7  A    between atoms: C_6  and  C_7
REMARK    8  A    between atoms: C_6  and  C_8
REMARK    9  A    between atoms: C_8  and  C_9
REMARK   10  A    between atoms: S_10  and  N_13
REMARK   11  A    between atoms: N_16  and  C_17
REMARK   12  A    between atoms: C_18  and  C_19
REMARK   13  A    between atoms: C_19  and  C_20
REMARK   14  A    between atoms: C_19  and  C_21
REMARK   15  A    between atoms: C_25  and  C_26
REMARK   16  A    between atoms: C_26  and  C_27
REMARK   17  A    between atoms: C_26  and  C_28
REMARK                            x       y       z     vdW  Elec       q    Type
REMARK                         _______ _______ _______ _____ _____    ______ ____
ROOT
ATOM      1  N   UNL     1       1.402   7.997  19.971  0.00  0.00    +0.000 N 
ATOM      2  C   UNL     1       2.048   6.765  19.948  0.00  0.00    +0.000 C 
ATOM      3  O   UNL     1       2.447   6.174  20.940  0.00  0.00    +0.000 OA
ATOM      4  N   UNL     1       2.270   6.321  18.648  0.00  0.00    +0.000 N 
ATOM      5  H   UNL     1       0.771   8.208  19.209  0.00  0.00    +0.000 HD
ATOM      6  H   UNL     1       2.386   7.070  17.988  0.00  0.00    +0.000 HD
ENDROOT
BRANCH   4   7
ATOM      7  C   UNL     1       3.033   5.149  18.416  0.00  0.00    +0.000 A 
ATOM      8  C   UNL     1       4.302   5.281  17.797  0.00  0.00    +0.000 A 
ATOM      9  C   UNL     1       5.030   4.108  17.504  0.00  0.00    +0.000 A 
ATOM     10  C   UNL     1       4.543   2.852  17.841  0.00  0.00    +0.000 A 
ATOM     11  C   UNL     1       3.320   2.736  18.488  0.00  0.00    +0.000 A 
ATOM     12  C   UNL     1       2.546   3.869  18.813  0.00  0.00    +0.000 A 
BRANCH   8  13
ATOM     13  C   UNL     1       4.986   6.591  17.402  0.00  0.00    +0.000 C 
ATOM     14  C   UNL     1       6.459   6.612  17.811  0.00  0.00    +0.000 C 
ATOM     15  C   UNL     1       4.801   7.040  15.951  0.00  0.00    +0.000 C 
ENDBRANCH   8  13
BRANCH  12  16
ATOM     16  C   UNL     1       1.192   3.636  19.489  0.00  0.00    +0.000 C 
ATOM     17  C   UNL     1       0.383   2.572  18.738  0.00  0.00    +0.000 C 
ATOM     18  C   UNL     1       1.294   3.205  20.968  0.00  0.00    +0.000 C 
ENDBRANCH  12  16
ENDBRANCH   4   7
BRANCH   1  19
ATOM     19  S   UNL     1       0.906   8.781  21.351  0.00  0.00    +0.000 S 
ATOM     20  O   UNL     1       1.967   8.895  22.319  0.00  0.00    +0.000 OA
ATOM     21  O   UNL     1      -0.335   8.115  21.684  0.00  0.00    +0.000 OA
BRANCH  19  22
ATOM     22  N   UNL     1       0.484  10.401  20.844  0.00  0.00    +0.000 NA
BRANCH  22  23
ATOM     23  C   UNL     1       0.227  10.413  19.289  0.00  0.00    +0.000 C 
ATOM     24  C   UNL     1       0.930  11.565  18.554  0.00  0.00    +0.000 C 
BRANCH  23  26
ATOM     25  C   UNL     1      -1.539  10.038  17.393  0.00  0.00    +0.000 C 
ATOM     26  C   UNL     1      -1.258  10.397  18.847  0.00  0.00    +0.000 C 
ENDBRANCH  23  26
ENDBRANCH  22  23
BRANCH  22  27
ATOM     27  C   UNL     1      -0.642  11.119  21.599  0.00  0.00    +0.000 C 
ATOM     28  C   UNL     1      -0.849  10.590  23.022  0.00  0.00    +0.000 C 
BRANCH  27  29
ATOM     29  C   UNL     1      -0.550  12.657  21.653  0.00  0.00    +0.000 C 
ATOM     30  C   UNL     1      -1.062  13.328  22.915  0.00  0.00    +0.000 C 
ENDBRANCH  27  29
ENDBRANCH  22  27
ENDBRANCH  19  22
ENDBRANCH   1  19
TORSDOF 9
ENDMDL
