MODEL 1
REMARK VINA RESULT:      -8.7      0.000      0.000
REMARK  Name = 
REMARK  4 active torsions:
REMARK  status: ('A' for Active; 'I' for Inactive)
REMARK    1  A    between atoms: C_4  and  C_5
REMARK    2  A    between atoms: C_15  and  C_16
REMARK    3  A    between atoms: C_16  and  N_17
REMARK    4  A    between atoms: N_27  and  C_28
REMARK                            x       y       z     vdW  Elec       q    Type
REMARK                         _______ _______ _______ _____ _____    ______ ____
ROOT
ATOM      1  C   UNL     1       2.927   6.419  18.391  0.00  0.00    +0.000 A 
ATOM      2  C   UNL     1       2.754   7.665  17.817  0.00  0.00    +0.000 A 
ATOM      3  C   UNL     1       2.028   8.466  18.721  0.00  0.00    +0.000 A 
ATOM      4  C   UNL     1       1.581   9.774  18.737  0.00  0.00    +0.000 A 
ATOM      5  N   UNL     1       0.924  10.239  19.814  0.00  0.00    +0.000 NA
ATOM      6  C   UNL     1       0.701   9.430  20.867  0.00  0.00    +0.000 A 
ATOM      7  N   UNL     1       0.025   9.945  21.975  0.00  0.00    +0.000 N 
ATOM      8  C   UNL     1      -0.718  11.111  22.158  0.00  0.00    +0.000 A 
ATOM      9  C   UNL     1      -0.655  12.221  21.317  0.00  0.00    +0.000 A 
ATOM     10  C   UNL     1      -1.541  13.293  21.484  0.00  0.00    +0.000 A 
ATOM     11  C   UNL     1      -2.470  13.269  22.519  0.00  0.00    +0.000 A 
ATOM     12  C   UNL     1      -2.406  12.170  23.369  0.00  0.00    +0.000 A 
ATOM     13  N   UNL     1      -1.564  11.111  23.213  0.00  0.00    +0.000 NA
ATOM     14  N   UNL     1       1.078   8.135  20.932  0.00  0.00    +0.000 NA
ATOM     15  C   UNL     1       1.740   7.699  19.838  0.00  0.00    +0.000 A 
ATOM     16  N   UNL     1       2.256   6.428  19.614  0.00  0.00    +0.000 N 
ATOM     17  H   UNL     1      -0.187   9.243  22.664  0.00  0.00    +0.000 HD
ENDROOT
BRANCH   1  21
ATOM     18  C   UNL     1       4.175   3.396  16.992  0.00  0.00    +0.000 A 
ATOM     19  N   UNL     1       5.344   3.980  17.096  0.00  0.00    +0.000 NA
ATOM     20  C   UNL     1       5.034   5.203  17.634  0.00  0.00    +0.000 A 
ATOM     21  C   UNL     1       3.668   5.329  17.828  0.00  0.00    +0.000 A 
ATOM     22  O   UNL     1       3.119   4.138  17.417  0.00  0.00    +0.000 OA
ENDBRANCH   1  21
BRANCH  16  23
ATOM     23  C   UNL     1       2.100   5.291  20.501  0.00  0.00    +0.000 C 
ATOM     24  C   UNL     1       0.929   4.366  20.185  0.00  0.00    +0.000 C 
ATOM     25  C   UNL     1       1.206   3.143  21.053  0.00  0.00    +0.000 C 
ATOM     26  C   UNL     1       2.726   3.066  21.201  0.00  0.00    +0.000 C 
ATOM     27  C   UNL     1       3.300   4.345  20.596  0.00  0.00    +0.000 C 
ENDBRANCH  16  23
BRANCH  11  28
ATOM     28  C   UNL     1      -3.562  14.309  22.650  0.00  0.00    +0.000 C 
BRANCH  28  29
ATOM     29  N   UNL     1      -4.246  14.280  23.947  0.00  0.00    +0.000 NA
ATOM     30  C   UNL     1      -3.637  15.181  24.944  0.00  0.00    +0.000 C 
ATOM     31  C   UNL     1      -3.961  16.684  24.773  0.00  0.00    +0.000 C 
ATOM     32  N   UNL     1      -5.391  16.992  24.607  0.00  0.00    +0.000 NA
ATOM     33  C   UNL     1      -6.055  16.080  23.677  0.00  0.00    +0.000 C 
ATOM     34  C   UNL     1      -5.686  14.589  23.845  0.00  0.00    +0.000 C 
ATOM     35  H   UNL     1      -5.492  17.953  24.279  0.00  0.00    +0.000 HD
ENDBRANCH  28  29
ENDBRANCH  11  28
TORSDOF 4
ENDMDL
MODEL 2
REMARK VINA RESULT:      -8.7      1.175      1.554
REMARK  Name = 
REMARK  4 active torsions:
REMARK  status: ('A' for Active; 'I' for Inactive)
REMARK    1  A    between atoms: C_4  and  C_5
REMARK    2  A    between atoms: C_15  and  C_16
REMARK    3  A    between atoms: C_16  and  N_17
REMARK    4  A    between atoms: N_27  and  C_28
REMARK                            x       y       z     vdW  Elec       q    Type
REMARK                         _______ _______ _______ _____ _____    ______ ____
ROOT
ATOM      1  C   UNL     1       2.938   6.416  18.381  0.00  0.00    +0.000 A 
ATOM      2  C   UNL     1       2.743   7.667  17.822  0.00  0.00    +0.000 A 
ATOM      3  C   UNL     1       2.007   8.445  18.737  0.00  0.00    +0.000 A 
ATOM      4  C   UNL     1       1.539   9.745  18.770  0.00  0.00    +0.000 A 
ATOM      5  N   UNL     1       0.877  10.186  19.853  0.00  0.00    +0.000 NA
ATOM      6  C   UNL     1       0.667   9.361  20.896  0.00  0.00    +0.000 A 
ATOM      7  N   UNL     1      -0.014   9.851  22.012  0.00  0.00    +0.000 N 
ATOM      8  C   UNL     1      -0.776  11.003  22.211  0.00  0.00    +0.000 A 
ATOM      9  C   UNL     1      -0.732  12.123  21.383  0.00  0.00    +0.000 A 
ATOM     10  C   UNL     1      -1.635  13.179  21.565  0.00  0.00    +0.000 A 
ATOM     11  C   UNL     1      -2.561  13.127  22.602  0.00  0.00    +0.000 A 
ATOM     12  C   UNL     1      -2.479  12.019  23.437  0.00  0.00    +0.000 A 
ATOM     13  N   UNL     1      -1.620  10.975  23.266  0.00  0.00    +0.000 NA
ATOM     14  N   UNL     1       1.065   8.071  20.945  0.00  0.00    +0.000 NA
ATOM     15  C   UNL     1       1.732   7.659  19.844  0.00  0.00    +0.000 A 
ATOM     16  N   UNL     1       2.268   6.400  19.604  0.00  0.00    +0.000 N 
ATOM     17  H   UNL     1      -0.215   9.136  22.692  0.00  0.00    +0.000 HD
ENDROOT
BRANCH   1  21
ATOM     18  C   UNL     1       4.227   3.439  16.925  0.00  0.00    +0.000 A 
ATOM     19  N   UNL     1       5.392   4.025  17.068  0.00  0.00    +0.000 NA
ATOM     20  C   UNL     1       5.065   5.230  17.633  0.00  0.00    +0.000 A 
ATOM     21  C   UNL     1       3.694   5.345  17.803  0.00  0.00    +0.000 A 
ATOM     22  O   UNL     1       3.160   4.164  17.348  0.00  0.00    +0.000 OA
ENDBRANCH   1  21
BRANCH  16  23
ATOM     23  C   UNL     1       2.131   5.249  20.477  0.00  0.00    +0.000 C 
ATOM     24  C   UNL     1       0.971   4.313  20.154  0.00  0.00    +0.000 C 
ATOM     25  C   UNL     1       1.268   3.082  21.005  0.00  0.00    +0.000 C 
ATOM     26  C   UNL     1       2.790   3.024  21.144  0.00  0.00    +0.000 C 
ATOM     27  C   UNL     1       3.344   4.317  20.553  0.00  0.00    +0.000 C 
ENDBRANCH  16  23
BRANCH  11  28
ATOM     28  C   UNL     1      -3.670  14.148  22.746  0.00  0.00    +0.000 C 
BRANCH  28  29
ATOM     29  N   UNL     1      -4.555  14.220  21.579  0.00  0.00    +0.000 NA
ATOM     30  C   UNL     1      -5.361  12.999  21.386  0.00  0.00    +0.000 C 
ATOM     31  C   UNL     1      -6.574  12.841  22.333  0.00  0.00    +0.000 C 
ATOM     32  N   UNL     1      -7.446  14.024  22.422  0.00  0.00    +0.000 NA
ATOM     33  C   UNL     1      -6.688  15.268  22.546  0.00  0.00    +0.000 C 
ATOM     34  C   UNL     1      -5.461  15.384  21.615  0.00  0.00    +0.000 C 
ATOM     35  H   UNL     1      -8.072  13.920  23.221  0.00  0.00    +0.000 HD
ENDBRANCH  28  29
ENDBRANCH  11  28
TORSDOF 4
ENDMDL
MODEL 3
REMARK VINA RESULT:      -8.6      0.914      1.113
REMARK  Name = 
REMARK  4 active torsions:
REMARK  status: ('A' for Active; 'I' for Inactive)
REMARK    1  A    between atoms: C_4  and  C_5
REMARK    2  A    between atoms: C_15  and  C_16
REMARK    3  A    between atoms: C_16  and  N_17
REMARK    4  A    between atoms: N_27  and  C_28
REMARK                            x       y       z     vdW  Elec       q    Type
REMARK                         _______ _______ _______ _____ _____    ______ ____
ROOT
ATOM      1  C   UNL     1       3.491   6.162  17.703  0.00  0.00    +0.000 A 
ATOM      2  C   UNL     1       3.344   7.468  17.271  0.00  0.00    +0.000 A 
ATOM      3  C   UNL     1       2.607   8.170  18.246  0.00  0.00    +0.000 A 
ATOM      4  C   UNL     1       2.174   9.473  18.401  0.00  0.00    +0.000 A 
ATOM      5  N   UNL     1       1.498   9.821  19.510  0.00  0.00    +0.000 NA
ATOM      6  C   UNL     1       1.242   8.900  20.459  0.00  0.00    +0.000 A 
ATOM      7  N   UNL     1       0.547   9.295  21.604  0.00  0.00    +0.000 N 
ATOM      8  C   UNL     1      -0.187  10.442  21.904  0.00  0.00    +0.000 A 
ATOM      9  C   UNL     1      -0.094  11.639  21.196  0.00  0.00    +0.000 A 
ATOM     10  C   UNL     1      -0.972  12.697  21.466  0.00  0.00    +0.000 A 
ATOM     11  C   UNL     1      -1.924  12.567  22.472  0.00  0.00    +0.000 A 
ATOM     12  C   UNL     1      -1.891  11.378  23.192  0.00  0.00    +0.000 A 
ATOM     13  N   UNL     1      -1.057  10.332  22.933  0.00  0.00    +0.000 NA
ATOM     14  N   UNL     1       1.603   7.601  20.384  0.00  0.00    +0.000 NA
ATOM     15  C   UNL     1       2.285   7.285  19.260  0.00  0.00    +0.000 A 
ATOM     16  N   UNL     1       2.792   6.041  18.904  0.00  0.00    +0.000 N 
ATOM     17  H   UNL     1       0.312   8.521  22.203  0.00  0.00    +0.000 HD
ENDROOT
BRANCH   1  21
ATOM     18  C   UNL     1       4.815   3.217  16.213  0.00  0.00    +0.000 A 
ATOM     19  N   UNL     1       5.869   3.962  15.978  0.00  0.00    +0.000 NA
ATOM     20  C   UNL     1       5.512   5.177  16.504  0.00  0.00    +0.000 A 
ATOM     21  C   UNL     1       4.232   5.134  17.034  0.00  0.00    +0.000 A 
ATOM     22  O   UNL     1       3.793   3.845  16.849  0.00  0.00    +0.000 OA
ENDBRANCH   1  21
BRANCH  16  23
ATOM     23  C   UNL     1       2.604   4.812  19.651  0.00  0.00    +0.000 C 
ATOM     24  C   UNL     1       2.526   4.969  21.166  0.00  0.00    +0.000 C 
ATOM     25  C   UNL     1       2.025   3.607  21.634  0.00  0.00    +0.000 C 
ATOM     26  C   UNL     1       1.175   3.055  20.489  0.00  0.00    +0.000 C 
ATOM     27  C   UNL     1       1.355   3.998  19.302  0.00  0.00    +0.000 C 
ENDBRANCH  16  23
BRANCH  11  28
ATOM     28  C   UNL     1      -3.008  13.599  22.698  0.00  0.00    +0.000 C 
BRANCH  28  29
ATOM     29  N   UNL     1      -3.642  13.504  24.017  0.00  0.00    +0.000 NA
ATOM     30  C   UNL     1      -3.300  14.629  24.908  0.00  0.00    +0.000 C 
ATOM     31  C   UNL     1      -4.035  15.959  24.618  0.00  0.00    +0.000 C 
ATOM     32  N   UNL     1      -5.495  15.839  24.478  0.00  0.00    +0.000 NA
ATOM     33  C   UNL     1      -5.886  14.695  23.657  0.00  0.00    +0.000 C 
ATOM     34  C   UNL     1      -5.112  13.389  23.941  0.00  0.00    +0.000 C 
ATOM     35  H   UNL     1      -5.865  16.699  24.071  0.00  0.00    +0.000 HD
ENDBRANCH  28  29
ENDBRANCH  11  28
TORSDOF 4
ENDMDL
MODEL 4
REMARK VINA RESULT:      -8.6      0.679      1.075
REMARK  Name = 
REMARK  4 active torsions:
REMARK  status: ('A' for Active; 'I' for Inactive)
REMARK    1  A    between atoms: C_4  and  C_5
REMARK    2  A    between atoms: C_15  and  C_16
REMARK    3  A    between atoms: C_16  and  N_17
REMARK    4  A    between atoms: N_27  and  C_28
REMARK                            x       y       z     vdW  Elec       q    Type
REMARK                         _______ _______ _______ _____ _____    ______ ____
ROOT
ATOM      1  C   UNL     1       3.015   6.364  18.297  0.00  0.00    +0.000 A 
ATOM      2  C   UNL     1       2.824   7.611  17.729  0.00  0.00    +0.000 A 
ATOM      3  C   UNL     1       2.081   8.395  18.634  0.00  0.00    +0.000 A 
ATOM      4  C   UNL     1       1.613   9.695  18.654  0.00  0.00    +0.000 A 
ATOM      5  N   UNL     1       0.943  10.143  19.730  0.00  0.00    +0.000 NA
ATOM      6  C   UNL     1       0.726   9.325  20.777  0.00  0.00    +0.000 A 
ATOM      7  N   UNL     1       0.037   9.823  21.884  0.00  0.00    +0.000 N 
ATOM      8  C   UNL     1      -0.726  10.976  22.070  0.00  0.00    +0.000 A 
ATOM      9  C   UNL     1      -0.677  12.091  21.235  0.00  0.00    +0.000 A 
ATOM     10  C   UNL     1      -1.581  13.148  21.403  0.00  0.00    +0.000 A 
ATOM     11  C   UNL     1      -2.515  13.103  22.434  0.00  0.00    +0.000 A 
ATOM     12  C   UNL     1      -2.438  12.000  23.277  0.00  0.00    +0.000 A 
ATOM     13  N   UNL     1      -1.578  10.955  23.120  0.00  0.00    +0.000 NA
ATOM     14  N   UNL     1       1.124   8.036  20.838  0.00  0.00    +0.000 NA
ATOM     15  C   UNL     1       1.799   7.617  19.744  0.00  0.00    +0.000 A 
ATOM     16  N   UNL     1       2.337   6.356  19.516  0.00  0.00    +0.000 N 
ATOM     17  H   UNL     1      -0.168   9.113  22.568  0.00  0.00    +0.000 HD
ENDROOT
BRANCH   1  21
ATOM     18  C   UNL     1       4.315   3.378  16.870  0.00  0.00    +0.000 A 
ATOM     19  N   UNL     1       5.479   3.964  17.019  0.00  0.00    +0.000 NA
ATOM     20  C   UNL     1       5.148   5.173  17.574  0.00  0.00    +0.000 A 
ATOM     21  C   UNL     1       3.776   5.290  17.732  0.00  0.00    +0.000 A 
ATOM     22  O   UNL     1       3.244   4.105  17.280  0.00  0.00    +0.000 OA
ENDBRANCH   1  21
BRANCH  16  23
ATOM     23  C   UNL     1       2.194   5.211  20.396  0.00  0.00    +0.000 C 
ATOM     24  C   UNL     1       1.013   4.294  20.095  0.00  0.00    +0.000 C 
ATOM     25  C   UNL     1       1.302   3.062  20.946  0.00  0.00    +0.000 C 
ATOM     26  C   UNL     1       2.825   2.977  21.062  0.00  0.00    +0.000 C 
ATOM     27  C   UNL     1       3.392   4.259  20.457  0.00  0.00    +0.000 C 
ENDBRANCH  16  23
BRANCH  11  28
ATOM     28  C   UNL     1      -3.625  14.124  22.564  0.00  0.00    +0.000 C 
BRANCH  28  29
ATOM     29  N   UNL     1      -3.139  15.493  22.770  0.00  0.00    +0.000 NA
ATOM     30  C   UNL     1      -4.215  16.501  22.731  0.00  0.00    +0.000 C 
ATOM     31  C   UNL     1      -5.095  16.590  24.001  0.00  0.00    +0.000 C 
ATOM     32  N   UNL     1      -4.347  16.684  25.265  0.00  0.00    +0.000 NA
ATOM     33  C   UNL     1      -3.227  15.747  25.322  0.00  0.00    +0.000 C 
ATOM     34  C   UNL     1      -2.386  15.651  24.030  0.00  0.00    +0.000 C 
ATOM     35  H   UNL     1      -4.982  16.510  26.045  0.00  0.00    +0.000 HD
ENDBRANCH  28  29
ENDBRANCH  11  28
TORSDOF 4
ENDMDL
MODEL 5
REMARK VINA RESULT:      -8.5      1.351      1.642
REMARK  Name = 
REMARK  4 active torsions:
REMARK  status: ('A' for Active; 'I' for Inactive)
REMARK    1  A    between atoms: C_4  and  C_5
REMARK    2  A    between atoms: C_15  and  C_16
REMARK    3  A    between atoms: C_16  and  N_17
REMARK    4  A    between atoms: N_27  and  C_28
REMARK                            x       y       z     vdW  Elec       q    Type
REMARK                         _______ _______ _______ _____ _____    ______ ____
ROOT
ATOM      1  C   UNL     1       3.505   6.180  17.761  0.00  0.00    +0.000 A 
ATOM      2  C   UNL     1       3.301   7.479  17.335  0.00  0.00    +0.000 A 
ATOM      3  C   UNL     1       2.548   8.150  18.320  0.00  0.00    +0.000 A 
ATOM      4  C   UNL     1       2.065   9.434  18.484  0.00  0.00    +0.000 A 
ATOM      5  N   UNL     1       1.389   9.752  19.602  0.00  0.00    +0.000 NA
ATOM      6  C   UNL     1       1.182   8.820  20.551  0.00  0.00    +0.000 A 
ATOM      7  N   UNL     1       0.485   9.183  21.705  0.00  0.00    +0.000 N 
ATOM      8  C   UNL     1      -0.291  10.300  22.017  0.00  0.00    +0.000 A 
ATOM      9  C   UNL     1      -0.253  11.501  21.311  0.00  0.00    +0.000 A 
ATOM     10  C   UNL     1      -1.169  12.523  21.595  0.00  0.00    +0.000 A 
ATOM     11  C   UNL     1      -2.104  12.353  22.612  0.00  0.00    +0.000 A 
ATOM     12  C   UNL     1      -2.015  11.164  23.327  0.00  0.00    +0.000 A 
ATOM     13  N   UNL     1      -1.143  10.153  23.056  0.00  0.00    +0.000 NA
ATOM     14  N   UNL     1       1.594   7.536  20.468  0.00  0.00    +0.000 NA
ATOM     15  C   UNL     1       2.274   7.250  19.336  0.00  0.00    +0.000 A 
ATOM     16  N   UNL     1       2.826   6.028  18.970  0.00  0.00    +0.000 N 
ATOM     17  H   UNL     1       0.288   8.399  22.305  0.00  0.00    +0.000 HD
ENDROOT
BRANCH   1  21
ATOM     18  C   UNL     1       4.877   3.327  16.140  0.00  0.00    +0.000 A 
ATOM     19  N   UNL     1       5.981   4.034  16.108  0.00  0.00    +0.000 NA
ATOM     20  C   UNL     1       5.614   5.209  16.712  0.00  0.00    +0.000 A 
ATOM     21  C   UNL     1       4.279   5.183  17.081  0.00  0.00    +0.000 A 
ATOM     22  O   UNL     1       3.812   3.944  16.714  0.00  0.00    +0.000 OA
ENDBRANCH   1  21
BRANCH  16  23
ATOM     23  C   UNL     1       2.696   4.790  19.716  0.00  0.00    +0.000 C 
ATOM     24  C   UNL     1       2.530   4.947  21.224  0.00  0.00    +0.000 C 
ATOM     25  C   UNL     1       2.112   3.551  21.676  0.00  0.00    +0.000 C 
ATOM     26  C   UNL     1       1.366   2.931  20.494  0.00  0.00    +0.000 C 
ATOM     27  C   UNL     1       1.533   3.881  19.311  0.00  0.00    +0.000 C 
ENDBRANCH  16  23
BRANCH  11  28
ATOM     28  C   UNL     1      -3.225  13.341  22.852  0.00  0.00    +0.000 C 
BRANCH  28  29
ATOM     29  N   UNL     1      -4.557  12.725  22.854  0.00  0.00    +0.000 NA
ATOM     30  C   UNL     1      -5.485  13.355  23.812  0.00  0.00    +0.000 C 
ATOM     31  C   UNL     1      -6.081  14.713  23.371  0.00  0.00    +0.000 C 
ATOM     32  N   UNL     1      -6.654  14.726  22.015  0.00  0.00    +0.000 NA
ATOM     33  C   UNL     1      -5.798  14.051  21.041  0.00  0.00    +0.000 C 
ATOM     34  C   UNL     1      -5.187  12.715  21.519  0.00  0.00    +0.000 C 
ATOM     35  H   UNL     1      -6.811  15.691  21.725  0.00  0.00    +0.000 HD
ENDBRANCH  28  29
ENDBRANCH  11  28
TORSDOF 4
ENDMDL
MODEL 6
REMARK VINA RESULT:      -8.4      1.266      1.407
REMARK  Name = 
REMARK  4 active torsions:
REMARK  status: ('A' for Active; 'I' for Inactive)
REMARK    1  A    between atoms: C_4  and  C_5
REMARK    2  A    between atoms: C_15  and  C_16
REMARK    3  A    between atoms: C_16  and  N_17
REMARK    4  A    between atoms: N_27  and  C_28
REMARK                            x       y       z     vdW  Elec       q    Type
REMARK                         _______ _______ _______ _____ _____    ______ ____
ROOT
ATOM      1  C   UNL     1       3.841   6.251  17.461  0.00  0.00    +0.000 A 
ATOM      2  C   UNL     1       3.467   7.484  16.957  0.00  0.00    +0.000 A 
ATOM      3  C   UNL     1       2.713   8.149  17.944  0.00  0.00    +0.000 A 
ATOM      4  C   UNL     1       2.103   9.385  18.049  0.00  0.00    +0.000 A 
ATOM      5  N   UNL     1       1.473   9.720  19.188  0.00  0.00    +0.000 NA
ATOM      6  C   UNL     1       1.432   8.851  20.216  0.00  0.00    +0.000 A 
ATOM      7  N   UNL     1       0.779   9.232  21.389  0.00  0.00    +0.000 N 
ATOM      8  C   UNL     1      -0.093  10.283  21.676  0.00  0.00    +0.000 A 
ATOM      9  C   UNL     1      -0.235  11.421  20.883  0.00  0.00    +0.000 A 
ATOM     10  C   UNL     1      -1.237  12.361  21.159  0.00  0.00    +0.000 A 
ATOM     11  C   UNL     1      -2.076  12.177  22.253  0.00  0.00    +0.000 A 
ATOM     12  C   UNL     1      -1.810  11.066  23.045  0.00  0.00    +0.000 A 
ATOM     13  N   UNL     1      -0.852  10.133  22.784  0.00  0.00    +0.000 NA
ATOM     14  N   UNL     1       1.977   7.616  20.197  0.00  0.00    +0.000 NA
ATOM     15  C   UNL     1       2.608   7.311  19.041  0.00  0.00    +0.000 A 
ATOM     16  N   UNL     1       3.265   6.128  18.725  0.00  0.00    +0.000 N 
ATOM     17  H   UNL     1       0.710   8.483  22.059  0.00  0.00    +0.000 HD
ENDROOT
BRANCH   1  21
ATOM     18  C   UNL     1       5.351   3.485  15.813  0.00  0.00    +0.000 A 
ATOM     19  N   UNL     1       6.455   4.185  15.923  0.00  0.00    +0.000 NA
ATOM     20  C   UNL     1       6.035   5.327  16.556  0.00  0.00    +0.000 A 
ATOM     21  C   UNL     1       4.672   5.289  16.799  0.00  0.00    +0.000 A 
ATOM     22  O   UNL     1       4.239   4.076  16.321  0.00  0.00    +0.000 OA
ENDBRANCH   1  21
BRANCH  16  23
ATOM     23  C   UNL     1       3.322   4.948  19.568  0.00  0.00    +0.000 C 
ATOM     24  C   UNL     1       2.276   3.878  19.272  0.00  0.00    +0.000 C 
ATOM     25  C   UNL     1       2.771   2.676  20.070  0.00  0.00    +0.000 C 
ATOM     26  C   UNL     1       4.293   2.811  20.134  0.00  0.00    +0.000 C 
ATOM     27  C   UNL     1       4.646   4.180  19.558  0.00  0.00    +0.000 C 
ENDBRANCH  16  23
BRANCH  11  28
ATOM     28  C   UNL     1      -3.281  13.058  22.504  0.00  0.00    +0.000 C 
BRANCH  28  29
ATOM     29  N   UNL     1      -3.702  13.087  23.909  0.00  0.00    +0.000 NA
ATOM     30  C   UNL     1      -3.305  14.324  24.608  0.00  0.00    +0.000 C 
ATOM     31  C   UNL     1      -4.161  15.574  24.295  0.00  0.00    +0.000 C 
ATOM     32  N   UNL     1      -5.615  15.369  24.399  0.00  0.00    +0.000 NA
ATOM     33  C   UNL     1      -6.048  14.119  23.778  0.00  0.00    +0.000 C 
ATOM     34  C   UNL     1      -5.156  12.894  24.078  0.00  0.00    +0.000 C 
ATOM     35  H   UNL     1      -6.097  16.156  23.964  0.00  0.00    +0.000 HD
ENDBRANCH  28  29
ENDBRANCH  11  28
TORSDOF 4
ENDMDL
MODEL 7
REMARK VINA RESULT:      -8.3      1.528      1.788
REMARK  Name = 
REMARK  4 active torsions:
REMARK  status: ('A' for Active; 'I' for Inactive)
REMARK    1  A    between atoms: C_4  and  C_5
REMARK    2  A    between atoms: C_15  and  C_16
REMARK    3  A    between atoms: C_16  and  N_17
REMARK    4  A    between atoms: N_27  and  C_28
REMARK                            x       y       z     vdW  Elec       q    Type
REMARK                         _______ _______ _______ _____ _____    ______ ____
ROOT
ATOM      1  C   UNL     1       3.634   6.252  17.720  0.00  0.00    +0.000 A 
ATOM      2  C   UNL     1       3.289   7.488  17.204  0.00  0.00    +0.000 A 
ATOM      3  C   UNL     1       2.546   8.179  18.182  0.00  0.00    +0.000 A 
ATOM      4  C   UNL     1       1.964   9.429  18.274  0.00  0.00    +0.000 A 
ATOM      5  N   UNL     1       1.337   9.788  19.407  0.00  0.00    +0.000 NA
ATOM      6  C   UNL     1       1.273   8.930  20.443  0.00  0.00    +0.000 A 
ATOM      7  N   UNL     1       0.624   9.336  21.610  0.00  0.00    +0.000 N 
ATOM      8  C   UNL     1      -0.225  10.408  21.884  0.00  0.00    +0.000 A 
ATOM      9  C   UNL     1      -0.339  11.542  21.081  0.00  0.00    +0.000 A 
ATOM     10  C   UNL     1      -1.320  12.506  21.344  0.00  0.00    +0.000 A 
ATOM     11  C   UNL     1      -2.168  12.350  22.437  0.00  0.00    +0.000 A 
ATOM     12  C   UNL     1      -1.929  11.241  23.239  0.00  0.00    +0.000 A 
ATOM     13  N   UNL     1      -0.992  10.284  22.991  0.00  0.00    +0.000 NA
ATOM     14  N   UNL     1       1.790   7.682  20.437  0.00  0.00    +0.000 NA
ATOM     15  C   UNL     1       2.418   7.353  19.286  0.00  0.00    +0.000 A 
ATOM     16  N   UNL     1       3.050   6.153  18.983  0.00  0.00    +0.000 N 
ATOM     17  H   UNL     1       0.536   8.594  22.286  0.00  0.00    +0.000 HD
ENDROOT
BRANCH   1  21
ATOM     18  C   UNL     1       6.149   4.239  16.213  0.00  0.00    +0.000 A 
ATOM     19  N   UNL     1       5.152   3.441  15.915  0.00  0.00    +0.000 NA
ATOM     20  C   UNL     1       4.066   4.089  16.446  0.00  0.00    +0.000 A 
ATOM     21  C   UNL     1       4.446   5.266  17.071  0.00  0.00    +0.000 A 
ATOM     22  O   UNL     1       5.806   5.359  16.901  0.00  0.00    +0.000 OA
ENDBRANCH   1  21
BRANCH  16  23
ATOM     23  C   UNL     1       3.078   4.980  19.837  0.00  0.00    +0.000 C 
ATOM     24  C   UNL     1       1.945   3.982  19.620  0.00  0.00    +0.000 C 
ATOM     25  C   UNL     1       2.404   2.756  20.402  0.00  0.00    +0.000 C 
ATOM     26  C   UNL     1       3.933   2.786  20.372  0.00  0.00    +0.000 C 
ATOM     27  C   UNL     1       4.343   4.121  19.756  0.00  0.00    +0.000 C 
ENDBRANCH  16  23
BRANCH  11  28
ATOM     28  C   UNL     1      -3.354  13.261  22.675  0.00  0.00    +0.000 C 
BRANCH  28  29
ATOM     29  N   UNL     1      -4.637  12.551  22.716  0.00  0.00    +0.000 NA
ATOM     30  C   UNL     1      -5.524  13.019  23.798  0.00  0.00    +0.000 C 
ATOM     31  C   UNL     1      -6.242  14.365  23.539  0.00  0.00    +0.000 C 
ATOM     32  N   UNL     1      -6.923  14.461  22.237  0.00  0.00    +0.000 NA
ATOM     33  C   UNL     1      -6.107  13.946  21.140  0.00  0.00    +0.000 C 
ATOM     34  C   UNL     1      -5.372  12.620  21.437  0.00  0.00    +0.000 C 
ATOM     35  H   UNL     1      -7.167  15.436  22.058  0.00  0.00    +0.000 HD
ENDBRANCH  28  29
ENDBRANCH  11  28
TORSDOF 4
ENDMDL
MODEL 8
REMARK VINA RESULT:      -8.1      1.670      2.048
REMARK  Name = 
REMARK  4 active torsions:
REMARK  status: ('A' for Active; 'I' for Inactive)
REMARK    1  A    between atoms: C_4  and  C_5
REMARK    2  A    between atoms: C_15  and  C_16
REMARK    3  A    between atoms: C_16  and  N_17
REMARK    4  A    between atoms: N_27  and  C_28
REMARK                            x       y       z     vdW  Elec       q    Type
REMARK                         _______ _______ _______ _____ _____    ______ ____
ROOT
ATOM      1  C   UNL     1       3.777   6.239  17.527  0.00  0.00    +0.000 A 
ATOM      2  C   UNL     1       3.407   7.481  17.043  0.00  0.00    +0.000 A 
ATOM      3  C   UNL     1       2.665   8.137  18.046  0.00  0.00    +0.000 A 
ATOM      4  C   UNL     1       2.064   9.375  18.173  0.00  0.00    +0.000 A 
ATOM      5  N   UNL     1       1.444   9.698  19.322  0.00  0.00    +0.000 NA
ATOM      6  C   UNL     1       1.406   8.815  20.337  0.00  0.00    +0.000 A 
ATOM      7  N   UNL     1       0.765   9.183  21.521  0.00  0.00    +0.000 N 
ATOM      8  C   UNL     1      -0.098  10.235  21.830  0.00  0.00    +0.000 A 
ATOM      9  C   UNL     1      -0.239  11.385  21.055  0.00  0.00    +0.000 A 
ATOM     10  C   UNL     1      -1.233  12.327  21.352  0.00  0.00    +0.000 A 
ATOM     11  C   UNL     1      -2.065  12.132  22.450  0.00  0.00    +0.000 A 
ATOM     12  C   UNL     1      -1.799  11.009  23.223  0.00  0.00    +0.000 A 
ATOM     13  N   UNL     1      -0.850  10.073  22.942  0.00  0.00    +0.000 NA
ATOM     14  N   UNL     1       1.943   7.576  20.297  0.00  0.00    +0.000 NA
ATOM     15  C   UNL     1       2.563   7.284  19.131  0.00  0.00    +0.000 A 
ATOM     16  N   UNL     1       3.210   6.101  18.794  0.00  0.00    +0.000 N 
ATOM     17  H   UNL     1       0.696   8.425  22.180  0.00  0.00    +0.000 HD
ENDROOT
BRANCH   1  21
ATOM     18  C   UNL     1       5.263   3.478  15.849  0.00  0.00    +0.000 A 
ATOM     19  N   UNL     1       6.363   4.190  15.920  0.00  0.00    +0.000 NA
ATOM     20  C   UNL     1       5.951   5.332  16.559  0.00  0.00    +0.000 A 
ATOM     21  C   UNL     1       4.597   5.282  16.845  0.00  0.00    +0.000 A 
ATOM     22  O   UNL     1       4.162   4.061  16.389  0.00  0.00    +0.000 OA
ENDBRANCH   1  21
BRANCH  16  23
ATOM     23  C   UNL     1       3.266   4.909  19.619  0.00  0.00    +0.000 C 
ATOM     24  C   UNL     1       2.192   3.863  19.337  0.00  0.00    +0.000 C 
ATOM     25  C   UNL     1       2.685   2.641  20.105  0.00  0.00    +0.000 C 
ATOM     26  C   UNL     1       4.210   2.747  20.132  0.00  0.00    +0.000 C 
ATOM     27  C   UNL     1       4.575   4.116  19.564  0.00  0.00    +0.000 C 
ENDBRANCH  16  23
BRANCH  11  28
ATOM     28  C   UNL     1      -3.262  13.018  22.723  0.00  0.00    +0.000 C 
BRANCH  28  29
ATOM     29  N   UNL     1      -3.864  13.580  21.509  0.00  0.00    +0.000 NA
ATOM     30  C   UNL     1      -4.844  12.677  20.876  0.00  0.00    +0.000 C 
ATOM     31  C   UNL     1      -6.228  12.605  21.564  0.00  0.00    +0.000 C 
ATOM     32  N   UNL     1      -6.843  13.911  21.853  0.00  0.00    +0.000 NA
ATOM     33  C   UNL     1      -5.890  14.864  22.420  0.00  0.00    +0.000 C 
ATOM     34  C   UNL     1      -4.504  14.890  21.738  0.00  0.00    +0.000 C 
ATOM     35  H   UNL     1      -7.624  13.780  22.496  0.00  0.00    +0.000 HD
ENDBRANCH  28  29
ENDBRANCH  11  28
TORSDOF 4
ENDMDL
MODEL 9
REMARK VINA RESULT:      -8.1      1.222      1.449
REMARK  Name = 
REMARK  4 active torsions:
REMARK  status: ('A' for Active; 'I' for Inactive)
REMARK    1  A    between atoms: C_4  and  C_5
REMARK    2  A    between atoms: C_15  and  C_16
REMARK    3  A    between atoms: C_16  and  N_17
REMARK    4  A    between atoms: N_27  and  C_28
REMARK                            x       y       z     vdW  Elec       q    Type
REMARK                         _______ _______ _______ _____ _____    ______ ____
ROOT
ATOM      1  C   UNL     1       3.442   6.139  17.734  0.00  0.00    +0.000 A 
ATOM      2  C   UNL     1       3.296   7.451  17.320  0.00  0.00    +0.000 A 
ATOM      3  C   UNL     1       2.567   8.142  18.308  0.00  0.00    +0.000 A 
ATOM      4  C   UNL     1       2.138   9.445  18.482  0.00  0.00    +0.000 A 
ATOM      5  N   UNL     1       1.469   9.780  19.599  0.00  0.00    +0.000 NA
ATOM      6  C   UNL     1       1.215   8.848  20.537  0.00  0.00    +0.000 A 
ATOM      7  N   UNL     1       0.528   9.229  21.691  0.00  0.00    +0.000 N 
ATOM      8  C   UNL     1      -0.202  10.375  22.009  0.00  0.00    +0.000 A 
ATOM      9  C   UNL     1      -0.109  11.581  21.317  0.00  0.00    +0.000 A 
ATOM     10  C   UNL     1      -0.982  12.638  21.605  0.00  0.00    +0.000 A 
ATOM     11  C   UNL     1      -1.929  12.497  22.615  0.00  0.00    +0.000 A 
ATOM     12  C   UNL     1      -1.896  11.299  23.318  0.00  0.00    +0.000 A 
ATOM     13  N   UNL     1      -1.067  10.254  23.042  0.00  0.00    +0.000 NA
ATOM     14  N   UNL     1       1.572   7.549  20.443  0.00  0.00    +0.000 NA
ATOM     15  C   UNL     1       2.247   7.245  19.312  0.00  0.00    +0.000 A 
ATOM     16  N   UNL     1       2.749   6.004  18.937  0.00  0.00    +0.000 N 
ATOM     17  H   UNL     1       0.293   8.448  22.281  0.00  0.00    +0.000 HD
ENDROOT
BRANCH   1  21
ATOM     18  C   UNL     1       4.925   3.182  16.428  0.00  0.00    +0.000 A 
ATOM     19  N   UNL     1       5.664   4.013  15.732  0.00  0.00    +0.000 NA
ATOM     20  C   UNL     1       5.203   5.243  16.126  0.00  0.00    +0.000 A 
ATOM     21  C   UNL     1       4.176   5.117  17.049  0.00  0.00    +0.000 A 
ATOM     22  O   UNL     1       4.013   3.767  17.247  0.00  0.00    +0.000 OA
ENDBRANCH   1  21
BRANCH  16  23
ATOM     23  C   UNL     1       2.561   4.766  19.670  0.00  0.00    +0.000 C 
ATOM     24  C   UNL     1       2.564   4.894  21.189  0.00  0.00    +0.000 C 
ATOM     25  C   UNL     1       2.045   3.538  21.656  0.00  0.00    +0.000 C 
ATOM     26  C   UNL     1       1.122   3.036  20.545  0.00  0.00    +0.000 C 
ATOM     27  C   UNL     1       1.271   3.997  19.368  0.00  0.00    +0.000 C 
ENDBRANCH  16  23
BRANCH  11  28
ATOM     28  C   UNL     1      -3.009  13.530  22.859  0.00  0.00    +0.000 C 
BRANCH  28  29
ATOM     29  N   UNL     1      -2.889  14.206  24.155  0.00  0.00    +0.000 NA
ATOM     30  C   UNL     1      -1.571  14.837  24.361  0.00  0.00    +0.000 C 
ATOM     31  C   UNL     1      -1.344  16.170  23.610  0.00  0.00    +0.000 C 
ATOM     32  N   UNL     1      -2.419  17.162  23.773  0.00  0.00    +0.000 NA
ATOM     33  C   UNL     1      -3.749  16.569  23.645  0.00  0.00    +0.000 C 
ATOM     34  C   UNL     1      -3.939  15.220  24.373  0.00  0.00    +0.000 C 
ATOM     35  H   UNL     1      -2.302  17.901  23.080  0.00  0.00    +0.000 HD
ENDBRANCH  28  29
ENDBRANCH  11  28
TORSDOF 4
ENDMDL
