MODEL 1
REMARK VINA RESULT:      -7.8      0.000      0.000
REMARK  Name = 
REMARK  11 active torsions:
REMARK  status: ('A' for Active; 'I' for Inactive)
REMARK    1  A    between atoms: C_2  and  C_3
REMARK    2  A    between atoms: C_3  and  O_4
REMARK    3  A    between atoms: O_4  and  C_5
REMARK    4  A    between atoms: C_5  and  C_7
REMARK    5  A    between atoms: C_9  and  C_10
REMARK    6  A    between atoms: C_20  and  O_21
REMARK    7  A    between atoms: O_21  and  C_22
REMARK    8  A    between atoms: C_22  and  C_23
REMARK    9  A    between atoms: C_23  and  C_24
REMARK   10  A    between atoms: C_24  and  C_25
REMARK   11  A    between atoms: C_25  and  O_26
REMARK                            x       y       z     vdW  Elec       q    Type
REMARK                         _______ _______ _______ _____ _____    ______ ____
ROOT
ATOM      1  C   UNL     1       5.917   5.386  15.372  0.00  0.00    +0.000 C 
ATOM      2  C   UNL     1       4.849   4.677  15.766  0.00  0.00    +0.000 C 
ATOM      3  C   UNL     1       3.941   5.086  16.888  0.00  0.00    +0.000 C 
ATOM      4  C   UNL     1       4.181   6.568  17.204  0.00  0.00    +0.000 C 
ATOM      5  C   UNL     1       5.663   6.940  17.165  0.00  0.00    +0.000 C 
ATOM      6  O   UNL     1       6.297   6.589  15.930  0.00  0.00    +0.000 OA
ENDROOT
BRANCH   3   7
ATOM      7  C   UNL     1       4.046   4.146  18.090  0.00  0.00    +0.000 A 
ATOM      8  C   UNL     1       5.136   3.334  18.367  0.00  0.00    +0.000 A 
ATOM      9  S   UNL     1       4.973   2.434  19.799  0.00  0.00    +0.000 S 
ATOM     10  C   UNL     1       3.405   3.062  20.094  0.00  0.00    +0.000 A 
ATOM     11  C   UNL     1       2.583   2.757  21.198  0.00  0.00    +0.000 A 
ATOM     12  C   UNL     1       1.300   3.297  21.257  0.00  0.00    +0.000 A 
ATOM     13  C   UNL     1       0.843   4.124  20.243  0.00  0.00    +0.000 A 
ATOM     14  C   UNL     1       1.676   4.450  19.165  0.00  0.00    +0.000 A 
ATOM     15  C   UNL     1       2.994   3.930  19.076  0.00  0.00    +0.000 A 
ENDBRANCH   3   7
BRANCH   1  16
ATOM     16  C   UNL     1       6.749   4.788  14.276  0.00  0.00    +0.000 C 
ATOM     17  O   UNL     1       7.819   5.257  13.908  0.00  0.00    +0.000 OA
BRANCH  16  18
ATOM     18  O   UNL     1       6.137   3.699  13.747  0.00  0.00    +0.000 OA
BRANCH  18  19
ATOM     19  C   UNL     1       6.342   3.512  12.343  0.00  0.00    +0.000 C 
BRANCH  19  21
ATOM     20  C   UNL     1       4.088   3.292  11.267  0.00  0.00    +0.000 C 
ATOM     21  C   UNL     1       5.190   2.733  11.787  0.00  0.00    +0.000 C 
ENDBRANCH  19  21
ENDBRANCH  18  19
ENDBRANCH  16  18
ENDBRANCH   1  16
BRANCH   5  22
ATOM     22  O   UNL     1       6.329   6.383  18.300  0.00  0.00    +0.000 OA
BRANCH  22  23
ATOM     23  C   UNL     1       7.719   6.698  18.327  0.00  0.00    +0.000 C 
BRANCH  23  24
ATOM     24  C   UNL     1       7.925   8.109  17.780  0.00  0.00    +0.000 C 
BRANCH  24  25
ATOM     25  C   UNL     1       8.715   9.025  18.715  0.00  0.00    +0.000 C 
BRANCH  25  26
ATOM     26  C   UNL     1       8.702  10.486  18.287  0.00  0.00    +0.000 C 
BRANCH  26  27
ATOM     27  O   UNL     1       9.987  10.882  17.824  0.00  0.00    +0.000 OA
ATOM     28  H   UNL     1       9.876  11.696  17.304  0.00  0.00    +0.000 HD
ENDBRANCH  26  27
ENDBRANCH  25  26
ENDBRANCH  24  25
ENDBRANCH  23  24
ENDBRANCH  22  23
ENDBRANCH   5  22
TORSDOF 11
ENDMDL
MODEL 2
REMARK VINA RESULT:      -7.2      1.909      6.338
REMARK  Name = 
REMARK  11 active torsions:
REMARK  status: ('A' for Active; 'I' for Inactive)
REMARK    1  A    between atoms: C_2  and  C_3
REMARK    2  A    between atoms: C_3  and  O_4
REMARK    3  A    between atoms: O_4  and  C_5
REMARK    4  A    between atoms: C_5  and  C_7
REMARK    5  A    between atoms: C_9  and  C_10
REMARK    6  A    between atoms: C_20  and  O_21
REMARK    7  A    between atoms: O_21  and  C_22
REMARK    8  A    between atoms: C_22  and  C_23
REMARK    9  A    between atoms: C_23  and  C_24
REMARK   10  A    between atoms: C_24  and  C_25
REMARK   11  A    between atoms: C_25  and  O_26
REMARK                            x       y       z     vdW  Elec       q    Type
REMARK                         _______ _______ _______ _____ _____    ______ ____
ROOT
ATOM      1  C   UNL     1       7.496   7.282  17.530  0.00  0.00    +0.000 C 
ATOM      2  C   UNL     1       6.793   6.672  18.495  0.00  0.00    +0.000 C 
ATOM      3  C   UNL     1       6.253   5.277  18.381  0.00  0.00    +0.000 C 
ATOM      4  C   UNL     1       6.960   4.565  17.220  0.00  0.00    +0.000 C 
ATOM      5  C   UNL     1       7.153   5.476  16.008  0.00  0.00    +0.000 C 
ATOM      6  O   UNL     1       7.831   6.697  16.327  0.00  0.00    +0.000 OA
ENDROOT
BRANCH   3   7
ATOM      7  C   UNL     1       4.725   5.251  18.317  0.00  0.00    +0.000 A 
ATOM      8  C   UNL     1       3.917   6.375  18.235  0.00  0.00    +0.000 A 
ATOM      9  S   UNL     1       2.258   6.021  18.136  0.00  0.00    +0.000 S 
ATOM     10  C   UNL     1       2.544   4.334  18.242  0.00  0.00    +0.000 A 
ATOM     11  C   UNL     1       1.563   3.322  18.209  0.00  0.00    +0.000 A 
ATOM     12  C   UNL     1       1.952   1.996  18.379  0.00  0.00    +0.000 A 
ATOM     13  C   UNL     1       3.287   1.679  18.576  0.00  0.00    +0.000 A 
ATOM     14  C   UNL     1       4.262   2.685  18.575  0.00  0.00    +0.000 A 
ATOM     15  C   UNL     1       3.906   4.047  18.392  0.00  0.00    +0.000 A 
ENDBRANCH   3   7
BRANCH   1  16
ATOM     16  C   UNL     1       7.898   8.703  17.794  0.00  0.00    +0.000 C 
ATOM     17  O   UNL     1       7.484   9.654  17.141  0.00  0.00    +0.000 OA
BRANCH  16  18
ATOM     18  O   UNL     1       8.790   8.770  18.814  0.00  0.00    +0.000 OA
BRANCH  18  19
ATOM     19  C   UNL     1       9.502  10.007  18.916  0.00  0.00    +0.000 C 
BRANCH  19  21
ATOM     20  C   UNL     1       9.899  11.680  20.742  0.00  0.00    +0.000 C 
ATOM     21  C   UNL     1       9.316  10.558  20.297  0.00  0.00    +0.000 C 
ENDBRANCH  19  21
ENDBRANCH  18  19
ENDBRANCH  16  18
ENDBRANCH   1  16
BRANCH   5  22
ATOM     22  O   UNL     1       5.895   5.700  15.369  0.00  0.00    +0.000 OA
BRANCH  22  23
ATOM     23  C   UNL     1       5.517   4.625  14.513  0.00  0.00    +0.000 C 
BRANCH  23  24
ATOM     24  C   UNL     1       6.757   4.098  13.792  0.00  0.00    +0.000 C 
BRANCH  24  25
ATOM     25  C   UNL     1       6.557   3.895  12.290  0.00  0.00    +0.000 C 
BRANCH  25  26
ATOM     26  C   UNL     1       5.383   2.985  11.953  0.00  0.00    +0.000 C 
BRANCH  26  27
ATOM     27  O   UNL     1       5.835   1.660  11.703  0.00  0.00    +0.000 OA
ATOM     28  H   UNL     1       5.755   1.495  10.748  0.00  0.00    +0.000 HD
ENDBRANCH  26  27
ENDBRANCH  25  26
ENDBRANCH  24  25
ENDBRANCH  23  24
ENDBRANCH  22  23
ENDBRANCH   5  22
TORSDOF 11
ENDMDL
MODEL 3
REMARK VINA RESULT:      -6.9      1.927      5.826
REMARK  Name = 
REMARK  11 active torsions:
REMARK  status: ('A' for Active; 'I' for Inactive)
REMARK    1  A    between atoms: C_2  and  C_3
REMARK    2  A    between atoms: C_3  and  O_4
REMARK    3  A    between atoms: O_4  and  C_5
REMARK    4  A    between atoms: C_5  and  C_7
REMARK    5  A    between atoms: C_9  and  C_10
REMARK    6  A    between atoms: C_20  and  O_21
REMARK    7  A    between atoms: O_21  and  C_22
REMARK    8  A    between atoms: C_22  and  C_23
REMARK    9  A    between atoms: C_23  and  C_24
REMARK   10  A    between atoms: C_24  and  C_25
REMARK   11  A    between atoms: C_25  and  O_26
REMARK                            x       y       z     vdW  Elec       q    Type
REMARK                         _______ _______ _______ _____ _____    ______ ____
ROOT
ATOM      1  C   UNL     1       7.510   7.171  17.606  0.00  0.00    +0.000 C 
ATOM      2  C   UNL     1       6.776   6.616  18.581  0.00  0.00    +0.000 C 
ATOM      3  C   UNL     1       6.232   5.219  18.525  0.00  0.00    +0.000 C 
ATOM      4  C   UNL     1       6.970   4.443  17.427  0.00  0.00    +0.000 C 
ATOM      5  C   UNL     1       7.204   5.287  16.173  0.00  0.00    +0.000 C 
ATOM      6  O   UNL     1       7.878   6.521  16.446  0.00  0.00    +0.000 OA
ENDROOT
BRANCH   3   7
ATOM      7  C   UNL     1       4.706   5.195  18.416  0.00  0.00    +0.000 A 
ATOM      8  C   UNL     1       3.905   6.318  18.274  0.00  0.00    +0.000 A 
ATOM      9  S   UNL     1       2.249   5.965  18.138  0.00  0.00    +0.000 S 
ATOM     10  C   UNL     1       2.525   4.281  18.307  0.00  0.00    +0.000 A 
ATOM     11  C   UNL     1       1.543   3.271  18.278  0.00  0.00    +0.000 A 
ATOM     12  C   UNL     1       1.922   1.950  18.502  0.00  0.00    +0.000 A 
ATOM     13  C   UNL     1       3.249   1.637  18.749  0.00  0.00    +0.000 A 
ATOM     14  C   UNL     1       4.227   2.640  18.745  0.00  0.00    +0.000 A 
ATOM     15  C   UNL     1       3.881   3.996  18.507  0.00  0.00    +0.000 A 
ENDBRANCH   3   7
BRANCH   1  16
ATOM     16  C   UNL     1       7.911   8.603  17.805  0.00  0.00    +0.000 C 
ATOM     17  O   UNL     1       7.439   9.532  17.159  0.00  0.00    +0.000 OA
BRANCH  16  18
ATOM     18  O   UNL     1       8.871   8.707  18.757  0.00  0.00    +0.000 OA
BRANCH  18  19
ATOM     19  C   UNL     1       9.042  10.017  19.306  0.00  0.00    +0.000 C 
BRANCH  19  21
ATOM     20  C   UNL     1      10.109  11.841  17.956  0.00  0.00    +0.000 C 
ATOM     21  C   UNL     1      10.197  10.680  18.620  0.00  0.00    +0.000 C 
ENDBRANCH  19  21
ENDBRANCH  18  19
ENDBRANCH  16  18
ENDBRANCH   1  16
BRANCH   5  22
ATOM     22  O   UNL     1       5.967   5.481  15.485  0.00  0.00    +0.000 OA
BRANCH  22  23
ATOM     23  C   UNL     1       5.400   4.257  15.025  0.00  0.00    +0.000 C 
BRANCH  23  24
ATOM     24  C   UNL     1       5.279   4.302  13.502  0.00  0.00    +0.000 C 
BRANCH  24  25
ATOM     25  C   UNL     1       6.419   3.592  12.771  0.00  0.00    +0.000 C 
BRANCH  25  26
ATOM     26  C   UNL     1       7.363   4.545  12.051  0.00  0.00    +0.000 C 
BRANCH  26  27
ATOM     27  O   UNL     1       7.846   5.540  12.946  0.00  0.00    +0.000 OA
ATOM     28  H   UNL     1       7.701   6.407  12.530  0.00  0.00    +0.000 HD
ENDBRANCH  26  27
ENDBRANCH  25  26
ENDBRANCH  24  25
ENDBRANCH  23  24
ENDBRANCH  22  23
ENDBRANCH   5  22
TORSDOF 11
ENDMDL
MODEL 4
REMARK VINA RESULT:      -6.7      3.880      7.950
REMARK  Name = 
REMARK  11 active torsions:
REMARK  status: ('A' for Active; 'I' for Inactive)
REMARK    1  A    between atoms: C_2  and  C_3
REMARK    2  A    between atoms: C_3  and  O_4
REMARK    3  A    between atoms: O_4  and  C_5
REMARK    4  A    between atoms: C_5  and  C_7
REMARK    5  A    between atoms: C_9  and  C_10
REMARK    6  A    between atoms: C_20  and  O_21
REMARK    7  A    between atoms: O_21  and  C_22
REMARK    8  A    between atoms: C_22  and  C_23
REMARK    9  A    between atoms: C_23  and  C_24
REMARK   10  A    between atoms: C_24  and  C_25
REMARK   11  A    between atoms: C_25  and  O_26
REMARK                            x       y       z     vdW  Elec       q    Type
REMARK                         _______ _______ _______ _____ _____    ______ ____
ROOT
ATOM      1  C   UNL     1       1.685   7.248  20.114  0.00  0.00    +0.000 C 
ATOM      2  C   UNL     1       2.445   7.311  19.011  0.00  0.00    +0.000 C 
ATOM      3  C   UNL     1       2.796   6.119  18.168  0.00  0.00    +0.000 C 
ATOM      4  C   UNL     1       1.848   4.966  18.522  0.00  0.00    +0.000 C 
ATOM      5  C   UNL     1       1.588   4.865  20.026  0.00  0.00    +0.000 C 
ATOM      6  O   UNL     1       1.112   6.090  20.596  0.00  0.00    +0.000 OA
ENDROOT
BRANCH   3   7
ATOM      7  C   UNL     1       4.284   5.775  18.243  0.00  0.00    +0.000 A 
ATOM      8  C   UNL     1       5.059   5.856  19.390  0.00  0.00    +0.000 A 
ATOM      9  S   UNL     1       6.670   5.367  19.165  0.00  0.00    +0.000 S 
ATOM     10  C   UNL     1       6.415   5.063  17.497  0.00  0.00    +0.000 A 
ATOM     11  C   UNL     1       7.375   4.581  16.584  0.00  0.00    +0.000 A 
ATOM     12  C   UNL     1       7.029   4.454  15.241  0.00  0.00    +0.000 A 
ATOM     13  C   UNL     1       5.756   4.796  14.812  0.00  0.00    +0.000 A 
ATOM     14  C   UNL     1       4.795   5.243  15.728  0.00  0.00    +0.000 A 
ATOM     15  C   UNL     1       5.107   5.373  17.108  0.00  0.00    +0.000 A 
ENDBRANCH   3   7
BRANCH   1  16
ATOM     16  C   UNL     1       1.496   8.532  20.867  0.00  0.00    +0.000 C 
ATOM     17  O   UNL     1       1.678   8.639  22.074  0.00  0.00    +0.000 OA
BRANCH  16  18
ATOM     18  O   UNL     1       1.071   9.518  20.039  0.00  0.00    +0.000 OA
BRANCH  18  19
ATOM     19  C   UNL     1      -0.302   9.891  20.195  0.00  0.00    +0.000 C 
BRANCH  19  21
ATOM     20  C   UNL     1      -0.641  11.375  22.187  0.00  0.00    +0.000 C 
ATOM     21  C   UNL     1      -0.365  11.219  20.885  0.00  0.00    +0.000 C 
ENDBRANCH  19  21
ENDBRANCH  18  19
ENDBRANCH  16  18
ENDBRANCH   1  16
BRANCH   5  22
ATOM     22  O   UNL     1       2.756   4.373  20.684  0.00  0.00    +0.000 OA
BRANCH  22  23
ATOM     23  C   UNL     1       2.486   3.241  21.505  0.00  0.00    +0.000 C 
BRANCH  23  24
ATOM     24  C   UNL     1       3.299   2.050  21.000  0.00  0.00    +0.000 C 
BRANCH  24  25
ATOM     25  C   UNL     1       4.106   2.345  19.736  0.00  0.00    +0.000 C 
BRANCH  25  26
ATOM     26  C   UNL     1       3.633   1.561  18.519  0.00  0.00    +0.000 C 
BRANCH  26  27
ATOM     27  O   UNL     1       2.213   1.484  18.496  0.00  0.00    +0.000 OA
ATOM     28  H   UNL     1       1.866   2.384  18.626  0.00  0.00    +0.000 HD
ENDBRANCH  26  27
ENDBRANCH  25  26
ENDBRANCH  24  25
ENDBRANCH  23  24
ENDBRANCH  22  23
ENDBRANCH   5  22
TORSDOF 11
ENDMDL
MODEL 5
REMARK VINA RESULT:      -6.6      2.748      5.581
REMARK  Name = 
REMARK  11 active torsions:
REMARK  status: ('A' for Active; 'I' for Inactive)
REMARK    1  A    between atoms: C_2  and  C_3
REMARK    2  A    between atoms: C_3  and  O_4
REMARK    3  A    between atoms: O_4  and  C_5
REMARK    4  A    between atoms: C_5  and  C_7
REMARK    5  A    between atoms: C_9  and  C_10
REMARK    6  A    between atoms: C_20  and  O_21
REMARK    7  A    between atoms: O_21  and  C_22
REMARK    8  A    between atoms: C_22  and  C_23
REMARK    9  A    between atoms: C_23  and  C_24
REMARK   10  A    between atoms: C_24  and  C_25
REMARK   11  A    between atoms: C_25  and  O_26
REMARK                            x       y       z     vdW  Elec       q    Type
REMARK                         _______ _______ _______ _____ _____    ______ ____
ROOT
ATOM      1  C   UNL     1       5.375   5.026  16.706  0.00  0.00    +0.000 C 
ATOM      2  C   UNL     1       5.357   5.731  17.846  0.00  0.00    +0.000 C 
ATOM      3  C   UNL     1       4.850   5.193  19.153  0.00  0.00    +0.000 C 
ATOM      4  C   UNL     1       4.760   3.665  19.059  0.00  0.00    +0.000 C 
ATOM      5  C   UNL     1       4.219   3.194  17.708  0.00  0.00    +0.000 C 
ATOM      6  O   UNL     1       4.956   3.717  16.596  0.00  0.00    +0.000 OA
ENDROOT
BRANCH   3   7
ATOM      7  C   UNL     1       3.564   5.888  19.604  0.00  0.00    +0.000 A 
ATOM      8  C   UNL     1       2.759   5.461  20.650  0.00  0.00    +0.000 A 
ATOM      9  S   UNL     1       1.420   6.466  20.937  0.00  0.00    +0.000 S 
ATOM     10  C   UNL     1       1.835   7.503  19.637  0.00  0.00    +0.000 A 
ATOM     11  C   UNL     1       1.135   8.662  19.243  0.00  0.00    +0.000 A 
ATOM     12  C   UNL     1       1.561   9.361  18.116  0.00  0.00    +0.000 A 
ATOM     13  C   UNL     1       2.660   8.921  17.396  0.00  0.00    +0.000 A 
ATOM     14  C   UNL     1       3.372   7.788  17.810  0.00  0.00    +0.000 A 
ATOM     15  C   UNL     1       2.976   7.057  18.961  0.00  0.00    +0.000 A 
ENDBRANCH   3   7
BRANCH   1  16
ATOM     16  C   UNL     1       5.855   5.750  15.482  0.00  0.00    +0.000 C 
ATOM     17  O   UNL     1       5.253   6.689  14.974  0.00  0.00    +0.000 OA
BRANCH  16  18
ATOM     18  O   UNL     1       7.005   5.201  15.018  0.00  0.00    +0.000 OA
BRANCH  18  19
ATOM     19  C   UNL     1       7.012   4.903  13.618  0.00  0.00    +0.000 C 
BRANCH  19  21
ATOM     20  C   UNL     1       5.816   3.250  12.160  0.00  0.00    +0.000 C 
ATOM     21  C   UNL     1       6.153   3.700  13.377  0.00  0.00    +0.000 C 
ENDBRANCH  19  21
ENDBRANCH  18  19
ENDBRANCH  16  18
ENDBRANCH   1  16
BRANCH   5  22
ATOM     22  O   UNL     1       2.823   3.483  17.622  0.00  0.00    +0.000 OA
BRANCH  22  23
ATOM     23  C   UNL     1       2.012   2.412  18.098  0.00  0.00    +0.000 C 
BRANCH  23  24
ATOM     24  C   UNL     1       0.696   2.977  18.630  0.00  0.00    +0.000 C 
BRANCH  24  25
ATOM     25  C   UNL     1       0.561   2.901  20.151  0.00  0.00    +0.000 C 
BRANCH  25  26
ATOM     26  C   UNL     1       1.770   2.278  20.836  0.00  0.00    +0.000 C 
BRANCH  26  27
ATOM     27  O   UNL     1       1.725   2.513  22.238  0.00  0.00    +0.000 OA
ATOM     28  H   UNL     1       1.819   3.471  22.380  0.00  0.00    +0.000 HD
ENDBRANCH  26  27
ENDBRANCH  25  26
ENDBRANCH  24  25
ENDBRANCH  23  24
ENDBRANCH  22  23
ENDBRANCH   5  22
TORSDOF 11
ENDMDL
MODEL 6
REMARK VINA RESULT:      -6.6      1.839      6.423
REMARK  Name = 
REMARK  11 active torsions:
REMARK  status: ('A' for Active; 'I' for Inactive)
REMARK    1  A    between atoms: C_2  and  C_3
REMARK    2  A    between atoms: C_3  and  O_4
REMARK    3  A    between atoms: O_4  and  C_5
REMARK    4  A    between atoms: C_5  and  C_7
REMARK    5  A    between atoms: C_9  and  C_10
REMARK    6  A    between atoms: C_20  and  O_21
REMARK    7  A    between atoms: O_21  and  C_22
REMARK    8  A    between atoms: C_22  and  C_23
REMARK    9  A    between atoms: C_23  and  C_24
REMARK   10  A    between atoms: C_24  and  C_25
REMARK   11  A    between atoms: C_25  and  O_26
REMARK                            x       y       z     vdW  Elec       q    Type
REMARK                         _______ _______ _______ _____ _____    ______ ____
ROOT
ATOM      1  C   UNL     1       7.673   7.206  17.545  0.00  0.00    +0.000 C 
ATOM      2  C   UNL     1       7.233   6.514  18.606  0.00  0.00    +0.000 C 
ATOM      3  C   UNL     1       6.901   5.051  18.570  0.00  0.00    +0.000 C 
ATOM      4  C   UNL     1       7.514   4.434  17.307  0.00  0.00    +0.000 C 
ATOM      5  C   UNL     1       7.372   5.343  16.085  0.00  0.00    +0.000 C 
ATOM      6  O   UNL     1       7.898   6.658  16.300  0.00  0.00    +0.000 OA
ENDROOT
BRANCH   3   7
ATOM      7  C   UNL     1       5.403   4.794  18.750  0.00  0.00    +0.000 A 
ATOM      8  C   UNL     1       4.853   3.600  19.192  0.00  0.00    +0.000 A 
ATOM      9  S   UNL     1       3.160   3.636  19.329  0.00  0.00    +0.000 S 
ATOM     10  C   UNL     1       3.081   5.250  18.758  0.00  0.00    +0.000 A 
ATOM     11  C   UNL     1       1.910   6.020  18.603  0.00  0.00    +0.000 A 
ATOM     12  C   UNL     1       2.006   7.298  18.057  0.00  0.00    +0.000 A 
ATOM     13  C   UNL     1       3.239   7.802  17.674  0.00  0.00    +0.000 A 
ATOM     14  C   UNL     1       4.404   7.047  17.861  0.00  0.00    +0.000 A 
ATOM     15  C   UNL     1       4.347   5.746  18.427  0.00  0.00    +0.000 A 
ENDBRANCH   3   7
BRANCH   1  16
ATOM     16  C   UNL     1       7.891   8.677  17.752  0.00  0.00    +0.000 C 
ATOM     17  O   UNL     1       7.342   9.541  17.078  0.00  0.00    +0.000 OA
BRANCH  16  18
ATOM     18  O   UNL     1       8.788   8.896  18.745  0.00  0.00    +0.000 OA
BRANCH  18  19
ATOM     19  C   UNL     1       9.335  10.218  18.786  0.00  0.00    +0.000 C 
BRANCH  19  21
ATOM     20  C   UNL     1      10.146  11.669  20.663  0.00  0.00    +0.000 C 
ATOM     21  C   UNL     1       9.354  10.688  20.208  0.00  0.00    +0.000 C 
ENDBRANCH  19  21
ENDBRANCH  18  19
ENDBRANCH  16  18
ENDBRANCH   1  16
BRANCH   5  22
ATOM     22  O   UNL     1       6.009   5.363  15.657  0.00  0.00    +0.000 OA
BRANCH  22  23
ATOM     23  C   UNL     1       5.596   4.122  15.090  0.00  0.00    +0.000 C 
BRANCH  23  24
ATOM     24  C   UNL     1       6.172   3.998  13.681  0.00  0.00    +0.000 C 
BRANCH  24  25
ATOM     25  C   UNL     1       5.122   3.708  12.608  0.00  0.00    +0.000 C 
BRANCH  25  26
ATOM     26  C   UNL     1       5.443   2.486  11.759  0.00  0.00    +0.000 C 
BRANCH  26  27
ATOM     27  O   UNL     1       6.839   2.214  11.785  0.00  0.00    +0.000 OA
ATOM     28  H   UNL     1       7.209   2.643  12.576  0.00  0.00    +0.000 HD
ENDBRANCH  26  27
ENDBRANCH  25  26
ENDBRANCH  24  25
ENDBRANCH  23  24
ENDBRANCH  22  23
ENDBRANCH   5  22
TORSDOF 11
ENDMDL
MODEL 7
REMARK VINA RESULT:      -6.5      3.838      8.053
REMARK  Name = 
REMARK  11 active torsions:
REMARK  status: ('A' for Active; 'I' for Inactive)
REMARK    1  A    between atoms: C_2  and  C_3
REMARK    2  A    between atoms: C_3  and  O_4
REMARK    3  A    between atoms: O_4  and  C_5
REMARK    4  A    between atoms: C_5  and  C_7
REMARK    5  A    between atoms: C_9  and  C_10
REMARK    6  A    between atoms: C_20  and  O_21
REMARK    7  A    between atoms: O_21  and  C_22
REMARK    8  A    between atoms: C_22  and  C_23
REMARK    9  A    between atoms: C_23  and  C_24
REMARK   10  A    between atoms: C_24  and  C_25
REMARK   11  A    between atoms: C_25  and  O_26
REMARK                            x       y       z     vdW  Elec       q    Type
REMARK                         _______ _______ _______ _____ _____    ______ ____
ROOT
ATOM      1  C   UNL     1       1.539   7.189  19.838  0.00  0.00    +0.000 C 
ATOM      2  C   UNL     1       2.313   7.169  18.743  0.00  0.00    +0.000 C 
ATOM      3  C   UNL     1       2.724   5.912  18.033  0.00  0.00    +0.000 C 
ATOM      4  C   UNL     1       1.819   4.763  18.495  0.00  0.00    +0.000 C 
ATOM      5  C   UNL     1       1.540   4.808  19.997  0.00  0.00    +0.000 C 
ATOM      6  O   UNL     1       1.005   6.064  20.431  0.00  0.00    +0.000 OA
ENDROOT
BRANCH   3   7
ATOM      7  C   UNL     1       4.224   5.641  18.160  0.00  0.00    +0.000 A 
ATOM      8  C   UNL     1       4.963   5.807  19.322  0.00  0.00    +0.000 A 
ATOM      9  S   UNL     1       6.601   5.383  19.158  0.00  0.00    +0.000 S 
ATOM     10  C   UNL     1       6.404   4.996  17.499  0.00  0.00    +0.000 A 
ATOM     11  C   UNL     1       7.409   4.520  16.633  0.00  0.00    +0.000 A 
ATOM     12  C   UNL     1       7.105   4.320  15.288  0.00  0.00    +0.000 A 
ATOM     13  C   UNL     1       5.830   4.584  14.814  0.00  0.00    +0.000 A 
ATOM     14  C   UNL     1       4.826   5.025  15.685  0.00  0.00    +0.000 A 
ATOM     15  C   UNL     1       5.094   5.229  17.065  0.00  0.00    +0.000 A 
ENDBRANCH   3   7
BRANCH   1  16
ATOM     16  C   UNL     1       1.285   8.535  20.451  0.00  0.00    +0.000 C 
ATOM     17  O   UNL     1       1.667   9.587  19.951  0.00  0.00    +0.000 OA
BRANCH  16  18
ATOM     18  O   UNL     1       0.619   8.411  21.626  0.00  0.00    +0.000 OA
BRANCH  18  19
ATOM     19  C   UNL     1       1.034   9.315  22.655  0.00  0.00    +0.000 C 
BRANCH  19  21
ATOM     20  C   UNL     1      -1.069  10.622  23.054  0.00  0.00    +0.000 C 
ATOM     21  C   UNL     1      -0.166   9.716  23.457  0.00  0.00    +0.000 C 
ENDBRANCH  19  21
ENDBRANCH  18  19
ENDBRANCH  16  18
ENDBRANCH   1  16
BRANCH   5  22
ATOM     22  O   UNL     1       2.717   4.437  20.717  0.00  0.00    +0.000 OA
BRANCH  22  23
ATOM     23  C   UNL     1       2.489   3.358  21.619  0.00  0.00    +0.000 C 
BRANCH  23  24
ATOM     24  C   UNL     1       3.217   2.115  21.110  0.00  0.00    +0.000 C 
BRANCH  24  25
ATOM     25  C   UNL     1       4.145   2.386  19.925  0.00  0.00    +0.000 C 
BRANCH  25  26
ATOM     26  C   UNL     1       3.729   1.661  18.652  0.00  0.00    +0.000 C 
BRANCH  26  27
ATOM     27  O   UNL     1       2.326   1.432  18.644  0.00  0.00    +0.000 OA
ATOM     28  H   UNL     1       1.999   1.571  19.550  0.00  0.00    +0.000 HD
ENDBRANCH  26  27
ENDBRANCH  25  26
ENDBRANCH  24  25
ENDBRANCH  23  24
ENDBRANCH  22  23
ENDBRANCH   5  22
TORSDOF 11
ENDMDL
MODEL 8
REMARK VINA RESULT:      -6.4      1.927      6.039
REMARK  Name = 
REMARK  11 active torsions:
REMARK  status: ('A' for Active; 'I' for Inactive)
REMARK    1  A    between atoms: C_2  and  C_3
REMARK    2  A    between atoms: C_3  and  O_4
REMARK    3  A    between atoms: O_4  and  C_5
REMARK    4  A    between atoms: C_5  and  C_7
REMARK    5  A    between atoms: C_9  and  C_10
REMARK    6  A    between atoms: C_20  and  O_21
REMARK    7  A    between atoms: O_21  and  C_22
REMARK    8  A    between atoms: C_22  and  C_23
REMARK    9  A    between atoms: C_23  and  C_24
REMARK   10  A    between atoms: C_24  and  C_25
REMARK   11  A    between atoms: C_25  and  O_26
REMARK                            x       y       z     vdW  Elec       q    Type
REMARK                         _______ _______ _______ _____ _____    ______ ____
ROOT
ATOM      1  C   UNL     1       7.666   6.717  17.724  0.00  0.00    +0.000 C 
ATOM      2  C   UNL     1       6.912   6.050  18.610  0.00  0.00    +0.000 C 
ATOM      3  C   UNL     1       6.164   4.789  18.289  0.00  0.00    +0.000 C 
ATOM      4  C   UNL     1       6.718   4.203  16.984  0.00  0.00    +0.000 C 
ATOM      5  C   UNL     1       7.006   5.280  15.937  0.00  0.00    +0.000 C 
ATOM      6  O   UNL     1       7.870   6.315  16.421  0.00  0.00    +0.000 OA
ENDROOT
BRANCH   3   7
ATOM      7  C   UNL     1       4.648   4.993  18.311  0.00  0.00    +0.000 A 
ATOM      8  C   UNL     1       4.015   6.225  18.271  0.00  0.00    +0.000 A 
ATOM      9  S   UNL     1       2.319   6.124  18.268  0.00  0.00    +0.000 S 
ATOM     10  C   UNL     1       2.354   4.413  18.364  0.00  0.00    +0.000 A 
ATOM     11  C   UNL     1       1.233   3.559  18.390  0.00  0.00    +0.000 A 
ATOM     12  C   UNL     1       1.428   2.188  18.543  0.00  0.00    +0.000 A 
ATOM     13  C   UNL     1       2.709   1.675  18.666  0.00  0.00    +0.000 A 
ATOM     14  C   UNL     1       3.822   2.523  18.606  0.00  0.00    +0.000 A 
ATOM     15  C   UNL     1       3.664   3.925  18.438  0.00  0.00    +0.000 A 
ENDBRANCH   3   7
BRANCH   1  16
ATOM     16  C   UNL     1       8.286   7.996  18.206  0.00  0.00    +0.000 C 
ATOM     17  O   UNL     1       8.875   8.100  19.276  0.00  0.00    +0.000 OA
BRANCH  16  18
ATOM     18  O   UNL     1       8.071   8.999  17.318  0.00  0.00    +0.000 OA
BRANCH  18  19
ATOM     19  C   UNL     1       7.944  10.302  17.896  0.00  0.00    +0.000 C 
BRANCH  19  21
ATOM     20  C   UNL     1      10.127  11.532  17.788  0.00  0.00    +0.000 C 
ATOM     21  C   UNL     1       9.277  10.722  18.435  0.00  0.00    +0.000 C 
ENDBRANCH  19  21
ENDBRANCH  18  19
ENDBRANCH  16  18
ENDBRANCH   1  16
BRANCH   5  22
ATOM     22  O   UNL     1       5.776   5.791  15.421  0.00  0.00    +0.000 OA
BRANCH  22  23
ATOM     23  C   UNL     1       5.191   4.930  14.448  0.00  0.00    +0.000 C 
BRANCH  23  24
ATOM     24  C   UNL     1       6.289   4.092  13.796  0.00  0.00    +0.000 C 
BRANCH  24  25
ATOM     25  C   UNL     1       5.835   3.353  12.536  0.00  0.00    +0.000 C 
BRANCH  25  26
ATOM     26  C   UNL     1       6.985   2.941  11.628  0.00  0.00    +0.000 C 
BRANCH  26  27
ATOM     27  O   UNL     1       6.894   1.559  11.303  0.00  0.00    +0.000 OA
ATOM     28  H   UNL     1       6.214   1.461  10.614  0.00  0.00    +0.000 HD
ENDBRANCH  26  27
ENDBRANCH  25  26
ENDBRANCH  24  25
ENDBRANCH  23  24
ENDBRANCH  22  23
ENDBRANCH   5  22
TORSDOF 11
ENDMDL
MODEL 9
REMARK VINA RESULT:      -6.3      1.027      1.181
REMARK  Name = 
REMARK  11 active torsions:
REMARK  status: ('A' for Active; 'I' for Inactive)
REMARK    1  A    between atoms: C_2  and  C_3
REMARK    2  A    between atoms: C_3  and  O_4
REMARK    3  A    between atoms: O_4  and  C_5
REMARK    4  A    between atoms: C_5  and  C_7
REMARK    5  A    between atoms: C_9  and  C_10
REMARK    6  A    between atoms: C_20  and  O_21
REMARK    7  A    between atoms: O_21  and  C_22
REMARK    8  A    between atoms: C_22  and  C_23
REMARK    9  A    between atoms: C_23  and  C_24
REMARK   10  A    between atoms: C_24  and  C_25
REMARK   11  A    between atoms: C_25  and  O_26
REMARK                            x       y       z     vdW  Elec       q    Type
REMARK                         _______ _______ _______ _____ _____    ______ ____
ROOT
ATOM      1  C   UNL     1       6.189   5.315  15.045  0.00  0.00    +0.000 C 
ATOM      2  C   UNL     1       4.933   4.932  15.314  0.00  0.00    +0.000 C 
ATOM      3  C   UNL     1       4.163   5.380  16.522  0.00  0.00    +0.000 C 
ATOM      4  C   UNL     1       4.862   6.604  17.129  0.00  0.00    +0.000 C 
ATOM      5  C   UNL     1       6.385   6.468  17.125  0.00  0.00    +0.000 C 
ATOM      6  O   UNL     1       6.919   6.185  15.826  0.00  0.00    +0.000 OA
ENDROOT
BRANCH   3   7
ATOM      7  C   UNL     1       3.905   4.234  17.503  0.00  0.00    +0.000 A 
ATOM      8  C   UNL     1       4.313   2.923  17.312  0.00  0.00    +0.000 A 
ATOM      9  S   UNL     1       3.914   1.888  18.599  0.00  0.00    +0.000 S 
ATOM     10  C   UNL     1       3.133   3.148  19.459  0.00  0.00    +0.000 A 
ATOM     11  C   UNL     1       2.520   3.036  20.723  0.00  0.00    +0.000 A 
ATOM     12  C   UNL     1       1.863   4.141  21.259  0.00  0.00    +0.000 A 
ATOM     13  C   UNL     1       1.815   5.333  20.555  0.00  0.00    +0.000 A 
ATOM     14  C   UNL     1       2.453   5.450  19.313  0.00  0.00    +0.000 A 
ATOM     15  C   UNL     1       3.145   4.350  18.741  0.00  0.00    +0.000 A 
ENDBRANCH   3   7
BRANCH   1  16
ATOM     16  C   UNL     1       6.823   4.712  13.826  0.00  0.00    +0.000 C 
ATOM     17  O   UNL     1       7.698   5.271  13.174  0.00  0.00    +0.000 OA
BRANCH  16  18
ATOM     18  O   UNL     1       6.273   3.505  13.543  0.00  0.00    +0.000 OA
BRANCH  18  19
ATOM     19  C   UNL     1       6.008   3.269  12.157  0.00  0.00    +0.000 C 
BRANCH  19  21
ATOM     20  C   UNL     1       6.354   1.148  10.864  0.00  0.00    +0.000 C 
ATOM     21  C   UNL     1       6.808   2.085  11.708  0.00  0.00    +0.000 C 
ENDBRANCH  19  21
ENDBRANCH  18  19
ENDBRANCH  16  18
ENDBRANCH   1  16
BRANCH   5  22
ATOM     22  O   UNL     1       6.784   5.505  18.101  0.00  0.00    +0.000 OA
BRANCH  22  23
ATOM     23  C   UNL     1       7.302   6.107  19.284  0.00  0.00    +0.000 C 
BRANCH  23  24
ATOM     24  C   UNL     1       8.506   6.974  18.919  0.00  0.00    +0.000 C 
BRANCH  24  25
ATOM     25  C   UNL     1       8.132   8.324  18.306  0.00  0.00    +0.000 C 
BRANCH  25  26
ATOM     26  C   UNL     1       8.949   9.486  18.854  0.00  0.00    +0.000 C 
BRANCH  26  27
ATOM     27  O   UNL     1       8.661  10.680  18.136  0.00  0.00    +0.000 OA
ATOM     28  H   UNL     1       8.912  11.432  18.701  0.00  0.00    +0.000 HD
ENDBRANCH  26  27
ENDBRANCH  25  26
ENDBRANCH  24  25
ENDBRANCH  23  24
ENDBRANCH  22  23
ENDBRANCH   5  22
TORSDOF 11
ENDMDL
