MODEL 1
REMARK VINA RESULT:      -6.6      0.000      0.000
REMARK  Name = 
REMARK  19 active torsions:
REMARK  status: ('A' for Active; 'I' for Inactive)
REMARK    1  A    between atoms: C_2  and  C_3
REMARK    2  A    between atoms: C_6  and  O_7
REMARK    3  A    between atoms: O_7  and  C_8
REMARK    4  A    between atoms: C_8  and  C_9
REMARK    5  A    between atoms: C_9  and  C_10
REMARK    6  A    between atoms: C_10  and  C_11
REMARK    7  A    between atoms: C_11  and  C_12
REMARK    8  A    between atoms: C_12  and  C_13
REMARK    9  A    between atoms: C_13  and  C_14
REMARK   10  A    between atoms: C_14  and  C_15
REMARK   11  A    between atoms: C_15  and  C_16
REMARK   12  A    between atoms: C_16  and  C_17
REMARK   13  A    between atoms: C_17  and  C_18
REMARK   14  A    between atoms: C_18  and  C_19
REMARK   15  A    between atoms: C_19  and  C_20
REMARK   16  A    between atoms: C_20  and  C_21
REMARK   17  A    between atoms: C_21  and  O_22
REMARK   18  A    between atoms: O_22  and  C_23
REMARK   19  A    between atoms: C_26  and  C_27
REMARK                            x       y       z     vdW  Elec       q    Type
REMARK                         _______ _______ _______ _____ _____    ______ ____
ROOT
ATOM      1  C   UNL     1       2.695   6.078  19.858  0.00  0.00    +0.000 C 
ENDROOT
BRANCH   1   2
ATOM      2  C   UNL     1       2.252   7.507  19.559  0.00  0.00    +0.000 C 
BRANCH   2   3
ATOM      3  C   UNL     1       2.328   7.833  18.066  0.00  0.00    +0.000 C 
BRANCH   3   4
ATOM      4  C   UNL     1       2.056   9.306  17.821  0.00  0.00    +0.000 C 
BRANCH   4   5
ATOM      5  C   UNL     1       0.690   9.712  18.373  0.00  0.00    +0.000 C 
BRANCH   5   6
ATOM      6  C   UNL     1       0.799  10.755  19.483  0.00  0.00    +0.000 C 
BRANCH   6   7
ATOM      7  C   UNL     1       0.125  12.069  19.097  0.00  0.00    +0.000 C 
BRANCH   7   8
ATOM      8  O   UNL     1      -0.947  11.802  18.198  0.00  0.00    +0.000 OA
BRANCH   8  12
ATOM      9  C   UNL     1      -4.841  12.231  19.615  0.00  0.00    +0.000 A 
ATOM     10  C   UNL     1      -4.563  11.591  18.403  0.00  0.00    +0.000 A 
ATOM     11  C   UNL     1      -3.239  11.464  17.973  0.00  0.00    +0.000 A 
ATOM     12  C   UNL     1      -2.195  11.988  18.736  0.00  0.00    +0.000 A 
ATOM     13  C   UNL     1      -2.477  12.615  19.958  0.00  0.00    +0.000 A 
ATOM     14  C   UNL     1      -3.799  12.739  20.399  0.00  0.00    +0.000 A 
BRANCH   9  16
ATOM     15  O   UNL     1      -6.607  12.011  21.192  0.00  0.00    +0.000 OA
ATOM     16  C   UNL     1      -6.239  12.378  20.082  0.00  0.00    +0.000 C 
ENDBRANCH   9  16
ENDBRANCH   8  12
ENDBRANCH   7   8
ENDBRANCH   6   7
ENDBRANCH   5   6
ENDBRANCH   4   5
ENDBRANCH   3   4
ENDBRANCH   2   3
ENDBRANCH   1   2
BRANCH   1  17
ATOM     17  C   UNL     1       1.617   5.300  20.607  0.00  0.00    +0.000 C 
BRANCH  17  18
ATOM     18  C   UNL     1       2.200   4.111  21.346  0.00  0.00    +0.000 C 
BRANCH  18  19
ATOM     19  C   UNL     1       1.486   2.833  20.913  0.00  0.00    +0.000 C 
BRANCH  19  20
ATOM     20  C   UNL     1       0.736   3.078  19.616  0.00  0.00    +0.000 C 
BRANCH  20  21
ATOM     21  C   UNL     1       1.537   2.612  18.403  0.00  0.00    +0.000 C 
BRANCH  21  22
ATOM     22  C   UNL     1       2.770   1.804  18.804  0.00  0.00    +0.000 C 
BRANCH  22  23
ATOM     23  C   UNL     1       4.067   2.545  18.490  0.00  0.00    +0.000 C 
BRANCH  23  24
ATOM     24  O   UNL     1       3.834   3.480  17.442  0.00  0.00    +0.000 OA
BRANCH  24  25
ATOM     25  C   UNL     1       4.715   4.529  17.411  0.00  0.00    +0.000 A 
ATOM     26  C   UNL     1       5.661   4.524  18.433  0.00  0.00    +0.000 A 
ATOM     27  C   UNL     1       6.607   5.542  18.518  0.00  0.00    +0.000 A 
ATOM     28  C   UNL     1       6.614   6.560  17.562  0.00  0.00    +0.000 A 
ATOM     29  C   UNL     1       5.687   6.563  16.520  0.00  0.00    +0.000 A 
ATOM     30  C   UNL     1       4.738   5.544  16.446  0.00  0.00    +0.000 A 
BRANCH  28  31
ATOM     31  C   UNL     1       7.601   7.651  17.635  0.00  0.00    +0.000 C 
ATOM     32  O   UNL     1       8.400   7.741  18.556  0.00  0.00    +0.000 OA
ENDBRANCH  28  31
ENDBRANCH  24  25
ENDBRANCH  23  24
ENDBRANCH  22  23
ENDBRANCH  21  22
ENDBRANCH  20  21
ENDBRANCH  19  20
ENDBRANCH  18  19
ENDBRANCH  17  18
ENDBRANCH   1  17
TORSDOF 19
ENDMDL
MODEL 2
REMARK VINA RESULT:      -6.6      2.930      9.175
REMARK  Name = 
REMARK  19 active torsions:
REMARK  status: ('A' for Active; 'I' for Inactive)
REMARK    1  A    between atoms: C_2  and  C_3
REMARK    2  A    between atoms: C_6  and  O_7
REMARK    3  A    between atoms: O_7  and  C_8
REMARK    4  A    between atoms: C_8  and  C_9
REMARK    5  A    between atoms: C_9  and  C_10
REMARK    6  A    between atoms: C_10  and  C_11
REMARK    7  A    between atoms: C_11  and  C_12
REMARK    8  A    between atoms: C_12  and  C_13
REMARK    9  A    between atoms: C_13  and  C_14
REMARK   10  A    between atoms: C_14  and  C_15
REMARK   11  A    between atoms: C_15  and  C_16
REMARK   12  A    between atoms: C_16  and  C_17
REMARK   13  A    between atoms: C_17  and  C_18
REMARK   14  A    between atoms: C_18  and  C_19
REMARK   15  A    between atoms: C_19  and  C_20
REMARK   16  A    between atoms: C_20  and  C_21
REMARK   17  A    between atoms: C_21  and  O_22
REMARK   18  A    between atoms: O_22  and  C_23
REMARK   19  A    between atoms: C_26  and  C_27
REMARK                            x       y       z     vdW  Elec       q    Type
REMARK                         _______ _______ _______ _____ _____    ______ ____
ROOT
ATOM      1  C   UNL     1       3.109   4.128  17.215  0.00  0.00    +0.000 C 
ENDROOT
BRANCH   1   2
ATOM      2  C   UNL     1       4.131   3.090  17.667  0.00  0.00    +0.000 C 
BRANCH   2   3
ATOM      3  C   UNL     1       5.032   3.618  18.786  0.00  0.00    +0.000 C 
BRANCH   3   4
ATOM      4  C   UNL     1       5.176   5.126  18.696  0.00  0.00    +0.000 C 
BRANCH   4   5
ATOM      5  C   UNL     1       6.564   5.573  19.157  0.00  0.00    +0.000 C 
BRANCH   5   6
ATOM      6  C   UNL     1       7.551   5.691  17.999  0.00  0.00    +0.000 C 
BRANCH   6   7
ATOM      7  C   UNL     1       6.855   6.065  16.694  0.00  0.00    +0.000 C 
BRANCH   7   8
ATOM      8  O   UNL     1       7.725   5.793  15.600  0.00  0.00    +0.000 OA
BRANCH   8  12
ATOM      9  C   UNL     1       5.730   3.667  12.625  0.00  0.00    +0.000 A 
ATOM     10  C   UNL     1       5.180   3.848  13.898  0.00  0.00    +0.000 A 
ATOM     11  C   UNL     1       5.884   4.576  14.861  0.00  0.00    +0.000 A 
ATOM     12  C   UNL     1       7.140   5.108  14.567  0.00  0.00    +0.000 A 
ATOM     13  C   UNL     1       7.680   4.938  13.284  0.00  0.00    +0.000 A 
ATOM     14  C   UNL     1       6.978   4.217  12.312  0.00  0.00    +0.000 A 
BRANCH   9  16
ATOM     15  O   UNL     1       3.796   3.030  11.397  0.00  0.00    +0.000 OA
ATOM     16  C   UNL     1       4.998   2.895  11.595  0.00  0.00    +0.000 C 
ENDBRANCH   9  16
ENDBRANCH   8  12
ENDBRANCH   7   8
ENDBRANCH   6   7
ENDBRANCH   5   6
ENDBRANCH   4   5
ENDBRANCH   3   4
ENDBRANCH   2   3
ENDBRANCH   1   2
BRANCH   1  17
ATOM     17  C   UNL     1       1.710   3.801  17.730  0.00  0.00    +0.000 C 
BRANCH  17  18
ATOM     18  C   UNL     1       1.555   2.321  18.021  0.00  0.00    +0.000 C 
BRANCH  18  19
ATOM     19  C   UNL     1       1.711   2.071  19.519  0.00  0.00    +0.000 C 
BRANCH  19  20
ATOM     20  C   UNL     1       0.806   3.010  20.295  0.00  0.00    +0.000 C 
BRANCH  20  21
ATOM     21  C   UNL     1       1.529   3.638  21.485  0.00  0.00    +0.000 C 
BRANCH  21  22
ATOM     22  C   UNL     1       2.387   4.833  21.072  0.00  0.00    +0.000 C 
BRANCH  22  23
ATOM     23  C   UNL     1       1.556   5.938  20.428  0.00  0.00    +0.000 C 
BRANCH  23  24
ATOM     24  O   UNL     1       1.693   7.135  21.186  0.00  0.00    +0.000 OA
BRANCH  24  25
ATOM     25  C   UNL     1       1.379   8.279  20.502  0.00  0.00    +0.000 A 
ATOM     26  C   UNL     1       0.675   9.225  21.245  0.00  0.00    +0.000 A 
ATOM     27  C   UNL     1       0.288  10.428  20.660  0.00  0.00    +0.000 A 
ATOM     28  C   UNL     1       0.624  10.691  19.330  0.00  0.00    +0.000 A 
ATOM     29  C   UNL     1       1.349   9.762  18.584  0.00  0.00    +0.000 A 
ATOM     30  C   UNL     1       1.727   8.556  19.174  0.00  0.00    +0.000 A 
BRANCH  28  31
ATOM     31  C   UNL     1       0.220  11.954  18.689  0.00  0.00    +0.000 C 
ATOM     32  O   UNL     1       0.953  12.931  18.666  0.00  0.00    +0.000 OA
ENDBRANCH  28  31
ENDBRANCH  24  25
ENDBRANCH  23  24
ENDBRANCH  22  23
ENDBRANCH  21  22
ENDBRANCH  20  21
ENDBRANCH  19  20
ENDBRANCH  18  19
ENDBRANCH  17  18
ENDBRANCH   1  17
TORSDOF 19
ENDMDL
MODEL 3
REMARK VINA RESULT:      -6.4      1.912     10.226
REMARK  Name = 
REMARK  19 active torsions:
REMARK  status: ('A' for Active; 'I' for Inactive)
REMARK    1  A    between atoms: C_2  and  C_3
REMARK    2  A    between atoms: C_6  and  O_7
REMARK    3  A    between atoms: O_7  and  C_8
REMARK    4  A    between atoms: C_8  and  C_9
REMARK    5  A    between atoms: C_9  and  C_10
REMARK    6  A    between atoms: C_10  and  C_11
REMARK    7  A    between atoms: C_11  and  C_12
REMARK    8  A    between atoms: C_12  and  C_13
REMARK    9  A    between atoms: C_13  and  C_14
REMARK   10  A    between atoms: C_14  and  C_15
REMARK   11  A    between atoms: C_15  and  C_16
REMARK   12  A    between atoms: C_16  and  C_17
REMARK   13  A    between atoms: C_17  and  C_18
REMARK   14  A    between atoms: C_18  and  C_19
REMARK   15  A    between atoms: C_19  and  C_20
REMARK   16  A    between atoms: C_20  and  C_21
REMARK   17  A    between atoms: C_21  and  O_22
REMARK   18  A    between atoms: O_22  and  C_23
REMARK   19  A    between atoms: C_26  and  C_27
REMARK                            x       y       z     vdW  Elec       q    Type
REMARK                         _______ _______ _______ _____ _____    ______ ____
ROOT
ATOM      1  C   UNL     1       2.311   5.518  20.160  0.00  0.00    +0.000 C 
ENDROOT
BRANCH   1   2
ATOM      2  C   UNL     1       1.027   4.825  20.607  0.00  0.00    +0.000 C 
BRANCH   2   3
ATOM      3  C   UNL     1       1.228   3.324  20.822  0.00  0.00    +0.000 C 
BRANCH   3   4
ATOM      4  C   UNL     1       2.461   2.834  20.086  0.00  0.00    +0.000 C 
BRANCH   4   5
ATOM      5  C   UNL     1       2.088   1.821  19.003  0.00  0.00    +0.000 C 
BRANCH   5   6
ATOM      6  C   UNL     1       2.504   2.282  17.608  0.00  0.00    +0.000 C 
BRANCH   6   7
ATOM      7  C   UNL     1       3.903   2.892  17.606  0.00  0.00    +0.000 C 
BRANCH   7   8
ATOM      8  O   UNL     1       3.929   4.008  16.721  0.00  0.00    +0.000 OA
BRANCH   8  12
ATOM      9  C   UNL     1       6.939   6.674  17.808  0.00  0.00    +0.000 A 
ATOM     10  C   UNL     1       6.643   5.542  18.575  0.00  0.00    +0.000 A 
ATOM     11  C   UNL     1       5.629   4.672  18.165  0.00  0.00    +0.000 A 
ATOM     12  C   UNL     1       4.898   4.935  17.006  0.00  0.00    +0.000 A 
ATOM     13  C   UNL     1       5.209   6.063  16.232  0.00  0.00    +0.000 A 
ATOM     14  C   UNL     1       6.228   6.934  16.632  0.00  0.00    +0.000 A 
BRANCH   9  16
ATOM     15  O   UNL     1       8.180   8.700  17.703  0.00  0.00    +0.000 OA
ATOM     16  C   UNL     1       8.008   7.608  18.232  0.00  0.00    +0.000 C 
ENDBRANCH   9  16
ENDBRANCH   8  12
ENDBRANCH   7   8
ENDBRANCH   6   7
ENDBRANCH   5   6
ENDBRANCH   4   5
ENDBRANCH   3   4
ENDBRANCH   2   3
ENDBRANCH   1   2
BRANCH   1  17
ATOM     17  C   UNL     1       2.162   6.139  18.774  0.00  0.00    +0.000 C 
BRANCH  17  18
ATOM     18  C   UNL     1       2.705   7.555  18.737  0.00  0.00    +0.000 C 
BRANCH  18  19
ATOM     19  C   UNL     1       2.167   8.282  17.507  0.00  0.00    +0.000 C 
BRANCH  19  20
ATOM     20  C   UNL     1       1.803   9.709  17.872  0.00  0.00    +0.000 C 
BRANCH  20  21
ATOM     21  C   UNL     1       0.311   9.856  18.164  0.00  0.00    +0.000 C 
BRANCH  21  22
ATOM     22  C   UNL     1       0.039  10.884  19.261  0.00  0.00    +0.000 C 
BRANCH  22  23
ATOM     23  C   UNL     1       1.021  10.757  20.421  0.00  0.00    +0.000 C 
BRANCH  23  24
ATOM     24  O   UNL     1       0.914  11.903  21.259  0.00  0.00    +0.000 OA
BRANCH  24  25
ATOM     25  C   UNL     1      -0.307  12.053  21.862  0.00  0.00    +0.000 A 
ATOM     26  C   UNL     1      -1.009  13.193  21.475  0.00  0.00    +0.000 A 
ATOM     27  C   UNL     1      -2.259  13.465  22.025  0.00  0.00    +0.000 A 
ATOM     28  C   UNL     1      -2.815  12.581  22.952  0.00  0.00    +0.000 A 
ATOM     29  C   UNL     1      -2.132  11.424  23.328  0.00  0.00    +0.000 A 
ATOM     30  C   UNL     1      -0.877  11.162  22.780  0.00  0.00    +0.000 A 
BRANCH  28  31
ATOM     31  C   UNL     1      -4.133  12.851  23.551  0.00  0.00    +0.000 C 
ATOM     32  O   UNL     1      -5.173  12.496  23.015  0.00  0.00    +0.000 OA
ENDBRANCH  28  31
ENDBRANCH  24  25
ENDBRANCH  23  24
ENDBRANCH  22  23
ENDBRANCH  21  22
ENDBRANCH  20  21
ENDBRANCH  19  20
ENDBRANCH  18  19
ENDBRANCH  17  18
ENDBRANCH   1  17
TORSDOF 19
ENDMDL
MODEL 4
REMARK VINA RESULT:      -6.4      1.555      2.027
REMARK  Name = 
REMARK  19 active torsions:
REMARK  status: ('A' for Active; 'I' for Inactive)
REMARK    1  A    between atoms: C_2  and  C_3
REMARK    2  A    between atoms: C_6  and  O_7
REMARK    3  A    between atoms: O_7  and  C_8
REMARK    4  A    between atoms: C_8  and  C_9
REMARK    5  A    between atoms: C_9  and  C_10
REMARK    6  A    between atoms: C_10  and  C_11
REMARK    7  A    between atoms: C_11  and  C_12
REMARK    8  A    between atoms: C_12  and  C_13
REMARK    9  A    between atoms: C_13  and  C_14
REMARK   10  A    between atoms: C_14  and  C_15
REMARK   11  A    between atoms: C_15  and  C_16
REMARK   12  A    between atoms: C_16  and  C_17
REMARK   13  A    between atoms: C_17  and  C_18
REMARK   14  A    between atoms: C_18  and  C_19
REMARK   15  A    between atoms: C_19  and  C_20
REMARK   16  A    between atoms: C_20  and  C_21
REMARK   17  A    between atoms: C_21  and  O_22
REMARK   18  A    between atoms: O_22  and  C_23
REMARK   19  A    between atoms: C_26  and  C_27
REMARK                            x       y       z     vdW  Elec       q    Type
REMARK                         _______ _______ _______ _____ _____    ______ ____
ROOT
ATOM      1  C   UNL     1       3.165   7.161  18.930  0.00  0.00    +0.000 C 
ENDROOT
BRANCH   1   2
ATOM      2  C   UNL     1       2.995   7.930  17.623  0.00  0.00    +0.000 C 
BRANCH   2   3
ATOM      3  C   UNL     1       1.625   8.604  17.526  0.00  0.00    +0.000 C 
BRANCH   3   4
ATOM      4  C   UNL     1       1.554   9.818  18.434  0.00  0.00    +0.000 C 
BRANCH   4   5
ATOM      5  C   UNL     1       0.454   9.655  19.484  0.00  0.00    +0.000 C 
BRANCH   5   6
ATOM      6  C   UNL     1       0.844  10.258  20.831  0.00  0.00    +0.000 C 
BRANCH   6   7
ATOM      7  C   UNL     1       1.145  11.750  20.720  0.00  0.00    +0.000 C 
BRANCH   7   8
ATOM      8  O   UNL     1       0.585  12.428  21.841  0.00  0.00    +0.000 OA
BRANCH   8  12
ATOM      9  C   UNL     1      -3.569  12.680  22.014  0.00  0.00    +0.000 A 
ATOM     10  C   UNL     1      -2.810  12.251  23.107  0.00  0.00    +0.000 A 
ATOM     11  C   UNL     1      -1.417  12.190  23.004  0.00  0.00    +0.000 A 
ATOM     12  C   UNL     1      -0.782  12.538  21.812  0.00  0.00    +0.000 A 
ATOM     13  C   UNL     1      -1.546  12.983  20.724  0.00  0.00    +0.000 A 
ATOM     14  C   UNL     1      -2.940  13.054  20.822  0.00  0.00    +0.000 A 
BRANCH   9  16
ATOM     15  O   UNL     1      -5.784  12.095  21.375  0.00  0.00    +0.000 OA
ATOM     16  C   UNL     1      -5.046  12.745  22.107  0.00  0.00    +0.000 C 
ENDBRANCH   9  16
ENDBRANCH   8  12
ENDBRANCH   7   8
ENDBRANCH   6   7
ENDBRANCH   5   6
ENDBRANCH   4   5
ENDBRANCH   3   4
ENDBRANCH   2   3
ENDBRANCH   1   2
BRANCH   1  17
ATOM     17  C   UNL     1       2.008   6.196  19.169  0.00  0.00    +0.000 C 
BRANCH  17  18
ATOM     18  C   UNL     1       1.916   5.787  20.627  0.00  0.00    +0.000 C 
BRANCH  18  19
ATOM     19  C   UNL     1       1.735   4.274  20.728  0.00  0.00    +0.000 C 
BRANCH  19  20
ATOM     20  C   UNL     1       1.274   3.722  19.391  0.00  0.00    +0.000 C 
BRANCH  20  21
ATOM     21  C   UNL     1       1.267   2.194  19.383  0.00  0.00    +0.000 C 
BRANCH  21  22
ATOM     22  C   UNL     1       2.377   1.618  18.505  0.00  0.00    +0.000 C 
BRANCH  22  23
ATOM     23  C   UNL     1       3.678   2.404  18.640  0.00  0.00    +0.000 C 
BRANCH  23  24
ATOM     24  O   UNL     1       4.074   2.885  17.360  0.00  0.00    +0.000 OA
BRANCH  24  25
ATOM     25  C   UNL     1       4.853   4.011  17.393  0.00  0.00    +0.000 A 
ATOM     26  C   UNL     1       5.525   4.217  18.596  0.00  0.00    +0.000 A 
ATOM     27  C   UNL     1       6.342   5.333  18.760  0.00  0.00    +0.000 A 
ATOM     28  C   UNL     1       6.500   6.236  17.705  0.00  0.00    +0.000 A 
ATOM     29  C   UNL     1       5.851   6.026  16.488  0.00  0.00    +0.000 A 
ATOM     30  C   UNL     1       5.028   4.911  16.334  0.00  0.00    +0.000 A 
BRANCH  28  31
ATOM     31  C   UNL     1       7.354   7.426  17.857  0.00  0.00    +0.000 C 
ATOM     32  O   UNL     1       7.907   7.952  16.902  0.00  0.00    +0.000 OA
ENDBRANCH  28  31
ENDBRANCH  24  25
ENDBRANCH  23  24
ENDBRANCH  22  23
ENDBRANCH  21  22
ENDBRANCH  20  21
ENDBRANCH  19  20
ENDBRANCH  18  19
ENDBRANCH  17  18
ENDBRANCH   1  17
TORSDOF 19
ENDMDL
MODEL 5
REMARK VINA RESULT:      -6.2      2.857      5.806
REMARK  Name = 
REMARK  19 active torsions:
REMARK  status: ('A' for Active; 'I' for Inactive)
REMARK    1  A    between atoms: C_2  and  C_3
REMARK    2  A    between atoms: C_6  and  O_7
REMARK    3  A    between atoms: O_7  and  C_8
REMARK    4  A    between atoms: C_8  and  C_9
REMARK    5  A    between atoms: C_9  and  C_10
REMARK    6  A    between atoms: C_10  and  C_11
REMARK    7  A    between atoms: C_11  and  C_12
REMARK    8  A    between atoms: C_12  and  C_13
REMARK    9  A    between atoms: C_13  and  C_14
REMARK   10  A    between atoms: C_14  and  C_15
REMARK   11  A    between atoms: C_15  and  C_16
REMARK   12  A    between atoms: C_16  and  C_17
REMARK   13  A    between atoms: C_17  and  C_18
REMARK   14  A    between atoms: C_18  and  C_19
REMARK   15  A    between atoms: C_19  and  C_20
REMARK   16  A    between atoms: C_20  and  C_21
REMARK   17  A    between atoms: C_21  and  O_22
REMARK   18  A    between atoms: O_22  and  C_23
REMARK   19  A    between atoms: C_26  and  C_27
REMARK                            x       y       z     vdW  Elec       q    Type
REMARK                         _______ _______ _______ _____ _____    ______ ____
ROOT
ATOM      1  C   UNL     1       2.812   3.065  17.411  0.00  0.00    +0.000 C 
ENDROOT
BRANCH   1   2
ATOM      2  C   UNL     1       1.595   2.699  18.256  0.00  0.00    +0.000 C 
BRANCH   2   3
ATOM      3  C   UNL     1       1.977   1.883  19.493  0.00  0.00    +0.000 C 
BRANCH   3   4
ATOM      4  C   UNL     1       1.726   2.677  20.762  0.00  0.00    +0.000 C 
BRANCH   4   5
ATOM      5  C   UNL     1       0.964   3.968  20.460  0.00  0.00    +0.000 C 
BRANCH   5   6
ATOM      6  C   UNL     1       1.835   5.211  20.633  0.00  0.00    +0.000 C 
BRANCH   6   7
ATOM      7  C   UNL     1       1.082   6.487  20.268  0.00  0.00    +0.000 C 
BRANCH   7   8
ATOM      8  O   UNL     1       1.613   7.577  21.017  0.00  0.00    +0.000 OA
BRANCH   8  12
ATOM      9  C   UNL     1       0.475  11.403  19.825  0.00  0.00    +0.000 A 
ATOM     10  C   UNL     1       0.334  10.969  21.148  0.00  0.00    +0.000 A 
ATOM     11  C   UNL     1       0.737   9.679  21.502  0.00  0.00    +0.000 A 
ATOM     12  C   UNL     1       1.263   8.814  20.541  0.00  0.00    +0.000 A 
ATOM     13  C   UNL     1       1.418   9.259  19.219  0.00  0.00    +0.000 A 
ATOM     14  C   UNL     1       1.024  10.552  18.859  0.00  0.00    +0.000 A 
BRANCH   9  16
ATOM     15  O   UNL     1      -0.113  13.098  18.266  0.00  0.00    +0.000 OA
ATOM     16  C   UNL     1       0.048  12.766  19.434  0.00  0.00    +0.000 C 
ENDBRANCH   9  16
ENDBRANCH   8  12
ENDBRANCH   7   8
ENDBRANCH   6   7
ENDBRANCH   5   6
ENDBRANCH   4   5
ENDBRANCH   3   4
ENDBRANCH   2   3
ENDBRANCH   1   2
BRANCH   1  17
ATOM     17  C   UNL     1       4.090   3.087  18.246  0.00  0.00    +0.000 C 
BRANCH  17  18
ATOM     18  C   UNL     1       4.692   4.478  18.306  0.00  0.00    +0.000 C 
BRANCH  18  19
ATOM     19  C   UNL     1       3.800   5.459  17.550  0.00  0.00    +0.000 C 
BRANCH  19  20
ATOM     20  C   UNL     1       4.623   6.645  17.081  0.00  0.00    +0.000 C 
BRANCH  20  21
ATOM     21  C   UNL     1       5.812   6.908  18.003  0.00  0.00    +0.000 C 
BRANCH  21  22
ATOM     22  C   UNL     1       7.142   6.861  17.253  0.00  0.00    +0.000 C 
BRANCH  22  23
ATOM     23  C   UNL     1       7.327   5.548  16.498  0.00  0.00    +0.000 C 
BRANCH  23  24
ATOM     24  O   UNL     1       7.779   5.822  15.177  0.00  0.00    +0.000 OA
BRANCH  24  25
ATOM     25  C   UNL     1       7.216   5.033  14.209  0.00  0.00    +0.000 A 
ATOM     26  C   UNL     1       6.078   4.339  14.614  0.00  0.00    +0.000 A 
ATOM     27  C   UNL     1       5.418   3.495  13.725  0.00  0.00    +0.000 A 
ATOM     28  C   UNL     1       5.893   3.360  12.418  0.00  0.00    +0.000 A 
ATOM     29  C   UNL     1       7.017   4.068  11.994  0.00  0.00    +0.000 A 
ATOM     30  C   UNL     1       7.678   4.906  12.892  0.00  0.00    +0.000 A 
BRANCH  28  31
ATOM     31  C   UNL     1       5.215   2.468  11.462  0.00  0.00    +0.000 C 
ATOM     32  O   UNL     1       5.680   1.382  11.148  0.00  0.00    +0.000 OA
ENDBRANCH  28  31
ENDBRANCH  24  25
ENDBRANCH  23  24
ENDBRANCH  22  23
ENDBRANCH  21  22
ENDBRANCH  20  21
ENDBRANCH  19  20
ENDBRANCH  18  19
ENDBRANCH  17  18
ENDBRANCH   1  17
TORSDOF 19
ENDMDL
MODEL 6
REMARK VINA RESULT:      -6.2      1.613     10.565
REMARK  Name = 
REMARK  19 active torsions:
REMARK  status: ('A' for Active; 'I' for Inactive)
REMARK    1  A    between atoms: C_2  and  C_3
REMARK    2  A    between atoms: C_6  and  O_7
REMARK    3  A    between atoms: O_7  and  C_8
REMARK    4  A    between atoms: C_8  and  C_9
REMARK    5  A    between atoms: C_9  and  C_10
REMARK    6  A    between atoms: C_10  and  C_11
REMARK    7  A    between atoms: C_11  and  C_12
REMARK    8  A    between atoms: C_12  and  C_13
REMARK    9  A    between atoms: C_13  and  C_14
REMARK   10  A    between atoms: C_14  and  C_15
REMARK   11  A    between atoms: C_15  and  C_16
REMARK   12  A    between atoms: C_16  and  C_17
REMARK   13  A    between atoms: C_17  and  C_18
REMARK   14  A    between atoms: C_18  and  C_19
REMARK   15  A    between atoms: C_19  and  C_20
REMARK   16  A    between atoms: C_20  and  C_21
REMARK   17  A    between atoms: C_21  and  O_22
REMARK   18  A    between atoms: O_22  and  C_23
REMARK   19  A    between atoms: C_26  and  C_27
REMARK                            x       y       z     vdW  Elec       q    Type
REMARK                         _______ _______ _______ _____ _____    ______ ____
ROOT
ATOM      1  C   UNL     1       2.337   7.311  19.852  0.00  0.00    +0.000 C 
ENDROOT
BRANCH   1   2
ATOM      2  C   UNL     1       1.531   6.432  20.805  0.00  0.00    +0.000 C 
BRANCH   2   3
ATOM      3  C   UNL     1       1.475   4.976  20.337  0.00  0.00    +0.000 C 
BRANCH   3   4
ATOM      4  C   UNL     1       2.015   4.045  21.407  0.00  0.00    +0.000 C 
BRANCH   4   5
ATOM      5  C   UNL     1       1.733   2.584  21.057  0.00  0.00    +0.000 C 
BRANCH   5   6
ATOM      6  C   UNL     1       1.644   2.354  19.551  0.00  0.00    +0.000 C 
BRANCH   6   7
ATOM      7  C   UNL     1       3.016   2.103  18.932  0.00  0.00    +0.000 C 
BRANCH   7   8
ATOM      8  O   UNL     1       3.124   2.831  17.713  0.00  0.00    +0.000 OA
BRANCH   8  12
ATOM      9  C   UNL     1       6.271   5.539  17.369  0.00  0.00    +0.000 A 
ATOM     10  C   UNL     1       5.858   4.746  16.293  0.00  0.00    +0.000 A 
ATOM     11  C   UNL     1       4.792   3.857  16.454  0.00  0.00    +0.000 A 
ATOM     12  C   UNL     1       4.148   3.743  17.687  0.00  0.00    +0.000 A 
ATOM     13  C   UNL     1       4.554   4.552  18.758  0.00  0.00    +0.000 A 
ATOM     14  C   UNL     1       5.616   5.449  18.602  0.00  0.00    +0.000 A 
BRANCH   9  16
ATOM     15  O   UNL     1       7.494   7.516  17.866  0.00  0.00    +0.000 OA
ATOM     16  C   UNL     1       7.402   6.482  17.215  0.00  0.00    +0.000 C 
ENDBRANCH   9  16
ENDBRANCH   8  12
ENDBRANCH   7   8
ENDBRANCH   6   7
ENDBRANCH   5   6
ENDBRANCH   4   5
ENDBRANCH   3   4
ENDBRANCH   2   3
ENDBRANCH   1   2
BRANCH   1  17
ATOM     17  C   UNL     1       1.892   7.126  18.404  0.00  0.00    +0.000 C 
BRANCH  17  18
ATOM     18  C   UNL     1       2.274   8.318  17.548  0.00  0.00    +0.000 C 
BRANCH  18  19
ATOM     19  C   UNL     1       1.878   9.611  18.256  0.00  0.00    +0.000 C 
BRANCH  19  20
ATOM     20  C   UNL     1       0.367   9.759  18.249  0.00  0.00    +0.000 C 
BRANCH  20  21
ATOM     21  C   UNL     1      -0.193   9.909  19.662  0.00  0.00    +0.000 C 
BRANCH  21  22
ATOM     22  C   UNL     1       0.800  10.586  20.606  0.00  0.00    +0.000 C 
BRANCH  22  23
ATOM     23  C   UNL     1       0.230  11.864  21.214  0.00  0.00    +0.000 C 
BRANCH  23  24
ATOM     24  O   UNL     1      -0.894  12.289  20.452  0.00  0.00    +0.000 OA
BRANCH  24  25
ATOM     25  C   UNL     1      -2.046  12.442  21.177  0.00  0.00    +0.000 A 
ATOM     26  C   UNL     1      -1.930  12.122  22.527  0.00  0.00    +0.000 A 
ATOM     27  C   UNL     1      -3.035  12.226  23.370  0.00  0.00    +0.000 A 
ATOM     28  C   UNL     1      -4.255  12.670  22.857  0.00  0.00    +0.000 A 
ATOM     29  C   UNL     1      -4.377  13.016  21.512  0.00  0.00    +0.000 A 
ATOM     30  C   UNL     1      -3.269  12.903  20.673  0.00  0.00    +0.000 A 
BRANCH  28  31
ATOM     31  C   UNL     1      -5.438  12.782  23.728  0.00  0.00    +0.000 C 
ATOM     32  O   UNL     1      -5.539  12.146  24.767  0.00  0.00    +0.000 OA
ENDBRANCH  28  31
ENDBRANCH  24  25
ENDBRANCH  23  24
ENDBRANCH  22  23
ENDBRANCH  21  22
ENDBRANCH  20  21
ENDBRANCH  19  20
ENDBRANCH  18  19
ENDBRANCH  17  18
ENDBRANCH   1  17
TORSDOF 19
ENDMDL
MODEL 7
REMARK VINA RESULT:      -6.2      2.655      9.450
REMARK  Name = 
REMARK  19 active torsions:
REMARK  status: ('A' for Active; 'I' for Inactive)
REMARK    1  A    between atoms: C_2  and  C_3
REMARK    2  A    between atoms: C_6  and  O_7
REMARK    3  A    between atoms: O_7  and  C_8
REMARK    4  A    between atoms: C_8  and  C_9
REMARK    5  A    between atoms: C_9  and  C_10
REMARK    6  A    between atoms: C_10  and  C_11
REMARK    7  A    between atoms: C_11  and  C_12
REMARK    8  A    between atoms: C_12  and  C_13
REMARK    9  A    between atoms: C_13  and  C_14
REMARK   10  A    between atoms: C_14  and  C_15
REMARK   11  A    between atoms: C_15  and  C_16
REMARK   12  A    between atoms: C_16  and  C_17
REMARK   13  A    between atoms: C_17  and  C_18
REMARK   14  A    between atoms: C_18  and  C_19
REMARK   15  A    between atoms: C_19  and  C_20
REMARK   16  A    between atoms: C_20  and  C_21
REMARK   17  A    between atoms: C_21  and  O_22
REMARK   18  A    between atoms: O_22  and  C_23
REMARK   19  A    between atoms: C_26  and  C_27
REMARK                            x       y       z     vdW  Elec       q    Type
REMARK                         _______ _______ _______ _____ _____    ______ ____
ROOT
ATOM      1  C   UNL     1       3.960   3.017  17.944  0.00  0.00    +0.000 C 
ENDROOT
BRANCH   1   2
ATOM      2  C   UNL     1       3.432   4.402  17.584  0.00  0.00    +0.000 C 
BRANCH   2   3
ATOM      3  C   UNL     1       4.348   5.518  18.091  0.00  0.00    +0.000 C 
BRANCH   3   4
ATOM      4  C   UNL     1       5.296   4.995  19.155  0.00  0.00    +0.000 C 
BRANCH   4   5
ATOM      5  C   UNL     1       6.751   5.125  18.705  0.00  0.00    +0.000 C 
BRANCH   5   6
ATOM      6  C   UNL     1       7.077   6.524  18.188  0.00  0.00    +0.000 C 
BRANCH   6   7
ATOM      7  C   UNL     1       7.352   6.526  16.687  0.00  0.00    +0.000 C 
BRANCH   7   8
ATOM      8  O   UNL     1       7.805   5.235  16.289  0.00  0.00    +0.000 OA
BRANCH   8  12
ATOM      9  C   UNL     1       5.803   3.668  12.990  0.00  0.00    +0.000 A 
ATOM     10  C   UNL     1       5.329   3.491  14.294  0.00  0.00    +0.000 A 
ATOM     11  C   UNL     1       6.031   4.043  15.369  0.00  0.00    +0.000 A 
ATOM     12  C   UNL     1       7.212   4.753  15.151  0.00  0.00    +0.000 A 
ATOM     13  C   UNL     1       7.675   4.942  13.840  0.00  0.00    +0.000 A 
ATOM     14  C   UNL     1       6.974   4.399  12.759  0.00  0.00    +0.000 A 
BRANCH   9  16
ATOM     15  O   UNL     1       5.376   2.008  11.342  0.00  0.00    +0.000 OA
ATOM     16  C   UNL     1       5.073   3.085  11.841  0.00  0.00    +0.000 C 
ENDBRANCH   9  16
ENDBRANCH   8  12
ENDBRANCH   7   8
ENDBRANCH   6   7
ENDBRANCH   5   6
ENDBRANCH   4   5
ENDBRANCH   3   4
ENDBRANCH   2   3
ENDBRANCH   1   2
BRANCH   1  17
ATOM     17  C   UNL     1       2.864   1.958  17.864  0.00  0.00    +0.000 C 
BRANCH  17  18
ATOM     18  C   UNL     1       2.185   1.756  19.205  0.00  0.00    +0.000 C 
BRANCH  18  19
ATOM     19  C   UNL     1       0.786   2.364  19.171  0.00  0.00    +0.000 C 
BRANCH  19  20
ATOM     20  C   UNL     1       0.776   3.675  19.935  0.00  0.00    +0.000 C 
BRANCH  20  21
ATOM     21  C   UNL     1       1.980   3.797  20.867  0.00  0.00    +0.000 C 
BRANCH  21  22
ATOM     22  C   UNL     1       2.300   5.251  21.206  0.00  0.00    +0.000 C 
BRANCH  22  23
ATOM     23  C   UNL     1       1.654   6.223  20.224  0.00  0.00    +0.000 C 
BRANCH  23  24
ATOM     24  O   UNL     1       2.256   7.505  20.363  0.00  0.00    +0.000 OA
BRANCH  24  25
ATOM     25  C   UNL     1       1.367   8.544  20.455  0.00  0.00    +0.000 A 
ATOM     26  C   UNL     1       0.710   8.639  21.680  0.00  0.00    +0.000 A 
ATOM     27  C   UNL     1      -0.227   9.646  21.897  0.00  0.00    +0.000 A 
ATOM     28  C   UNL     1      -0.491  10.573  20.886  0.00  0.00    +0.000 A 
ATOM     29  C   UNL     1       0.178  10.502  19.664  0.00  0.00    +0.000 A 
ATOM     30  C   UNL     1       1.109   9.486  19.451  0.00  0.00    +0.000 A 
BRANCH  28  31
ATOM     31  C   UNL     1      -1.482  11.643  21.090  0.00  0.00    +0.000 C 
ATOM     32  O   UNL     1      -1.458  12.680  20.443  0.00  0.00    +0.000 OA
ENDBRANCH  28  31
ENDBRANCH  24  25
ENDBRANCH  23  24
ENDBRANCH  22  23
ENDBRANCH  21  22
ENDBRANCH  20  21
ENDBRANCH  19  20
ENDBRANCH  18  19
ENDBRANCH  17  18
ENDBRANCH   1  17
TORSDOF 19
ENDMDL
MODEL 8
REMARK VINA RESULT:      -6.2      2.837     11.136
REMARK  Name = 
REMARK  19 active torsions:
REMARK  status: ('A' for Active; 'I' for Inactive)
REMARK    1  A    between atoms: C_2  and  C_3
REMARK    2  A    between atoms: C_6  and  O_7
REMARK    3  A    between atoms: O_7  and  C_8
REMARK    4  A    between atoms: C_8  and  C_9
REMARK    5  A    between atoms: C_9  and  C_10
REMARK    6  A    between atoms: C_10  and  C_11
REMARK    7  A    between atoms: C_11  and  C_12
REMARK    8  A    between atoms: C_12  and  C_13
REMARK    9  A    between atoms: C_13  and  C_14
REMARK   10  A    between atoms: C_14  and  C_15
REMARK   11  A    between atoms: C_15  and  C_16
REMARK   12  A    between atoms: C_16  and  C_17
REMARK   13  A    between atoms: C_17  and  C_18
REMARK   14  A    between atoms: C_18  and  C_19
REMARK   15  A    between atoms: C_19  and  C_20
REMARK   16  A    between atoms: C_20  and  C_21
REMARK   17  A    between atoms: C_21  and  O_22
REMARK   18  A    between atoms: O_22  and  C_23
REMARK   19  A    between atoms: C_26  and  C_27
REMARK                            x       y       z     vdW  Elec       q    Type
REMARK                         _______ _______ _______ _____ _____    ______ ____
ROOT
ATOM      1  C   UNL     1       2.871   7.972  18.363  0.00  0.00    +0.000 C 
ENDROOT
BRANCH   1   2
ATOM      2  C   UNL     1       2.404   6.519  18.367  0.00  0.00    +0.000 C 
BRANCH   2   3
ATOM      3  C   UNL     1       2.497   5.889  19.758  0.00  0.00    +0.000 C 
BRANCH   3   4
ATOM      4  C   UNL     1       1.638   4.641  19.844  0.00  0.00    +0.000 C 
BRANCH   4   5
ATOM      5  C   UNL     1       1.466   3.997  18.467  0.00  0.00    +0.000 C 
BRANCH   5   6
ATOM      6  C   UNL     1       1.933   2.544  18.443  0.00  0.00    +0.000 C 
BRANCH   6   7
ATOM      7  C   UNL     1       3.455   2.436  18.470  0.00  0.00    +0.000 C 
BRANCH   7   8
ATOM      8  O   UNL     1       3.987   2.955  17.255  0.00  0.00    +0.000 OA
BRANCH   8  12
ATOM      9  C   UNL     1       6.528   6.246  17.500  0.00  0.00    +0.000 A 
ATOM     10  C   UNL     1       5.778   5.977  16.351  0.00  0.00    +0.000 A 
ATOM     11  C   UNL     1       4.932   4.865  16.319  0.00  0.00    +0.000 A 
ATOM     12  C   UNL     1       4.846   4.011  17.419  0.00  0.00    +0.000 A 
ATOM     13  C   UNL     1       5.588   4.294  18.575  0.00  0.00    +0.000 A 
ATOM     14  C   UNL     1       6.430   5.410  18.618  0.00  0.00    +0.000 A 
BRANCH   9  16
ATOM     15  O   UNL     1       8.230   7.601  18.460  0.00  0.00    +0.000 OA
ATOM     16  C   UNL     1       7.432   7.419  17.548  0.00  0.00    +0.000 C 
ENDBRANCH   9  16
ENDBRANCH   8  12
ENDBRANCH   7   8
ENDBRANCH   6   7
ENDBRANCH   5   6
ENDBRANCH   4   5
ENDBRANCH   3   4
ENDBRANCH   2   3
ENDBRANCH   1   2
BRANCH   1  17
ATOM     17  C   UNL     1       1.933   8.862  17.554  0.00  0.00    +0.000 C 
BRANCH  17  18
ATOM     18  C   UNL     1       0.836   9.450  18.421  0.00  0.00    +0.000 C 
BRANCH  18  19
ATOM     19  C   UNL     1       1.247   9.380  19.890  0.00  0.00    +0.000 C 
BRANCH  19  20
ATOM     20  C   UNL     1       0.023   9.533  20.774  0.00  0.00    +0.000 C 
BRANCH  20  21
ATOM     21  C   UNL     1       0.403   9.654  22.249  0.00  0.00    +0.000 C 
BRANCH  21  22
ATOM     22  C   UNL     1      -0.772  10.118  23.109  0.00  0.00    +0.000 C 
BRANCH  22  23
ATOM     23  C   UNL     1      -1.358  11.436  22.613  0.00  0.00    +0.000 C 
BRANCH  23  24
ATOM     24  O   UNL     1      -0.763  12.515  23.325  0.00  0.00    +0.000 OA
BRANCH  24  25
ATOM     25  C   UNL     1      -1.628  13.527  23.649  0.00  0.00    +0.000 A 
ATOM     26  C   UNL     1      -2.975  13.176  23.606  0.00  0.00    +0.000 A 
ATOM     27  C   UNL     1      -3.955  14.120  23.905  0.00  0.00    +0.000 A 
ATOM     28  C   UNL     1      -3.580  15.416  24.266  0.00  0.00    +0.000 A 
ATOM     29  C   UNL     1      -2.233  15.772  24.336  0.00  0.00    +0.000 A 
ATOM     30  C   UNL     1      -1.258  14.824  24.028  0.00  0.00    +0.000 A 
BRANCH  28  31
ATOM     31  C   UNL     1      -4.599  16.432  24.580  0.00  0.00    +0.000 C 
ATOM     32  O   UNL     1      -4.930  17.287  23.773  0.00  0.00    +0.000 OA
ENDBRANCH  28  31
ENDBRANCH  24  25
ENDBRANCH  23  24
ENDBRANCH  22  23
ENDBRANCH  21  22
ENDBRANCH  20  21
ENDBRANCH  19  20
ENDBRANCH  18  19
ENDBRANCH  17  18
ENDBRANCH   1  17
TORSDOF 19
ENDMDL
MODEL 9
REMARK VINA RESULT:      -6.2      0.781      1.461
REMARK  Name = 
REMARK  19 active torsions:
REMARK  status: ('A' for Active; 'I' for Inactive)
REMARK    1  A    between atoms: C_2  and  C_3
REMARK    2  A    between atoms: C_6  and  O_7
REMARK    3  A    between atoms: O_7  and  C_8
REMARK    4  A    between atoms: C_8  and  C_9
REMARK    5  A    between atoms: C_9  and  C_10
REMARK    6  A    between atoms: C_10  and  C_11
REMARK    7  A    between atoms: C_11  and  C_12
REMARK    8  A    between atoms: C_12  and  C_13
REMARK    9  A    between atoms: C_13  and  C_14
REMARK   10  A    between atoms: C_14  and  C_15
REMARK   11  A    between atoms: C_15  and  C_16
REMARK   12  A    between atoms: C_16  and  C_17
REMARK   13  A    between atoms: C_17  and  C_18
REMARK   14  A    between atoms: C_18  and  C_19
REMARK   15  A    between atoms: C_19  and  C_20
REMARK   16  A    between atoms: C_20  and  C_21
REMARK   17  A    between atoms: C_21  and  O_22
REMARK   18  A    between atoms: O_22  and  C_23
REMARK   19  A    between atoms: C_26  and  C_27
REMARK                            x       y       z     vdW  Elec       q    Type
REMARK                         _______ _______ _______ _____ _____    ______ ____
ROOT
ATOM      1  C   UNL     1       2.598   6.507  19.826  0.00  0.00    +0.000 C 
ENDROOT
BRANCH   1   2
ATOM      2  C   UNL     1       1.993   6.956  18.499  0.00  0.00    +0.000 C 
BRANCH   2   3
ATOM      3  C   UNL     1       2.622   8.255  17.990  0.00  0.00    +0.000 C 
BRANCH   3   4
ATOM      4  C   UNL     1       1.555   9.211  17.491  0.00  0.00    +0.000 C 
BRANCH   4   5
ATOM      5  C   UNL     1       0.665   9.689  18.639  0.00  0.00    +0.000 C 
BRANCH   5   6
ATOM      6  C   UNL     1       1.072  11.068  19.154  0.00  0.00    +0.000 C 
BRANCH   6   7
ATOM      7  C   UNL     1       0.030  12.131  18.819  0.00  0.00    +0.000 C 
BRANCH   7   8
ATOM      8  O   UNL     1      -1.090  11.512  18.192  0.00  0.00    +0.000 OA
BRANCH   8  12
ATOM      9  C   UNL     1      -4.613  12.483  20.191  0.00  0.00    +0.000 A 
ATOM     10  C   UNL     1      -3.359  12.875  20.672  0.00  0.00    +0.000 A 
ATOM     11  C   UNL     1      -2.205  12.532  19.962  0.00  0.00    +0.000 A 
ATOM     12  C   UNL     1      -2.295  11.786  18.786  0.00  0.00    +0.000 A 
ATOM     13  C   UNL     1      -3.555  11.410  18.298  0.00  0.00    +0.000 A 
ATOM     14  C   UNL     1      -4.715  11.756  18.999  0.00  0.00    +0.000 A 
BRANCH   9  16
ATOM     15  O   UNL     1      -6.043  12.481  22.090  0.00  0.00    +0.000 OA
ATOM     16  C   UNL     1      -5.845  12.835  20.934  0.00  0.00    +0.000 C 
ENDBRANCH   9  16
ENDBRANCH   8  12
ENDBRANCH   7   8
ENDBRANCH   6   7
ENDBRANCH   5   6
ENDBRANCH   4   5
ENDBRANCH   3   4
ENDBRANCH   2   3
ENDBRANCH   1   2
BRANCH   1  17
ATOM     17  C   UNL     1       1.536   5.945  20.767  0.00  0.00    +0.000 C 
BRANCH  17  18
ATOM     18  C   UNL     1       1.010   4.609  20.278  0.00  0.00    +0.000 C 
BRANCH  18  19
ATOM     19  C   UNL     1       1.875   3.480  20.833  0.00  0.00    +0.000 C 
BRANCH  19  20
ATOM     20  C   UNL     1       1.846   2.296  19.884  0.00  0.00    +0.000 C 
BRANCH  20  21
ATOM     21  C   UNL     1       1.794   2.742  18.424  0.00  0.00    +0.000 C 
BRANCH  21  22
ATOM     22  C   UNL     1       2.896   2.097  17.586  0.00  0.00    +0.000 C 
BRANCH  22  23
ATOM     23  C   UNL     1       4.035   3.069  17.293  0.00  0.00    +0.000 C 
BRANCH  23  24
ATOM     24  O   UNL     1       4.424   3.719  18.499  0.00  0.00    +0.000 OA
BRANCH  24  25
ATOM     25  C   UNL     1       5.307   4.751  18.329  0.00  0.00    +0.000 A 
ATOM     26  C   UNL     1       5.054   5.557  17.221  0.00  0.00    +0.000 A 
ATOM     27  C   UNL     1       5.887   6.635  16.933  0.00  0.00    +0.000 A 
ATOM     28  C   UNL     1       6.969   6.916  17.771  0.00  0.00    +0.000 A 
ATOM     29  C   UNL     1       7.218   6.131  18.896  0.00  0.00    +0.000 A 
ATOM     30  C   UNL     1       6.384   5.048  19.174  0.00  0.00    +0.000 A 
BRANCH  28  31
ATOM     31  C   UNL     1       7.867   8.047  17.482  0.00  0.00    +0.000 C 
ATOM     32  O   UNL     1       8.488   8.621  18.365  0.00  0.00    +0.000 OA
ENDBRANCH  28  31
ENDBRANCH  24  25
ENDBRANCH  23  24
ENDBRANCH  22  23
ENDBRANCH  21  22
ENDBRANCH  20  21
ENDBRANCH  19  20
ENDBRANCH  18  19
ENDBRANCH  17  18
ENDBRANCH   1  17
TORSDOF 19
ENDMDL
