MODEL 1
REMARK VINA RESULT:      -7.4      0.000      0.000
REMARK  Name = 
REMARK  8 active torsions:
REMARK  status: ('A' for Active; 'I' for Inactive)
REMARK    1  A    between atoms: C_2  and  C_22
REMARK    2  A    between atoms: N_3  and  C_4
REMARK    3  A    between atoms: C_4  and  C_5
REMARK    4  A    between atoms: C_5  and  C_6
REMARK    5  A    between atoms: C_9  and  O_10
REMARK    6  A    between atoms: O_10  and  C_11
REMARK    7  A    between atoms: C_11  and  C_12
REMARK    8  A    between atoms: C_12  and  N_13
REMARK                            x       y       z     vdW  Elec       q    Type
REMARK                         _______ _______ _______ _____ _____    ______ ____
ROOT
ATOM      1  C   UNL     1       7.852   7.938  17.864  0.00  0.00    +0.000 A 
ATOM      2  C   UNL     1       8.299   7.151  18.922  0.00  0.00    +0.000 A 
ATOM      3  C   UNL     1       7.906   5.826  19.041  0.00  0.00    +0.000 A 
ATOM      4  C   UNL     1       6.964   5.258  18.171  0.00  0.00    +0.000 A 
ATOM      5  C   UNL     1       6.555   6.014  17.069  0.00  0.00    +0.000 A 
ATOM      6 BR   UNL     1       5.369   5.310  15.767  0.00  0.00    +0.000 Br
ATOM      7  C   UNL     1       6.995   7.347  16.919  0.00  0.00    +0.000 A 
ENDROOT
BRANCH   1   8
ATOM      8  C   UNL     1       8.223   9.405  17.787  0.00  0.00    +0.000 C 
BRANCH   8   9
ATOM      9  C   UNL     1       9.127   9.879  18.935  0.00  0.00    +0.000 C 
BRANCH   9  12
ATOM     10  O   UNL     1      11.542  11.277  19.277  0.00  0.00    +0.000 OA
ATOM     11  C   UNL     1      10.503  11.916  19.122  0.00  0.00    +0.000 C 
ATOM     12  N   UNL     1       9.274  11.314  18.985  0.00  0.00    +0.000 N 
ATOM     13  H   UNL     1       8.476  11.882  18.745  0.00  0.00    +0.000 HD
BRANCH  11  14
ATOM     14  C   UNL     1      10.474  13.358  19.039  0.00  0.00    +0.000 A 
ATOM     15  C   UNL     1       9.816  14.314  19.798  0.00  0.00    +0.000 A 
ATOM     16  C   UNL     1      10.140  15.590  19.278  0.00  0.00    +0.000 A 
ATOM     17  C   UNL     1      10.986  15.392  18.215  0.00  0.00    +0.000 A 
ATOM     18  N   UNL     1      11.191  14.045  18.081  0.00  0.00    +0.000 N 
ATOM     19  H   UNL     1      11.771  13.594  17.384  0.00  0.00    +0.000 HD
ENDBRANCH  11  14
ENDBRANCH   9  12
ENDBRANCH   8   9
ENDBRANCH   1   8
BRANCH   4  20
ATOM     20  O   UNL     1       6.381   4.021  18.435  0.00  0.00    +0.000 OA
BRANCH  20  21
ATOM     21  C   UNL     1       5.200   4.193  19.235  0.00  0.00    +0.000 C 
BRANCH  21  22
ATOM     22  C   UNL     1       3.948   3.398  18.852  0.00  0.00    +0.000 C 
BRANCH  22  23
ATOM     23  N   UNL     1       2.869   4.337  18.428  0.00  0.00    +0.000 NA
ATOM     24  C   UNL     1       2.653   5.421  19.410  0.00  0.00    +0.000 C 
ATOM     25  C   UNL     1       1.922   4.978  20.693  0.00  0.00    +0.000 C 
ATOM     26  O   UNL     1       0.717   4.244  20.431  0.00  0.00    +0.000 OA
ATOM     27  C   UNL     1       0.949   3.158  19.527  0.00  0.00    +0.000 C 
ATOM     28  C   UNL     1       1.545   3.695  18.221  0.00  0.00    +0.000 C 
ENDBRANCH  22  23
ENDBRANCH  21  22
ENDBRANCH  20  21
ENDBRANCH   4  20
TORSDOF 8
ENDMDL
MODEL 2
REMARK VINA RESULT:      -7.2      1.195      1.546
REMARK  Name = 
REMARK  8 active torsions:
REMARK  status: ('A' for Active; 'I' for Inactive)
REMARK    1  A    between atoms: C_2  and  C_22
REMARK    2  A    between atoms: N_3  and  C_4
REMARK    3  A    between atoms: C_4  and  C_5
REMARK    4  A    between atoms: C_5  and  C_6
REMARK    5  A    between atoms: C_9  and  O_10
REMARK    6  A    between atoms: O_10  and  C_11
REMARK    7  A    between atoms: C_11  and  C_12
REMARK    8  A    between atoms: C_12  and  N_13
REMARK                            x       y       z     vdW  Elec       q    Type
REMARK                         _______ _______ _______ _____ _____    ______ ____
ROOT
ATOM      1  C   UNL     1       7.976   8.150  17.946  0.00  0.00    +0.000 A 
ATOM      2  C   UNL     1       8.403   7.273  18.940  0.00  0.00    +0.000 A 
ATOM      3  C   UNL     1       7.919   5.975  19.003  0.00  0.00    +0.000 A 
ATOM      4  C   UNL     1       6.905   5.527  18.143  0.00  0.00    +0.000 A 
ATOM      5  C   UNL     1       6.512   6.372  17.101  0.00  0.00    +0.000 A 
ATOM      6 BR   UNL     1       5.230   5.830  15.813  0.00  0.00    +0.000 Br
ATOM      7  C   UNL     1       7.043   7.676  17.006  0.00  0.00    +0.000 A 
ENDROOT
BRANCH   1   8
ATOM      8  C   UNL     1       8.450   9.589  17.933  0.00  0.00    +0.000 C 
BRANCH   8   9
ATOM      9  C   UNL     1       9.288   9.978  19.161  0.00  0.00    +0.000 C 
BRANCH   9  12
ATOM     10  O   UNL     1       8.698  12.596  19.998  0.00  0.00    +0.000 OA
ATOM     11  C   UNL     1       9.759  12.384  19.414  0.00  0.00    +0.000 C 
ATOM     12  N   UNL     1      10.111  11.142  18.938  0.00  0.00    +0.000 N 
ATOM     13  H   UNL     1      11.041  11.005  18.572  0.00  0.00    +0.000 HD
BRANCH  11  14
ATOM     14  C   UNL     1      10.753  13.410  19.197  0.00  0.00    +0.000 A 
ATOM     15  C   UNL     1      11.210  14.440  20.006  0.00  0.00    +0.000 A 
ATOM     16  C   UNL     1      12.200  15.155  19.292  0.00  0.00    +0.000 A 
ATOM     17  C   UNL     1      12.331  14.553  18.065  0.00  0.00    +0.000 A 
ATOM     18  N   UNL     1      11.462  13.496  18.017  0.00  0.00    +0.000 N 
ATOM     19  H   UNL     1      11.334  12.861  17.238  0.00  0.00    +0.000 HD
ENDBRANCH  11  14
ENDBRANCH   9  12
ENDBRANCH   8   9
ENDBRANCH   1   8
BRANCH   4  20
ATOM     20  O   UNL     1       6.244   4.321  18.363  0.00  0.00    +0.000 OA
BRANCH  20  21
ATOM     21  C   UNL     1       5.089   4.536  19.190  0.00  0.00    +0.000 C 
BRANCH  21  22
ATOM     22  C   UNL     1       4.240   3.321  19.574  0.00  0.00    +0.000 C 
BRANCH  22  23
ATOM     23  N   UNL     1       2.899   3.775  20.044  0.00  0.00    +0.000 NA
ATOM     24  C   UNL     1       1.917   2.672  20.084  0.00  0.00    +0.000 C 
ATOM     25  C   UNL     1       1.408   2.227  18.698  0.00  0.00    +0.000 C 
ATOM     26  O   UNL     1       0.954   3.320  17.886  0.00  0.00    +0.000 OA
ATOM     27  C   UNL     1       1.938   4.357  17.803  0.00  0.00    +0.000 C 
ATOM     28  C   UNL     1       2.289   4.846  19.213  0.00  0.00    +0.000 C 
ENDBRANCH  22  23
ENDBRANCH  21  22
ENDBRANCH  20  21
ENDBRANCH   4  20
TORSDOF 8
ENDMDL
MODEL 3
REMARK VINA RESULT:      -7.1      1.206      1.330
REMARK  Name = 
REMARK  8 active torsions:
REMARK  status: ('A' for Active; 'I' for Inactive)
REMARK    1  A    between atoms: C_2  and  C_22
REMARK    2  A    between atoms: N_3  and  C_4
REMARK    3  A    between atoms: C_4  and  C_5
REMARK    4  A    between atoms: C_5  and  C_6
REMARK    5  A    between atoms: C_9  and  O_10
REMARK    6  A    between atoms: O_10  and  C_11
REMARK    7  A    between atoms: C_11  and  C_12
REMARK    8  A    between atoms: C_12  and  N_13
REMARK                            x       y       z     vdW  Elec       q    Type
REMARK                         _______ _______ _______ _____ _____    ______ ____
ROOT
ATOM      1  C   UNL     1       8.125   8.364  18.066  0.00  0.00    +0.000 A 
ATOM      2  C   UNL     1       8.489   7.408  19.012  0.00  0.00    +0.000 A 
ATOM      3  C   UNL     1       7.941   6.135  18.986  0.00  0.00    +0.000 A 
ATOM      4  C   UNL     1       6.923   5.791  18.084  0.00  0.00    +0.000 A 
ATOM      5  C   UNL     1       6.592   6.716  17.090  0.00  0.00    +0.000 A 
ATOM      6 BR   UNL     1       5.311   6.319  15.750  0.00  0.00    +0.000 Br
ATOM      7  C   UNL     1       7.188   7.996  17.084  0.00  0.00    +0.000 A 
ENDROOT
BRANCH   1   8
ATOM      8  C   UNL     1       8.669   9.775  18.150  0.00  0.00    +0.000 C 
BRANCH   8   9
ATOM      9  C   UNL     1       9.284  10.125  19.515  0.00  0.00    +0.000 C 
BRANCH   9  12
ATOM     10  O   UNL     1      11.827  11.253  19.110  0.00  0.00    +0.000 OA
ATOM     11  C   UNL     1      10.887  11.993  19.394  0.00  0.00    +0.000 C 
ATOM     12  N   UNL     1       9.619  11.522  19.644  0.00  0.00    +0.000 N 
ATOM     13  H   UNL     1       8.866  12.184  19.757  0.00  0.00    +0.000 HD
BRANCH  11  14
ATOM     14  C   UNL     1      11.014  13.431  19.462  0.00  0.00    +0.000 A 
ATOM     15  C   UNL     1      10.065  14.440  19.506  0.00  0.00    +0.000 A 
ATOM     16  C   UNL     1      10.743  15.681  19.567  0.00  0.00    +0.000 A 
ATOM     17  C   UNL     1      12.089  15.409  19.557  0.00  0.00    +0.000 A 
ATOM     18  N   UNL     1      12.246  14.050  19.503  0.00  0.00    +0.000 N 
ATOM     19  H   UNL     1      13.127  13.549  19.485  0.00  0.00    +0.000 HD
ENDBRANCH  11  14
ENDBRANCH   9  12
ENDBRANCH   8   9
ENDBRANCH   1   8
BRANCH   4  20
ATOM     20  O   UNL     1       6.199   4.609  18.219  0.00  0.00    +0.000 OA
BRANCH  20  21
ATOM     21  C   UNL     1       5.235   4.739  19.276  0.00  0.00    +0.000 C 
BRANCH  21  22
ATOM     22  C   UNL     1       4.269   3.576  19.519  0.00  0.00    +0.000 C 
BRANCH  22  23
ATOM     23  N   UNL     1       3.834   3.005  18.211  0.00  0.00    +0.000 NA
ATOM     24  C   UNL     1       2.961   3.931  17.459  0.00  0.00    +0.000 C 
ATOM     25  C   UNL     1       1.528   4.044  18.018  0.00  0.00    +0.000 C 
ATOM     26  O   UNL     1       0.902   2.769  18.230  0.00  0.00    +0.000 OA
ATOM     27  C   UNL     1       1.730   1.901  19.012  0.00  0.00    +0.000 C 
ATOM     28  C   UNL     1       3.087   1.724  18.320  0.00  0.00    +0.000 C 
ENDBRANCH  22  23
ENDBRANCH  21  22
ENDBRANCH  20  21
ENDBRANCH   4  20
TORSDOF 8
ENDMDL
MODEL 4
REMARK VINA RESULT:      -7.1      1.314      1.363
REMARK  Name = 
REMARK  8 active torsions:
REMARK  status: ('A' for Active; 'I' for Inactive)
REMARK    1  A    between atoms: C_2  and  C_22
REMARK    2  A    between atoms: N_3  and  C_4
REMARK    3  A    between atoms: C_4  and  C_5
REMARK    4  A    between atoms: C_5  and  C_6
REMARK    5  A    between atoms: C_9  and  O_10
REMARK    6  A    between atoms: O_10  and  C_11
REMARK    7  A    between atoms: C_11  and  C_12
REMARK    8  A    between atoms: C_12  and  N_13
REMARK                            x       y       z     vdW  Elec       q    Type
REMARK                         _______ _______ _______ _____ _____    ______ ____
ROOT
ATOM      1  C   UNL     1       8.110   7.595  18.379  0.00  0.00    +0.000 A 
ATOM      2  C   UNL     1       8.280   6.475  19.190  0.00  0.00    +0.000 A 
ATOM      3  C   UNL     1       7.582   5.302  18.940  0.00  0.00    +0.000 A 
ATOM      4  C   UNL     1       6.602   5.228  17.939  0.00  0.00    +0.000 A 
ATOM      5  C   UNL     1       6.465   6.321  17.078  0.00  0.00    +0.000 A 
ATOM      6 BR   UNL     1       5.251   6.293  15.622  0.00  0.00    +0.000 Br
ATOM      7  C   UNL     1       7.213   7.498  17.300  0.00  0.00    +0.000 A 
ENDROOT
BRANCH   1   8
ATOM      8  C   UNL     1       8.816   8.895  18.706  0.00  0.00    +0.000 C 
BRANCH   8   9
ATOM      9  C   UNL     1       8.264  10.110  17.945  0.00  0.00    +0.000 C 
BRANCH   9  12
ATOM     10  O   UNL     1       7.620  12.707  17.080  0.00  0.00    +0.000 OA
ATOM     11  C   UNL     1       8.716  12.509  17.601  0.00  0.00    +0.000 C 
ATOM     12  N   UNL     1       9.127  11.264  18.019  0.00  0.00    +0.000 N 
ATOM     13  H   UNL     1       9.986  11.184  18.542  0.00  0.00    +0.000 HD
BRANCH  11  14
ATOM     14  C   UNL     1       9.668  13.567  17.852  0.00  0.00    +0.000 A 
ATOM     15  C   UNL     1       9.881  14.373  18.960  0.00  0.00    +0.000 A 
ATOM     16  C   UNL     1      10.951  15.251  18.667  0.00  0.00    +0.000 A 
ATOM     17  C   UNL     1      11.372  14.967  17.391  0.00  0.00    +0.000 A 
ATOM     18  N   UNL     1      10.600  13.945  16.909  0.00  0.00    +0.000 N 
ATOM     19  H   UNL     1      10.677  13.518  15.993  0.00  0.00    +0.000 HD
ENDBRANCH  11  14
ENDBRANCH   9  12
ENDBRANCH   8   9
ENDBRANCH   1   8
BRANCH   4  20
ATOM     20  O   UNL     1       5.730   4.147  17.852  0.00  0.00    +0.000 OA
BRANCH  20  21
ATOM     21  C   UNL     1       4.979   4.019  19.070  0.00  0.00    +0.000 C 
BRANCH  21  22
ATOM     22  C   UNL     1       3.951   2.888  19.169  0.00  0.00    +0.000 C 
BRANCH  22  23
ATOM     23  N   UNL     1       2.675   3.314  18.524  0.00  0.00    +0.000 NA
ATOM     24  C   UNL     1       2.366   4.737  18.782  0.00  0.00    +0.000 C 
ATOM     25  C   UNL     1       1.874   5.028  20.214  0.00  0.00    +0.000 C 
ATOM     26  O   UNL     1       0.807   4.163  20.632  0.00  0.00    +0.000 OA
ATOM     27  C   UNL     1       1.142   2.784  20.435  0.00  0.00    +0.000 C 
ATOM     28  C   UNL     1       1.481   2.543  18.961  0.00  0.00    +0.000 C 
ENDBRANCH  22  23
ENDBRANCH  21  22
ENDBRANCH  20  21
ENDBRANCH   4  20
TORSDOF 8
ENDMDL
MODEL 5
REMARK VINA RESULT:      -7.1      1.597      1.917
REMARK  Name = 
REMARK  8 active torsions:
REMARK  status: ('A' for Active; 'I' for Inactive)
REMARK    1  A    between atoms: C_2  and  C_22
REMARK    2  A    between atoms: N_3  and  C_4
REMARK    3  A    between atoms: C_4  and  C_5
REMARK    4  A    between atoms: C_5  and  C_6
REMARK    5  A    between atoms: C_9  and  O_10
REMARK    6  A    between atoms: O_10  and  C_11
REMARK    7  A    between atoms: C_11  and  C_12
REMARK    8  A    between atoms: C_12  and  N_13
REMARK                            x       y       z     vdW  Elec       q    Type
REMARK                         _______ _______ _______ _____ _____    ______ ____
ROOT
ATOM      1  C   UNL     1       7.588   6.645  17.947  0.00  0.00    +0.000 A 
ATOM      2  C   UNL     1       7.064   5.807  18.929  0.00  0.00    +0.000 A 
ATOM      3  C   UNL     1       6.293   4.706  18.590  0.00  0.00    +0.000 A 
ATOM      4  C   UNL     1       5.918   4.452  17.262  0.00  0.00    +0.000 A 
ATOM      5  C   UNL     1       6.485   5.246  16.261  0.00  0.00    +0.000 A 
ATOM      6 BR   UNL     1       6.138   4.926  14.424  0.00  0.00    +0.000 Br
ATOM      7  C   UNL     1       7.313   6.336  16.603  0.00  0.00    +0.000 A 
ENDROOT
BRANCH   1   8
ATOM      8  C   UNL     1       8.361   7.890  18.331  0.00  0.00    +0.000 C 
BRANCH   8   9
ATOM      9  C   UNL     1       7.695   9.199  17.880  0.00  0.00    +0.000 C 
BRANCH   9  12
ATOM     10  O   UNL     1       9.007  10.804  19.779  0.00  0.00    +0.000 OA
ATOM     11  C   UNL     1       9.266  10.962  18.588  0.00  0.00    +0.000 C 
ATOM     12  N   UNL     1       8.645  10.247  17.590  0.00  0.00    +0.000 N 
ATOM     13  H   UNL     1       8.980  10.338  16.644  0.00  0.00    +0.000 HD
BRANCH  11  14
ATOM     14  C   UNL     1      10.268  11.892  18.120  0.00  0.00    +0.000 A 
ATOM     15  C   UNL     1      11.644  11.929  18.288  0.00  0.00    +0.000 A 
ATOM     16  C   UNL     1      12.140  13.068  17.612  0.00  0.00    +0.000 A 
ATOM     17  C   UNL     1      11.064  13.705  17.045  0.00  0.00    +0.000 A 
ATOM     18  N   UNL     1       9.939  12.986  17.347  0.00  0.00    +0.000 N 
ATOM     19  H   UNL     1       8.992  13.209  17.065  0.00  0.00    +0.000 HD
ENDBRANCH  11  14
ENDBRANCH   9  12
ENDBRANCH   8   9
ENDBRANCH   1   8
BRANCH   4  20
ATOM     20  O   UNL     1       4.946   3.506  16.948  0.00  0.00    +0.000 OA
BRANCH  20  21
ATOM     21  C   UNL     1       3.654   3.964  17.378  0.00  0.00    +0.000 C 
BRANCH  21  22
ATOM     22  C   UNL     1       2.776   2.998  18.179  0.00  0.00    +0.000 C 
BRANCH  22  23
ATOM     23  N   UNL     1       1.597   3.730  18.726  0.00  0.00    +0.000 NA
ATOM     24  C   UNL     1       1.989   4.936  19.485  0.00  0.00    +0.000 C 
ATOM     25  C   UNL     1       2.595   4.642  20.872  0.00  0.00    +0.000 C 
ATOM     26  O   UNL     1       1.793   3.749  21.660  0.00  0.00    +0.000 OA
ATOM     27  C   UNL     1       1.469   2.556  20.937  0.00  0.00    +0.000 C 
ATOM     28  C   UNL     1       0.744   2.924  19.638  0.00  0.00    +0.000 C 
ENDBRANCH  22  23
ENDBRANCH  21  22
ENDBRANCH  20  21
ENDBRANCH   4  20
TORSDOF 8
ENDMDL
MODEL 6
REMARK VINA RESULT:      -7.1      6.074      8.663
REMARK  Name = 
REMARK  8 active torsions:
REMARK  status: ('A' for Active; 'I' for Inactive)
REMARK    1  A    between atoms: C_2  and  C_22
REMARK    2  A    between atoms: N_3  and  C_4
REMARK    3  A    between atoms: C_4  and  C_5
REMARK    4  A    between atoms: C_5  and  C_6
REMARK    5  A    between atoms: C_9  and  O_10
REMARK    6  A    between atoms: O_10  and  C_11
REMARK    7  A    between atoms: C_11  and  C_12
REMARK    8  A    between atoms: C_12  and  N_13
REMARK                            x       y       z     vdW  Elec       q    Type
REMARK                         _______ _______ _______ _____ _____    ______ ____
ROOT
ATOM      1  C   UNL     1       5.060   5.449  18.079  0.00  0.00    +0.000 A 
ATOM      2  C   UNL     1       4.958   6.524  17.199  0.00  0.00    +0.000 A 
ATOM      3  C   UNL     1       3.932   7.449  17.319  0.00  0.00    +0.000 A 
ATOM      4  C   UNL     1       2.899   7.285  18.254  0.00  0.00    +0.000 A 
ATOM      5  C   UNL     1       3.020   6.249  19.184  0.00  0.00    +0.000 A 
ATOM      6 BR   UNL     1       1.742   5.997  20.562  0.00  0.00    +0.000 Br
ATOM      7  C   UNL     1       4.093   5.336  19.095  0.00  0.00    +0.000 A 
ENDROOT
BRANCH   1   8
ATOM      8  C   UNL     1       6.136   4.400  17.892  0.00  0.00    +0.000 C 
BRANCH   8   9
ATOM      9  C   UNL     1       6.981   4.597  16.623  0.00  0.00    +0.000 C 
BRANCH   9  12
ATOM     10  O   UNL     1       7.557   5.360  13.979  0.00  0.00    +0.000 OA
ATOM     11  C   UNL     1       6.717   4.483  14.174  0.00  0.00    +0.000 C 
ATOM     12  N   UNL     1       6.348   4.075  15.435  0.00  0.00    +0.000 N 
ATOM     13  H   UNL     1       5.742   3.275  15.531  0.00  0.00    +0.000 HD
BRANCH  11  14
ATOM     14  C   UNL     1       6.059   3.775  13.101  0.00  0.00    +0.000 A 
ATOM     15  C   UNL     1       4.799   3.915  12.538  0.00  0.00    +0.000 A 
ATOM     16  C   UNL     1       4.668   2.954  11.508  0.00  0.00    +0.000 A 
ATOM     17  C   UNL     1       5.844   2.246  11.460  0.00  0.00    +0.000 A 
ATOM     18  N   UNL     1       6.682   2.752  12.417  0.00  0.00    +0.000 N 
ATOM     19  H   UNL     1       7.622   2.432  12.619  0.00  0.00    +0.000 HD
ENDBRANCH  11  14
ENDBRANCH   9  12
ENDBRANCH   8   9
ENDBRANCH   1   8
BRANCH   4  20
ATOM     20  O   UNL     1       1.745   8.063  18.209  0.00  0.00    +0.000 OA
BRANCH  20  21
ATOM     21  C   UNL     1       2.086   9.436  17.959  0.00  0.00    +0.000 C 
BRANCH  21  22
ATOM     22  C   UNL     1       1.223  10.523  18.607  0.00  0.00    +0.000 C 
BRANCH  22  23
ATOM     23  N   UNL     1      -0.115   9.961  18.951  0.00  0.00    +0.000 NA
ATOM     24  C   UNL     1      -1.144  10.314  17.951  0.00  0.00    +0.000 C 
ATOM     25  C   UNL     1      -1.615  11.781  18.017  0.00  0.00    +0.000 C 
ATOM     26  O   UNL     1      -1.989  12.195  19.340  0.00  0.00    +0.000 OA
ATOM     27  C   UNL     1      -0.959  11.904  20.292  0.00  0.00    +0.000 C 
ATOM     28  C   UNL     1      -0.645  10.404  20.267  0.00  0.00    +0.000 C 
ENDBRANCH  22  23
ENDBRANCH  21  22
ENDBRANCH  20  21
ENDBRANCH   4  20
TORSDOF 8
ENDMDL
MODEL 7
REMARK VINA RESULT:      -7.1      1.110      1.438
REMARK  Name = 
REMARK  8 active torsions:
REMARK  status: ('A' for Active; 'I' for Inactive)
REMARK    1  A    between atoms: C_2  and  C_22
REMARK    2  A    between atoms: N_3  and  C_4
REMARK    3  A    between atoms: C_4  and  C_5
REMARK    4  A    between atoms: C_5  and  C_6
REMARK    5  A    between atoms: C_9  and  O_10
REMARK    6  A    between atoms: O_10  and  C_11
REMARK    7  A    between atoms: C_11  and  C_12
REMARK    8  A    between atoms: C_12  and  N_13
REMARK                            x       y       z     vdW  Elec       q    Type
REMARK                         _______ _______ _______ _____ _____    ______ ____
ROOT
ATOM      1  C   UNL     1       7.864   7.860  17.873  0.00  0.00    +0.000 A 
ATOM      2  C   UNL     1       8.167   7.085  18.990  0.00  0.00    +0.000 A 
ATOM      3  C   UNL     1       7.751   5.764  19.075  0.00  0.00    +0.000 A 
ATOM      4  C   UNL     1       6.920   5.191  18.101  0.00  0.00    +0.000 A 
ATOM      5  C   UNL     1       6.660   5.934  16.946  0.00  0.00    +0.000 A 
ATOM      6 BR   UNL     1       5.641   5.221  15.514  0.00  0.00    +0.000 Br
ATOM      7  C   UNL     1       7.127   7.261  16.835  0.00  0.00    +0.000 A 
ENDROOT
BRANCH   1   8
ATOM      8  C   UNL     1       8.254   9.323  17.824  0.00  0.00    +0.000 C 
BRANCH   8   9
ATOM      9  C   UNL     1       9.118   9.776  19.011  0.00  0.00    +0.000 C 
BRANCH   9  12
ATOM     10  O   UNL     1      10.929  11.433  17.640  0.00  0.00    +0.000 OA
ATOM     11  C   UNL     1      10.106  11.949  18.394  0.00  0.00    +0.000 C 
ATOM     12  N   UNL     1       9.208  11.211  19.131  0.00  0.00    +0.000 N 
ATOM     13  H   UNL     1       8.484  11.693  19.641  0.00  0.00    +0.000 HD
BRANCH  11  14
ATOM     14  C   UNL     1       9.980  13.379  18.557  0.00  0.00    +0.000 A 
ATOM     15  C   UNL     1      10.368  14.229  19.581  0.00  0.00    +0.000 A 
ATOM     16  C   UNL     1       9.998  15.547  19.223  0.00  0.00    +0.000 A 
ATOM     17  C   UNL     1       9.392  15.480  17.993  0.00  0.00    +0.000 A 
ATOM     18  N   UNL     1       9.392  14.170  17.592  0.00  0.00    +0.000 N 
ATOM     19  H   UNL     1       9.014  13.810  16.724  0.00  0.00    +0.000 HD
ENDBRANCH  11  14
ENDBRANCH   9  12
ENDBRANCH   8   9
ENDBRANCH   1   8
BRANCH   4  20
ATOM     20  O   UNL     1       6.298   3.962  18.306  0.00  0.00    +0.000 OA
BRANCH  20  21
ATOM     21  C   UNL     1       4.870   4.124  18.293  0.00  0.00    +0.000 C 
BRANCH  21  22
ATOM     22  C   UNL     1       4.135   4.152  19.636  0.00  0.00    +0.000 C 
BRANCH  22  23
ATOM     23  N   UNL     1       3.617   2.790  19.952  0.00  0.00    +0.000 NA
ATOM     24  C   UNL     1       2.863   2.203  18.824  0.00  0.00    +0.000 C 
ATOM     25  C   UNL     1       1.463   2.813  18.612  0.00  0.00    +0.000 C 
ATOM     26  O   UNL     1       0.679   2.859  19.815  0.00  0.00    +0.000 OA
ATOM     27  C   UNL     1       1.396   3.485  20.885  0.00  0.00    +0.000 C 
ATOM     28  C   UNL     1       2.711   2.737  21.129  0.00  0.00    +0.000 C 
ENDBRANCH  22  23
ENDBRANCH  21  22
ENDBRANCH  20  21
ENDBRANCH   4  20
TORSDOF 8
ENDMDL
MODEL 8
REMARK VINA RESULT:      -7.0      5.598      7.595
REMARK  Name = 
REMARK  8 active torsions:
REMARK  status: ('A' for Active; 'I' for Inactive)
REMARK    1  A    between atoms: C_2  and  C_22
REMARK    2  A    between atoms: N_3  and  C_4
REMARK    3  A    between atoms: C_4  and  C_5
REMARK    4  A    between atoms: C_5  and  C_6
REMARK    5  A    between atoms: C_9  and  O_10
REMARK    6  A    between atoms: O_10  and  C_11
REMARK    7  A    between atoms: C_11  and  C_12
REMARK    8  A    between atoms: C_12  and  N_13
REMARK                            x       y       z     vdW  Elec       q    Type
REMARK                         _______ _______ _______ _____ _____    ______ ____
ROOT
ATOM      1  C   UNL     1       5.538   6.144  17.650  0.00  0.00    +0.000 A 
ATOM      2  C   UNL     1       5.444   5.295  18.750  0.00  0.00    +0.000 A 
ATOM      3  C   UNL     1       4.327   5.313  19.572  0.00  0.00    +0.000 A 
ATOM      4  C   UNL     1       3.302   6.255  19.398  0.00  0.00    +0.000 A 
ATOM      5  C   UNL     1       3.351   7.071  18.264  0.00  0.00    +0.000 A 
ATOM      6 BR   UNL     1       1.966   8.304  17.868  0.00  0.00    +0.000 Br
ATOM      7  C   UNL     1       4.464   7.016  17.397  0.00  0.00    +0.000 A 
ENDROOT
BRANCH   1   8
ATOM      8  C   UNL     1       6.795   6.173  16.805  0.00  0.00    +0.000 C 
BRANCH   8   9
ATOM      9  C   UNL     1       7.318   4.780  16.421  0.00  0.00    +0.000 C 
BRANCH   9  12
ATOM     10  O   UNL     1       7.856   5.367  13.725  0.00  0.00    +0.000 OA
ATOM     11  C   UNL     1       6.991   4.535  13.990  0.00  0.00    +0.000 C 
ATOM     12  N   UNL     1       6.638   4.215  15.281  0.00  0.00    +0.000 N 
ATOM     13  H   UNL     1       6.006   3.445  15.437  0.00  0.00    +0.000 HD
BRANCH  11  14
ATOM     14  C   UNL     1       6.281   3.791  12.976  0.00  0.00    +0.000 A 
ATOM     15  C   UNL     1       6.712   2.864  12.039  0.00  0.00    +0.000 A 
ATOM     16  C   UNL     1       5.590   2.443  11.286  0.00  0.00    +0.000 A 
ATOM     17  C   UNL     1       4.497   3.117  11.775  0.00  0.00    +0.000 A 
ATOM     18  N   UNL     1       4.919   3.921  12.799  0.00  0.00    +0.000 N 
ATOM     19  H   UNL     1       4.337   4.538  13.354  0.00  0.00    +0.000 HD
ENDBRANCH  11  14
ENDBRANCH   9  12
ENDBRANCH   8   9
ENDBRANCH   1   8
BRANCH   4  20
ATOM     20  O   UNL     1       2.314   6.442  20.361  0.00  0.00    +0.000 OA
BRANCH  20  21
ATOM     21  C   UNL     1       1.479   5.276  20.444  0.00  0.00    +0.000 C 
BRANCH  21  22
ATOM     22  C   UNL     1       1.403   4.354  19.223  0.00  0.00    +0.000 C 
BRANCH  22  23
ATOM     23  N   UNL     1       1.257   2.940  19.673  0.00  0.00    +0.000 NA
ATOM     24  C   UNL     1       2.196   2.599  20.762  0.00  0.00    +0.000 C 
ATOM     25  C   UNL     1       3.659   2.424  20.306  0.00  0.00    +0.000 C 
ATOM     26  O   UNL     1       3.798   1.542  19.182  0.00  0.00    +0.000 OA
ATOM     27  C   UNL     1       2.928   1.917  18.108  0.00  0.00    +0.000 C 
ATOM     28  C   UNL     1       1.478   1.931  18.603  0.00  0.00    +0.000 C 
ENDBRANCH  22  23
ENDBRANCH  21  22
ENDBRANCH  20  21
ENDBRANCH   4  20
TORSDOF 8
ENDMDL
MODEL 9
REMARK VINA RESULT:      -7.0      5.056      7.931
REMARK  Name = 
REMARK  8 active torsions:
REMARK  status: ('A' for Active; 'I' for Inactive)
REMARK    1  A    between atoms: C_2  and  C_22
REMARK    2  A    between atoms: N_3  and  C_4
REMARK    3  A    between atoms: C_4  and  C_5
REMARK    4  A    between atoms: C_5  and  C_6
REMARK    5  A    between atoms: C_9  and  O_10
REMARK    6  A    between atoms: O_10  and  C_11
REMARK    7  A    between atoms: C_11  and  C_12
REMARK    8  A    between atoms: C_12  and  N_13
REMARK                            x       y       z     vdW  Elec       q    Type
REMARK                         _______ _______ _______ _____ _____    ______ ____
ROOT
ATOM      1  C   UNL     1       2.085   4.088  18.796  0.00  0.00    +0.000 A 
ATOM      2  C   UNL     1       1.736   4.220  20.138  0.00  0.00    +0.000 A 
ATOM      3  C   UNL     1       1.648   5.471  20.732  0.00  0.00    +0.000 A 
ATOM      4  C   UNL     1       2.011   6.638  20.045  0.00  0.00    +0.000 A 
ATOM      5  C   UNL     1       2.302   6.529  18.682  0.00  0.00    +0.000 A 
ATOM      6 BR   UNL     1       2.698   8.054  17.626  0.00  0.00    +0.000 Br
ATOM      7  C   UNL     1       2.341   5.261  18.063  0.00  0.00    +0.000 A 
ENDROOT
BRANCH   1   8
ATOM      8  C   UNL     1       2.256   2.716  18.178  0.00  0.00    +0.000 C 
BRANCH   8   9
ATOM      9  C   UNL     1       3.590   2.530  17.437  0.00  0.00    +0.000 C 
BRANCH   9  12
ATOM     10  O   UNL     1       5.440   3.926  15.846  0.00  0.00    +0.000 OA
ATOM     11  C   UNL     1       5.476   4.074  17.066  0.00  0.00    +0.000 C 
ATOM     12  N   UNL     1       4.633   3.402  17.921  0.00  0.00    +0.000 N 
ATOM     13  H   UNL     1       4.630   3.650  18.899  0.00  0.00    +0.000 HD
BRANCH  11  14
ATOM     14  C   UNL     1       6.383   4.989  17.719  0.00  0.00    +0.000 A 
ATOM     15  C   UNL     1       6.936   6.192  17.309  0.00  0.00    +0.000 A 
ATOM     16  C   UNL     1       7.766   6.674  18.349  0.00  0.00    +0.000 A 
ATOM     17  C   UNL     1       7.706   5.760  19.373  0.00  0.00    +0.000 A 
ATOM     18  N   UNL     1       6.864   4.751  18.990  0.00  0.00    +0.000 N 
ATOM     19  H   UNL     1       6.621   3.934  19.538  0.00  0.00    +0.000 HD
ENDBRANCH  11  14
ENDBRANCH   9  12
ENDBRANCH   8   9
ENDBRANCH   1   8
BRANCH   4  20
ATOM     20  O   UNL     1       2.167   7.854  20.705  0.00  0.00    +0.000 OA
BRANCH  20  21
ATOM     21  C   UNL     1       0.895   8.322  21.184  0.00  0.00    +0.000 C 
BRANCH  21  22
ATOM     22  C   UNL     1       0.561   9.807  21.010  0.00  0.00    +0.000 C 
BRANCH  22  23
ATOM     23  N   UNL     1       0.347  10.106  19.564  0.00  0.00    +0.000 NA
ATOM     24  C   UNL     1       1.152  11.257  19.105  0.00  0.00    +0.000 C 
ATOM     25  C   UNL     1       0.629  12.626  19.585  0.00  0.00    +0.000 C 
ATOM     26  O   UNL     1      -0.772  12.816  19.331  0.00  0.00    +0.000 OA
ATOM     27  C   UNL     1      -1.549  11.723  19.834  0.00  0.00    +0.000 C 
ATOM     28  C   UNL     1      -1.062  10.414  19.204  0.00  0.00    +0.000 C 
ENDBRANCH  22  23
ENDBRANCH  21  22
ENDBRANCH  20  21
ENDBRANCH   4  20
TORSDOF 8
ENDMDL
