MODEL 1
REMARK VINA RESULT:      -7.3      0.000      0.000
REMARK  Name = 
REMARK  4 active torsions:
REMARK  status: ('A' for Active; 'I' for Inactive)
REMARK    1  A    between atoms: C_7  and  S_8
REMARK    2  A    between atoms: S_8  and  C_9
REMARK    3  A    between atoms: C_9  and  C_10
REMARK    4  A    between atoms: C_11  and  C_12
REMARK                            x       y       z     vdW  Elec       q    Type
REMARK                         _______ _______ _______ _____ _____    ______ ____
ROOT
ATOM      1 BR   UNL     1       6.648   5.011  14.524  0.00  0.00    +0.000 Br
ATOM      2  C   UNL     1       6.093   4.490  16.221  0.00  0.00    +0.000 A 
ATOM      3  C   UNL     1       6.896   4.551  17.306  0.00  0.00    +0.000 A 
ATOM      4  N   UNL     1       6.470   4.158  18.564  0.00  0.00    +0.000 N 
ATOM      5  C   UNL     1       5.194   3.688  18.730  0.00  0.00    +0.000 A 
ATOM      6  N   UNL     1       4.554   3.262  19.776  0.00  0.00    +0.000 NA
ATOM      7  C   UNL     1       3.291   2.932  19.283  0.00  0.00    +0.000 A 
ATOM      8  N   UNL     1       3.087   3.111  18.003  0.00  0.00    +0.000 NA
ATOM      9  C   UNL     1       4.281   3.604  17.572  0.00  0.00    +0.000 A 
ATOM     10  C   UNL     1       4.724   3.991  16.374  0.00  0.00    +0.000 A 
ATOM     11  H   UNL     1       7.103   4.218  19.353  0.00  0.00    +0.000 HD
ENDROOT
BRANCH   7  12
ATOM     12  S   UNL     1       2.067   2.308  20.345  0.00  0.00    +0.000 S 
BRANCH  12  13
ATOM     13  C   UNL     1       1.649   3.796  21.304  0.00  0.00    +0.000 C 
BRANCH  13  14
ATOM     14  C   UNL     1       1.625   4.982  20.380  0.00  0.00    +0.000 C 
ATOM     15  C   UNL     1       2.015   6.233  20.692  0.00  0.00    +0.000 C 
BRANCH  15  16
ATOM     16  C   UNL     1       1.979   7.358  19.735  0.00  0.00    +0.000 A 
ATOM     17  C   UNL     1       1.325   8.563  20.032  0.00  0.00    +0.000 A 
ATOM     18  C   UNL     1       1.264   9.599  19.097  0.00  0.00    +0.000 A 
ATOM     19  C   UNL     1       1.883   9.458  17.859  0.00  0.00    +0.000 A 
ATOM     20  C   UNL     1       2.581   8.288  17.566  0.00  0.00    +0.000 A 
ATOM     21  C   UNL     1       2.635   7.246  18.501  0.00  0.00    +0.000 A 
ENDBRANCH  15  16
ENDBRANCH  13  14
ENDBRANCH  12  13
ENDBRANCH   7  12
TORSDOF 4
ENDMDL
MODEL 2
REMARK VINA RESULT:      -7.3      5.662      6.844
REMARK  Name = 
REMARK  4 active torsions:
REMARK  status: ('A' for Active; 'I' for Inactive)
REMARK    1  A    between atoms: C_7  and  S_8
REMARK    2  A    between atoms: S_8  and  C_9
REMARK    3  A    between atoms: C_9  and  C_10
REMARK    4  A    between atoms: C_11  and  C_12
REMARK                            x       y       z     vdW  Elec       q    Type
REMARK                         _______ _______ _______ _____ _____    ______ ____
ROOT
ATOM      1 BR   UNL     1       0.887   2.586  19.646  0.00  0.00    +0.000 Br
ATOM      2  C   UNL     1       2.179   3.787  19.052  0.00  0.00    +0.000 A 
ATOM      3  C   UNL     1       1.899   4.807  18.210  0.00  0.00    +0.000 A 
ATOM      4  N   UNL     1       2.870   5.693  17.775  0.00  0.00    +0.000 N 
ATOM      5  C   UNL     1       4.163   5.543  18.203  0.00  0.00    +0.000 A 
ATOM      6  N   UNL     1       5.245   6.217  17.954  0.00  0.00    +0.000 NA
ATOM      7  C   UNL     1       6.226   5.560  18.695  0.00  0.00    +0.000 A 
ATOM      8  N   UNL     1       5.847   4.518  19.391  0.00  0.00    +0.000 NA
ATOM      9  C   UNL     1       4.515   4.443  19.123  0.00  0.00    +0.000 A 
ATOM     10  C   UNL     1       3.554   3.607  19.523  0.00  0.00    +0.000 A 
ATOM     11  H   UNL     1       2.621   6.445  17.143  0.00  0.00    +0.000 HD
ENDROOT
BRANCH   7  12
ATOM     12  S   UNL     1       7.869   6.121  18.675  0.00  0.00    +0.000 S 
BRANCH  12  13
ATOM     13  C   UNL     1       7.706   7.638  17.684  0.00  0.00    +0.000 C 
BRANCH  13  14
ATOM     14  C   UNL     1       8.441   8.754  18.375  0.00  0.00    +0.000 C 
ATOM     15  C   UNL     1       8.643   9.990  17.880  0.00  0.00    +0.000 C 
BRANCH  15  16
ATOM     16  C   UNL     1       9.365  11.051  18.612  0.00  0.00    +0.000 A 
ATOM     17  C   UNL     1       9.700  12.272  18.009  0.00  0.00    +0.000 A 
ATOM     18  C   UNL     1      10.421  13.245  18.705  0.00  0.00    +0.000 A 
ATOM     19  C   UNL     1      10.794  13.024  20.027  0.00  0.00    +0.000 A 
ATOM     20  C   UNL     1      10.426  11.838  20.659  0.00  0.00    +0.000 A 
ATOM     21  C   UNL     1       9.709  10.859  19.958  0.00  0.00    +0.000 A 
ENDBRANCH  15  16
ENDBRANCH  13  14
ENDBRANCH  12  13
ENDBRANCH   7  12
TORSDOF 4
ENDMDL
MODEL 3
REMARK VINA RESULT:      -7.0      5.677      6.898
REMARK  Name = 
REMARK  4 active torsions:
REMARK  status: ('A' for Active; 'I' for Inactive)
REMARK    1  A    between atoms: C_7  and  S_8
REMARK    2  A    between atoms: S_8  and  C_9
REMARK    3  A    between atoms: C_9  and  C_10
REMARK    4  A    between atoms: C_11  and  C_12
REMARK                            x       y       z     vdW  Elec       q    Type
REMARK                         _______ _______ _______ _____ _____    ______ ____
ROOT
ATOM      1 BR   UNL     1       0.919   3.781  20.115  0.00  0.00    +0.000 Br
ATOM      2  C   UNL     1       2.716   3.859  19.634  0.00  0.00    +0.000 A 
ATOM      3  C   UNL     1       3.573   2.833  19.834  0.00  0.00    +0.000 A 
ATOM      4  N   UNL     1       4.908   2.905  19.473  0.00  0.00    +0.000 N 
ATOM      5  C   UNL     1       5.391   4.049  18.894  0.00  0.00    +0.000 A 
ATOM      6  N   UNL     1       6.574   4.375  18.470  0.00  0.00    +0.000 NA
ATOM      7  C   UNL     1       6.409   5.672  17.985  0.00  0.00    +0.000 A 
ATOM      8  N   UNL     1       5.211   6.193  18.076  0.00  0.00    +0.000 NA
ATOM      9  C   UNL     1       4.491   5.195  18.656  0.00  0.00    +0.000 A 
ATOM     10  C   UNL     1       3.209   5.092  19.016  0.00  0.00    +0.000 A 
ATOM     11  H   UNL     1       5.519   2.115  19.640  0.00  0.00    +0.000 HD
ENDROOT
BRANCH   7  12
ATOM     12  S   UNL     1       7.752   6.534  17.300  0.00  0.00    +0.000 S 
BRANCH  12  13
ATOM     13  C   UNL     1       7.137   8.245  17.366  0.00  0.00    +0.000 C 
BRANCH  13  14
ATOM     14  C   UNL     1       8.106   9.083  18.153  0.00  0.00    +0.000 C 
ATOM     15  C   UNL     1       8.653  10.246  17.749  0.00  0.00    +0.000 C 
BRANCH  15  16
ATOM     16  C   UNL     1       9.592  11.032  18.574  0.00  0.00    +0.000 A 
ATOM     17  C   UNL     1       9.550  11.004  19.976  0.00  0.00    +0.000 A 
ATOM     18  C   UNL     1      10.418  11.788  20.739  0.00  0.00    +0.000 A 
ATOM     19  C   UNL     1      11.365  12.592  20.112  0.00  0.00    +0.000 A 
ATOM     20  C   UNL     1      11.456  12.594  18.721  0.00  0.00    +0.000 A 
ATOM     21  C   UNL     1      10.579  11.813  17.956  0.00  0.00    +0.000 A 
ENDBRANCH  15  16
ENDBRANCH  13  14
ENDBRANCH  12  13
ENDBRANCH   7  12
TORSDOF 4
ENDMDL
MODEL 4
REMARK VINA RESULT:      -7.0      5.807      7.010
REMARK  Name = 
REMARK  4 active torsions:
REMARK  status: ('A' for Active; 'I' for Inactive)
REMARK    1  A    between atoms: C_7  and  S_8
REMARK    2  A    between atoms: S_8  and  C_9
REMARK    3  A    between atoms: C_9  and  C_10
REMARK    4  A    between atoms: C_11  and  C_12
REMARK                            x       y       z     vdW  Elec       q    Type
REMARK                         _______ _______ _______ _____ _____    ______ ____
ROOT
ATOM      1 BR   UNL     1       0.992   3.085  20.289  0.00  0.00    +0.000 Br
ATOM      2  C   UNL     1       2.266   4.131  19.426  0.00  0.00    +0.000 A 
ATOM      3  C   UNL     1       1.972   4.921  18.369  0.00  0.00    +0.000 A 
ATOM      4  N   UNL     1       2.930   5.693  17.734  0.00  0.00    +0.000 N 
ATOM      5  C   UNL     1       4.225   5.667  18.181  0.00  0.00    +0.000 A 
ATOM      6  N   UNL     1       5.296   6.278  17.778  0.00  0.00    +0.000 NA
ATOM      7  C   UNL     1       6.287   5.828  18.650  0.00  0.00    +0.000 A 
ATOM      8  N   UNL     1       5.923   4.973  19.572  0.00  0.00    +0.000 NA
ATOM      9  C   UNL     1       4.592   4.819  19.333  0.00  0.00    +0.000 A 
ATOM     10  C   UNL     1       3.644   4.086  19.922  0.00  0.00    +0.000 A 
ATOM     11  H   UNL     1       2.670   6.272  16.944  0.00  0.00    +0.000 HD
ENDROOT
BRANCH   7  12
ATOM     12  S   UNL     1       7.922   6.392  18.493  0.00  0.00    +0.000 S 
BRANCH  12  13
ATOM     13  C   UNL     1       7.665   7.962  17.610  0.00  0.00    +0.000 C 
BRANCH  13  14
ATOM     14  C   UNL     1       8.396   9.057  18.337  0.00  0.00    +0.000 C 
ATOM     15  C   UNL     1       8.817  10.217  17.798  0.00  0.00    +0.000 C 
BRANCH  15  16
ATOM     16  C   UNL     1       9.521  11.262  18.568  0.00  0.00    +0.000 A 
ATOM     17  C   UNL     1      10.207  10.972  19.757  0.00  0.00    +0.000 A 
ATOM     18  C   UNL     1      10.830  11.982  20.494  0.00  0.00    +0.000 A 
ATOM     19  C   UNL     1      10.803  13.296  20.038  0.00  0.00    +0.000 A 
ATOM     20  C   UNL     1      10.171  13.596  18.832  0.00  0.00    +0.000 A 
ATOM     21  C   UNL     1       9.538  12.583  18.098  0.00  0.00    +0.000 A 
ENDBRANCH  15  16
ENDBRANCH  13  14
ENDBRANCH  12  13
ENDBRANCH   7  12
TORSDOF 4
ENDMDL
MODEL 5
REMARK VINA RESULT:      -6.7      1.590      2.242
REMARK  Name = 
REMARK  4 active torsions:
REMARK  status: ('A' for Active; 'I' for Inactive)
REMARK    1  A    between atoms: C_7  and  S_8
REMARK    2  A    between atoms: S_8  and  C_9
REMARK    3  A    between atoms: C_9  and  C_10
REMARK    4  A    between atoms: C_11  and  C_12
REMARK                            x       y       z     vdW  Elec       q    Type
REMARK                         _______ _______ _______ _____ _____    ______ ____
ROOT
ATOM      1 BR   UNL     1       7.912   7.578  17.829  0.00  0.00    +0.000 Br
ATOM      2  C   UNL     1       6.497   6.392  17.599  0.00  0.00    +0.000 A 
ATOM      3  C   UNL     1       5.792   6.307  16.448  0.00  0.00    +0.000 A 
ATOM      4  N   UNL     1       4.740   5.421  16.290  0.00  0.00    +0.000 N 
ATOM      5  C   UNL     1       4.389   4.596  17.327  0.00  0.00    +0.000 A 
ATOM      6  N   UNL     1       3.463   3.694  17.444  0.00  0.00    +0.000 NA
ATOM      7  C   UNL     1       3.630   3.210  18.742  0.00  0.00    +0.000 A 
ATOM      8  N   UNL     1       4.588   3.744  19.456  0.00  0.00    +0.000 NA
ATOM      9  C   UNL     1       5.131   4.655  18.602  0.00  0.00    +0.000 A 
ATOM     10  C   UNL     1       6.140   5.521  18.721  0.00  0.00    +0.000 A 
ATOM     11  H   UNL     1       4.235   5.387  15.413  0.00  0.00    +0.000 HD
ENDROOT
BRANCH   7  12
ATOM     12  S   UNL     1       2.594   1.959  19.356  0.00  0.00    +0.000 S 
BRANCH  12  13
ATOM     13  C   UNL     1       1.588   2.894  20.548  0.00  0.00    +0.000 C 
BRANCH  13  14
ATOM     14  C   UNL     1       1.444   4.310  20.061  0.00  0.00    +0.000 C 
ATOM     15  C   UNL     1       1.949   5.406  20.659  0.00  0.00    +0.000 C 
BRANCH  15  16
ATOM     16  C   UNL     1       1.783   6.773  20.125  0.00  0.00    +0.000 A 
ATOM     17  C   UNL     1       2.203   7.119  18.832  0.00  0.00    +0.000 A 
ATOM     18  C   UNL     1       2.078   8.428  18.361  0.00  0.00    +0.000 A 
ATOM     19  C   UNL     1       1.503   9.407  19.164  0.00  0.00    +0.000 A 
ATOM     20  C   UNL     1       1.033   9.070  20.433  0.00  0.00    +0.000 A 
ATOM     21  C   UNL     1       1.167   7.759  20.908  0.00  0.00    +0.000 A 
ENDBRANCH  15  16
ENDBRANCH  13  14
ENDBRANCH  12  13
ENDBRANCH   7  12
TORSDOF 4
ENDMDL
MODEL 6
REMARK VINA RESULT:      -6.6      1.412      1.831
REMARK  Name = 
REMARK  4 active torsions:
REMARK  status: ('A' for Active; 'I' for Inactive)
REMARK    1  A    between atoms: C_7  and  S_8
REMARK    2  A    between atoms: S_8  and  C_9
REMARK    3  A    between atoms: C_9  and  C_10
REMARK    4  A    between atoms: C_11  and  C_12
REMARK                            x       y       z     vdW  Elec       q    Type
REMARK                         _______ _______ _______ _____ _____    ______ ____
ROOT
ATOM      1 BR   UNL     1       7.747   7.156  17.639  0.00  0.00    +0.000 Br
ATOM      2  C   UNL     1       6.297   6.000  17.484  0.00  0.00    +0.000 A 
ATOM      3  C   UNL     1       5.689   5.741  16.305  0.00  0.00    +0.000 A 
ATOM      4  N   UNL     1       4.610   4.879  16.204  0.00  0.00    +0.000 N 
ATOM      5  C   UNL     1       4.130   4.262  17.329  0.00  0.00    +0.000 A 
ATOM      6  N   UNL     1       3.152   3.428  17.512  0.00  0.00    +0.000 NA
ATOM      7  C   UNL     1       3.183   3.172  18.883  0.00  0.00    +0.000 A 
ATOM      8  N   UNL     1       4.104   3.787  19.581  0.00  0.00    +0.000 NA
ATOM      9  C   UNL     1       4.763   4.515  18.639  0.00  0.00    +0.000 A 
ATOM     10  C   UNL     1       5.801   5.351  18.701  0.00  0.00    +0.000 A 
ATOM     11  H   UNL     1       4.181   4.711  15.302  0.00  0.00    +0.000 HD
ENDROOT
BRANCH   7  12
ATOM     12  S   UNL     1       2.036   2.086  19.603  0.00  0.00    +0.000 S 
BRANCH  12  13
ATOM     13  C   UNL     1       1.363   3.124  20.936  0.00  0.00    +0.000 C 
BRANCH  13  14
ATOM     14  C   UNL     1       1.186   4.526  20.422  0.00  0.00    +0.000 C 
ATOM     15  C   UNL     1       1.964   5.583  20.728  0.00  0.00    +0.000 C 
BRANCH  15  16
ATOM     16  C   UNL     1       1.747   6.937  20.179  0.00  0.00    +0.000 A 
ATOM     17  C   UNL     1       1.049   7.923  20.893  0.00  0.00    +0.000 A 
ATOM     18  C   UNL     1       0.816   9.184  20.340  0.00  0.00    +0.000 A 
ATOM     19  C   UNL     1       1.303   9.491  19.073  0.00  0.00    +0.000 A 
ATOM     20  C   UNL     1       2.044   8.541  18.370  0.00  0.00    +0.000 A 
ATOM     21  C   UNL     1       2.270   7.274  18.923  0.00  0.00    +0.000 A 
ENDBRANCH  15  16
ENDBRANCH  13  14
ENDBRANCH  12  13
ENDBRANCH   7  12
TORSDOF 4
ENDMDL
MODEL 7
REMARK VINA RESULT:      -6.5      5.057      6.312
REMARK  Name = 
REMARK  4 active torsions:
REMARK  status: ('A' for Active; 'I' for Inactive)
REMARK    1  A    between atoms: C_7  and  S_8
REMARK    2  A    between atoms: S_8  and  C_9
REMARK    3  A    between atoms: C_9  and  C_10
REMARK    4  A    between atoms: C_11  and  C_12
REMARK                            x       y       z     vdW  Elec       q    Type
REMARK                         _______ _______ _______ _____ _____    ______ ____
ROOT
ATOM      1 BR   UNL     1       0.555   2.436  19.479  0.00  0.00    +0.000 Br
ATOM      2  C   UNL     1       2.308   2.852  19.011  0.00  0.00    +0.000 A 
ATOM      3  C   UNL     1       3.033   2.104  18.150  0.00  0.00    +0.000 A 
ATOM      4  N   UNL     1       4.337   2.423  17.811  0.00  0.00    +0.000 N 
ATOM      5  C   UNL     1       4.927   3.532  18.361  0.00  0.00    +0.000 A 
ATOM      6  N   UNL     1       6.110   4.047  18.220  0.00  0.00    +0.000 NA
ATOM      7  C   UNL     1       6.085   5.172  19.044  0.00  0.00    +0.000 A 
ATOM      8  N   UNL     1       4.977   5.403  19.700  0.00  0.00    +0.000 NA
ATOM      9  C   UNL     1       4.172   4.378  19.307  0.00  0.00    +0.000 A 
ATOM     10  C   UNL     1       2.917   4.042  19.611  0.00  0.00    +0.000 A 
ATOM     11  H   UNL     1       4.849   1.837  17.163  0.00  0.00    +0.000 HD
ENDROOT
BRANCH   7  12
ATOM     12  S   UNL     1       7.479   6.198  19.175  0.00  0.00    +0.000 S 
BRANCH  12  13
ATOM     13  C   UNL     1       7.603   6.836  17.476  0.00  0.00    +0.000 C 
BRANCH  13  14
ATOM     14  C   UNL     1       8.016   8.281  17.526  0.00  0.00    +0.000 C 
ATOM     15  C   UNL     1       8.559   8.911  18.586  0.00  0.00    +0.000 C 
BRANCH  15  16
ATOM     16  C   UNL     1       8.957  10.333  18.569  0.00  0.00    +0.000 A 
ATOM     17  C   UNL     1      10.039  10.809  19.325  0.00  0.00    +0.000 A 
ATOM     18  C   UNL     1      10.372  12.166  19.331  0.00  0.00    +0.000 A 
ATOM     19  C   UNL     1       9.646  13.066  18.557  0.00  0.00    +0.000 A 
ATOM     20  C   UNL     1       8.601  12.603  17.759  0.00  0.00    +0.000 A 
ATOM     21  C   UNL     1       8.261  11.243  17.761  0.00  0.00    +0.000 A 
ENDBRANCH  15  16
ENDBRANCH  13  14
ENDBRANCH  12  13
ENDBRANCH   7  12
TORSDOF 4
ENDMDL
MODEL 8
REMARK VINA RESULT:      -6.5      5.929      8.782
REMARK  Name = 
REMARK  4 active torsions:
REMARK  status: ('A' for Active; 'I' for Inactive)
REMARK    1  A    between atoms: C_7  and  S_8
REMARK    2  A    between atoms: S_8  and  C_9
REMARK    3  A    between atoms: C_9  and  C_10
REMARK    4  A    between atoms: C_11  and  C_12
REMARK                            x       y       z     vdW  Elec       q    Type
REMARK                         _______ _______ _______ _____ _____    ______ ____
ROOT
ATOM      1 BR   UNL     1      -6.264  12.643  17.421  0.00  0.00    +0.000 Br
ATOM      2  C   UNL     1      -4.637  11.748  17.311  0.00  0.00    +0.000 A 
ATOM      3  C   UNL     1      -4.230  11.103  16.195  0.00  0.00    +0.000 A 
ATOM      4  N   UNL     1      -3.017  10.439  16.126  0.00  0.00    +0.000 N 
ATOM      5  C   UNL     1      -2.190  10.426  17.219  0.00  0.00    +0.000 A 
ATOM      6  N   UNL     1      -1.025   9.890  17.421  0.00  0.00    +0.000 NA
ATOM      7  C   UNL     1      -0.718  10.242  18.735  0.00  0.00    +0.000 A 
ATOM      8  N   UNL     1      -1.605  10.955  19.382  0.00  0.00    +0.000 NA
ATOM      9  C   UNL     1      -2.593  11.118  18.459  0.00  0.00    +0.000 A 
ATOM     10  C   UNL     1      -3.769  11.748  18.492  0.00  0.00    +0.000 A 
ATOM     11  H   UNL     1      -2.747   9.966  15.272  0.00  0.00    +0.000 HD
ENDROOT
BRANCH   7  12
ATOM     12  S   UNL     1       0.779   9.738  19.456  0.00  0.00    +0.000 S 
BRANCH  12  13
ATOM     13  C   UNL     1       1.923   9.940  18.056  0.00  0.00    +0.000 C 
BRANCH  13  14
ATOM     14  C   UNL     1       2.589   8.621  17.775  0.00  0.00    +0.000 C 
ATOM     15  C   UNL     1       2.133   7.411  18.154  0.00  0.00    +0.000 C 
BRANCH  15  16
ATOM     16  C   UNL     1       2.827   6.146  17.837  0.00  0.00    +0.000 A 
ATOM     17  C   UNL     1       2.189   4.902  17.950  0.00  0.00    +0.000 A 
ATOM     18  C   UNL     1       2.875   3.714  17.688  0.00  0.00    +0.000 A 
ATOM     19  C   UNL     1       4.204   3.752  17.278  0.00  0.00    +0.000 A 
ATOM     20  C   UNL     1       4.839   4.981  17.110  0.00  0.00    +0.000 A 
ATOM     21  C   UNL     1       4.153   6.172  17.382  0.00  0.00    +0.000 A 
ENDBRANCH  15  16
ENDBRANCH  13  14
ENDBRANCH  12  13
ENDBRANCH   7  12
TORSDOF 4
ENDMDL
MODEL 9
REMARK VINA RESULT:      -6.4      5.371      6.509
REMARK  Name = 
REMARK  4 active torsions:
REMARK  status: ('A' for Active; 'I' for Inactive)
REMARK    1  A    between atoms: C_7  and  S_8
REMARK    2  A    between atoms: S_8  and  C_9
REMARK    3  A    between atoms: C_9  and  C_10
REMARK    4  A    between atoms: C_11  and  C_12
REMARK                            x       y       z     vdW  Elec       q    Type
REMARK                         _______ _______ _______ _____ _____    ______ ____
ROOT
ATOM      1 BR   UNL     1       0.831   2.012  19.452  0.00  0.00    +0.000 Br
ATOM      2  C   UNL     1       2.339   2.757  18.657  0.00  0.00    +0.000 A 
ATOM      3  C   UNL     1       3.345   2.009  18.150  0.00  0.00    +0.000 A 
ATOM      4  N   UNL     1       4.463   2.576  17.562  0.00  0.00    +0.000 N 
ATOM      5  C   UNL     1       4.568   3.940  17.484  0.00  0.00    +0.000 A 
ATOM      6  N   UNL     1       5.489   4.714  16.996  0.00  0.00    +0.000 NA
ATOM      7  C   UNL     1       4.999   6.000  17.222  0.00  0.00    +0.000 A 
ATOM      8  N   UNL     1       3.839   6.097  17.822  0.00  0.00    +0.000 NA
ATOM      9  C   UNL     1       3.493   4.796  18.024  0.00  0.00    +0.000 A 
ATOM     10  C   UNL     1       2.429   4.217  18.585  0.00  0.00    +0.000 A 
ATOM     11  H   UNL     1       5.197   1.982  17.195  0.00  0.00    +0.000 HD
ENDROOT
BRANCH   7  12
ATOM     12  S   UNL     1       5.910   7.391  16.722  0.00  0.00    +0.000 S 
BRANCH  12  13
ATOM     13  C   UNL     1       7.473   7.121  17.612  0.00  0.00    +0.000 C 
BRANCH  13  14
ATOM     14  C   UNL     1       8.165   8.443  17.796  0.00  0.00    +0.000 C 
ATOM     15  C   UNL     1       8.622   8.939  18.962  0.00  0.00    +0.000 C 
BRANCH  15  16
ATOM     16  C   UNL     1       9.307  10.243  19.078  0.00  0.00    +0.000 A 
ATOM     17  C   UNL     1       9.523  10.859  20.320  0.00  0.00    +0.000 A 
ATOM     18  C   UNL     1      10.132  12.113  20.405  0.00  0.00    +0.000 A 
ATOM     19  C   UNL     1      10.565  12.759  19.251  0.00  0.00    +0.000 A 
ATOM     20  C   UNL     1      10.405  12.139  18.013  0.00  0.00    +0.000 A 
ATOM     21  C   UNL     1       9.785  10.885  17.927  0.00  0.00    +0.000 A 
ENDBRANCH  15  16
ENDBRANCH  13  14
ENDBRANCH  12  13
ENDBRANCH   7  12
TORSDOF 4
ENDMDL
