MODEL 1
REMARK VINA RESULT:      -8.5      0.000      0.000
REMARK  Name = 
REMARK  6 active torsions:
REMARK  status: ('A' for Active; 'I' for Inactive)
REMARK    1  A    between atoms: C_1  and  C_2
REMARK    2  A    between atoms: C_2  and  C_3
REMARK    3  A    between atoms: C_5  and  N_6
REMARK    4  A    between atoms: N_6  and  C_7
REMARK    5  A    between atoms: C_7  and  C_8
REMARK    6  A    between atoms: C_10  and  C_11
REMARK                            x       y       z     vdW  Elec       q    Type
REMARK                         _______ _______ _______ _____ _____    ______ ____
ROOT
ATOM      1  C   UNL     1       2.472   8.481  18.114  0.00  0.00    +0.000 C 
ENDROOT
BRANCH   1   2
ATOM      2  C   UNL     1       1.287   9.249  18.597  0.00  0.00    +0.000 A 
ATOM      3  C   UNL     1       0.408  10.038  17.875  0.00  0.00    +0.000 A 
ATOM      4  C   UNL     1      -0.516  10.650  18.777  0.00  0.00    +0.000 A 
ATOM      5  C   UNL     1      -0.190  10.158  20.037  0.00  0.00    +0.000 A 
ATOM      6  N   UNL     1       0.906   9.333  19.913  0.00  0.00    +0.000 N 
ATOM      7  C   UNL     1       1.528   8.629  21.027  0.00  0.00    +0.000 C 
ATOM      8  C   UNL     1       1.137   9.210  22.382  0.00  0.00    +0.000 C 
ATOM      9  C   UNL     1      -0.370   9.437  22.440  0.00  0.00    +0.000 C 
ATOM     10  C   UNL     1      -0.801  10.446  21.376  0.00  0.00    +0.000 C 
BRANCH   4  11
ATOM     11  C   UNL     1      -1.582  11.611  18.495  0.00  0.00    +0.000 C 
ATOM     12  N   UNL     1      -1.243  12.661  17.689  0.00  0.00    +0.000 N 
ATOM     13  O   UNL     1      -2.723  11.534  18.943  0.00  0.00    +0.000 OA
ATOM     14  H   UNL     1      -0.318  12.796  17.316  0.00  0.00    +0.000 HD
ATOM     15  H   UNL     1      -1.956  13.352  17.510  0.00  0.00    +0.000 HD
ENDBRANCH   4  11
ENDBRANCH   1   2
BRANCH   1  16
ATOM     16  N   UNL     1       2.262   7.048  18.273  0.00  0.00    +0.000 NA
ATOM     17  H   UNL     1       1.930   6.684  17.383  0.00  0.00    +0.000 HD
BRANCH  16  22
ATOM     18  C   UNL     1       3.623   2.584  19.140  0.00  0.00    +0.000 C 
ATOM     19  C   UNL     1       3.083   3.860  18.477  0.00  0.00    +0.000 C 
ATOM     20  C   UNL     1       1.671   3.596  17.943  0.00  0.00    +0.000 C 
ATOM     21  C   UNL     1       3.132   5.052  19.475  0.00  0.00    +0.000 C 
ATOM     22  C   UNL     1       3.478   6.336  18.679  0.00  0.00    +0.000 C 
ATOM     23  C   UNL     1       4.253   5.739  17.535  0.00  0.00    +0.000 A 
ATOM     24  C   UNL     1       5.120   6.396  16.669  0.00  0.00    +0.000 A 
ATOM     25  C   UNL     1       5.685   5.684  15.612  0.00  0.00    +0.000 A 
ATOM     26  C   UNL     1       5.398   4.324  15.441  0.00  0.00    +0.000 A 
ATOM     27  C   UNL     1       4.559   3.657  16.337  0.00  0.00    +0.000 A 
ATOM     28  C   UNL     1       3.998   4.370  17.386  0.00  0.00    +0.000 A 
ENDBRANCH  16  22
ENDBRANCH   1  16
TORSDOF 4
ENDMDL
MODEL 2
REMARK VINA RESULT:      -8.3      1.829      3.929
REMARK  Name = 
REMARK  6 active torsions:
REMARK  status: ('A' for Active; 'I' for Inactive)
REMARK    1  A    between atoms: C_1  and  C_2
REMARK    2  A    between atoms: C_2  and  C_3
REMARK    3  A    between atoms: C_5  and  N_6
REMARK    4  A    between atoms: N_6  and  C_7
REMARK    5  A    between atoms: C_7  and  C_8
REMARK    6  A    between atoms: C_10  and  C_11
REMARK                            x       y       z     vdW  Elec       q    Type
REMARK                         _______ _______ _______ _____ _____    ______ ____
ROOT
ATOM      1  C   UNL     1       1.986   8.377  18.660  0.00  0.00    +0.000 C 
ENDROOT
BRANCH   1   2
ATOM      2  C   UNL     1       1.103   9.187  19.551  0.00  0.00    +0.000 A 
ATOM      3  C   UNL     1       1.125   9.299  20.930  0.00  0.00    +0.000 A 
ATOM      4  C   UNL     1       0.030  10.115  21.348  0.00  0.00    +0.000 A 
ATOM      5  C   UNL     1      -0.601  10.522  20.177  0.00  0.00    +0.000 A 
ATOM      6  N   UNL     1       0.045   9.941  19.108  0.00  0.00    +0.000 N 
ATOM      7  C   UNL     1      -0.333  10.145  17.716  0.00  0.00    +0.000 C 
ATOM      8  C   UNL     1      -1.745  10.703  17.566  0.00  0.00    +0.000 C 
ATOM      9  C   UNL     1      -1.957  11.861  18.535  0.00  0.00    +0.000 C 
ATOM     10  C   UNL     1      -1.813  11.383  19.980  0.00  0.00    +0.000 C 
BRANCH   4  11
ATOM     11  C   UNL     1      -0.397  10.464  22.703  0.00  0.00    +0.000 C 
ATOM     12  N   UNL     1      -0.698   9.414  23.524  0.00  0.00    +0.000 N 
ATOM     13  O   UNL     1      -0.511  11.613  23.121  0.00  0.00    +0.000 OA
ATOM     14  H   UNL     1      -0.654   8.452  23.231  0.00  0.00    +0.000 HD
ATOM     15  H   UNL     1      -1.026   9.636  24.453  0.00  0.00    +0.000 HD
ENDBRANCH   4  11
ENDBRANCH   1   2
BRANCH   1  16
ATOM     16  N   UNL     1       2.487   7.200  19.356  0.00  0.00    +0.000 NA
ATOM     17  H   UNL     1       2.084   7.198  20.290  0.00  0.00    +0.000 HD
BRANCH  16  22
ATOM     18  C   UNL     1       4.770   3.497  17.458  0.00  0.00    +0.000 C 
ATOM     19  C   UNL     1       4.246   4.570  18.423  0.00  0.00    +0.000 C 
ATOM     20  C   UNL     1       5.432   5.297  19.065  0.00  0.00    +0.000 C 
ATOM     21  C   UNL     1       3.279   5.539  17.683  0.00  0.00    +0.000 C 
ATOM     22  C   UNL     1       2.155   5.948  18.669  0.00  0.00    +0.000 C 
ATOM     23  C   UNL     1       2.136   4.739  19.565  0.00  0.00    +0.000 A 
ATOM     24  C   UNL     1       1.120   4.347  20.430  0.00  0.00    +0.000 A 
ATOM     25  C   UNL     1       1.322   3.234  21.246  0.00  0.00    +0.000 A 
ATOM     26  C   UNL     1       2.521   2.514  21.178  0.00  0.00    +0.000 A 
ATOM     27  C   UNL     1       3.523   2.887  20.279  0.00  0.00    +0.000 A 
ATOM     28  C   UNL     1       3.319   3.996  19.470  0.00  0.00    +0.000 A 
ENDBRANCH  16  22
ENDBRANCH   1  16
TORSDOF 4
ENDMDL
MODEL 3
REMARK VINA RESULT:      -8.3      1.683      2.902
REMARK  Name = 
REMARK  6 active torsions:
REMARK  status: ('A' for Active; 'I' for Inactive)
REMARK    1  A    between atoms: C_1  and  C_2
REMARK    2  A    between atoms: C_2  and  C_3
REMARK    3  A    between atoms: C_5  and  N_6
REMARK    4  A    between atoms: N_6  and  C_7
REMARK    5  A    between atoms: C_7  and  C_8
REMARK    6  A    between atoms: C_10  and  C_11
REMARK                            x       y       z     vdW  Elec       q    Type
REMARK                         _______ _______ _______ _____ _____    ______ ____
ROOT
ATOM      1  C   UNL     1       1.488   7.133  20.511  0.00  0.00    +0.000 C 
ENDROOT
BRANCH   1   2
ATOM      2  C   UNL     1       1.172   8.573  20.279  0.00  0.00    +0.000 A 
ATOM      3  C   UNL     1       1.531   9.383  19.216  0.00  0.00    +0.000 A 
ATOM      4  C   UNL     1       1.082  10.715  19.472  0.00  0.00    +0.000 A 
ATOM      5  C   UNL     1       0.403  10.653  20.686  0.00  0.00    +0.000 A 
ATOM      6  N   UNL     1       0.483   9.363  21.164  0.00  0.00    +0.000 N 
ATOM      7  C   UNL     1      -0.121   8.918  22.413  0.00  0.00    +0.000 C 
ATOM      8  C   UNL     1      -0.475  10.076  23.342  0.00  0.00    +0.000 C 
ATOM      9  C   UNL     1      -1.190  11.174  22.561  0.00  0.00    +0.000 C 
ATOM     10  C   UNL     1      -0.280  11.735  21.469  0.00  0.00    +0.000 C 
BRANCH   4  11
ATOM     11  C   UNL     1       1.281  11.926  18.677  0.00  0.00    +0.000 C 
ATOM     12  N   UNL     1       0.156  12.469  18.123  0.00  0.00    +0.000 N 
ATOM     13  O   UNL     1       2.371  12.453  18.475  0.00  0.00    +0.000 OA
ATOM     14  H   UNL     1      -0.761  12.068  18.226  0.00  0.00    +0.000 HD
ATOM     15  H   UNL     1       0.277  13.287  17.544  0.00  0.00    +0.000 HD
ENDBRANCH   4  11
ENDBRANCH   1   2
BRANCH   1  16
ATOM     16  N   UNL     1       2.723   6.757  19.836  0.00  0.00    +0.000 NA
ATOM     17  H   UNL     1       3.136   5.986  20.355  0.00  0.00    +0.000 HD
BRANCH  16  22
ATOM     18  C   UNL     1       5.334   5.454  16.093  0.00  0.00    +0.000 C 
ATOM     19  C   UNL     1       4.685   5.537  17.482  0.00  0.00    +0.000 C 
ATOM     20  C   UNL     1       5.781   5.586  18.552  0.00  0.00    +0.000 C 
ATOM     21  C   UNL     1       3.721   6.756  17.558  0.00  0.00    +0.000 C 
ATOM     22  C   UNL     1       2.510   6.360  18.441  0.00  0.00    +0.000 C 
ATOM     23  C   UNL     1       2.494   4.871  18.218  0.00  0.00    +0.000 A 
ATOM     24  C   UNL     1       1.444   3.993  18.461  0.00  0.00    +0.000 A 
ATOM     25  C   UNL     1       1.649   2.627  18.270  0.00  0.00    +0.000 A 
ATOM     26  C   UNL     1       2.889   2.154  17.821  0.00  0.00    +0.000 A 
ATOM     27  C   UNL     1       3.929   3.042  17.540  0.00  0.00    +0.000 A 
ATOM     28  C   UNL     1       3.721   4.401  17.733  0.00  0.00    +0.000 A 
ENDBRANCH  16  22
ENDBRANCH   1  16
TORSDOF 4
ENDMDL
MODEL 4
REMARK VINA RESULT:      -8.2      0.890      2.436
REMARK  Name = 
REMARK  6 active torsions:
REMARK  status: ('A' for Active; 'I' for Inactive)
REMARK    1  A    between atoms: C_1  and  C_2
REMARK    2  A    between atoms: C_2  and  C_3
REMARK    3  A    between atoms: C_5  and  N_6
REMARK    4  A    between atoms: N_6  and  C_7
REMARK    5  A    between atoms: C_7  and  C_8
REMARK    6  A    between atoms: C_10  and  C_11
REMARK                            x       y       z     vdW  Elec       q    Type
REMARK                         _______ _______ _______ _____ _____    ______ ____
ROOT
ATOM      1  C   UNL     1       2.535   8.257  18.597  0.00  0.00    +0.000 C 
ENDROOT
BRANCH   1   2
ATOM      2  C   UNL     1       1.325   9.079  18.897  0.00  0.00    +0.000 A 
ATOM      3  C   UNL     1       0.502   9.768  18.023  0.00  0.00    +0.000 A 
ATOM      4  C   UNL     1      -0.476  10.488  18.775  0.00  0.00    +0.000 A 
ATOM      5  C   UNL     1      -0.240  10.160  20.107  0.00  0.00    +0.000 A 
ATOM      6  N   UNL     1       0.857   9.327  20.162  0.00  0.00    +0.000 N 
ATOM      7  C   UNL     1       1.396   8.771  21.396  0.00  0.00    +0.000 C 
ATOM      8  C   UNL     1       0.918   9.518  22.638  0.00  0.00    +0.000 C 
ATOM      9  C   UNL     1      -0.588   9.748  22.563  0.00  0.00    +0.000 C 
ATOM     10  C   UNL     1      -0.938  10.614  21.354  0.00  0.00    +0.000 C 
BRANCH   4  11
ATOM     11  C   UNL     1      -1.514  11.404  18.302  0.00  0.00    +0.000 C 
ATOM     12  N   UNL     1      -1.074  12.584  17.773  0.00  0.00    +0.000 N 
ATOM     13  O   UNL     1      -2.719  11.182  18.369  0.00  0.00    +0.000 OA
ATOM     14  H   UNL     1      -0.101  12.838  17.719  0.00  0.00    +0.000 HD
ATOM     15  H   UNL     1      -1.776  13.243  17.471  0.00  0.00    +0.000 HD
ENDBRANCH   4  11
ENDBRANCH   1   2
BRANCH   1  16
ATOM     16  N   UNL     1       2.302   6.855  18.915  0.00  0.00    +0.000 NA
ATOM     17  H   UNL     1       1.345   6.768  19.249  0.00  0.00    +0.000 HD
BRANCH  16  22
ATOM     18  C   UNL     1       5.824   4.320  16.992  0.00  0.00    +0.000 C 
ATOM     19  C   UNL     1       4.775   4.894  17.955  0.00  0.00    +0.000 C 
ATOM     20  C   UNL     1       5.467   5.354  19.243  0.00  0.00    +0.000 C 
ATOM     21  C   UNL     1       3.975   6.037  17.266  0.00  0.00    +0.000 C 
ATOM     22  C   UNL     1       2.509   5.970  17.764  0.00  0.00    +0.000 C 
ATOM     23  C   UNL     1       2.406   4.503  18.088  0.00  0.00    +0.000 A 
ATOM     24  C   UNL     1       1.245   3.755  18.253  0.00  0.00    +0.000 A 
ATOM     25  C   UNL     1       1.353   2.419  18.636  0.00  0.00    +0.000 A 
ATOM     26  C   UNL     1       2.612   1.838  18.831  0.00  0.00    +0.000 A 
ATOM     27  C   UNL     1       3.777   2.581  18.626  0.00  0.00    +0.000 A 
ATOM     28  C   UNL     1       3.665   3.911  18.246  0.00  0.00    +0.000 A 
ENDBRANCH  16  22
ENDBRANCH   1  16
TORSDOF 4
ENDMDL
MODEL 5
REMARK VINA RESULT:      -8.1      1.885      2.848
REMARK  Name = 
REMARK  6 active torsions:
REMARK  status: ('A' for Active; 'I' for Inactive)
REMARK    1  A    between atoms: C_1  and  C_2
REMARK    2  A    between atoms: C_2  and  C_3
REMARK    3  A    between atoms: C_5  and  N_6
REMARK    4  A    between atoms: N_6  and  C_7
REMARK    5  A    between atoms: C_7  and  C_8
REMARK    6  A    between atoms: C_10  and  C_11
REMARK                            x       y       z     vdW  Elec       q    Type
REMARK                         _______ _______ _______ _____ _____    ______ ____
ROOT
ATOM      1  C   UNL     1       1.958   8.784  17.965  0.00  0.00    +0.000 C 
ENDROOT
BRANCH   1   2
ATOM      2  C   UNL     1       1.497   9.351  19.266  0.00  0.00    +0.000 A 
ATOM      3  C   UNL     1       1.242   8.699  20.460  0.00  0.00    +0.000 A 
ATOM      4  C   UNL     1       0.732   9.640  21.405  0.00  0.00    +0.000 A 
ATOM      5  C   UNL     1       0.744  10.869  20.753  0.00  0.00    +0.000 A 
ATOM      6  N   UNL     1       1.189  10.674  19.464  0.00  0.00    +0.000 N 
ATOM      7  C   UNL     1       1.343  11.741  18.484  0.00  0.00    +0.000 C 
ATOM      8  C   UNL     1       0.573  13.003  18.862  0.00  0.00    +0.000 C 
ATOM      9  C   UNL     1       0.820  13.347  20.328  0.00  0.00    +0.000 C 
ATOM     10  C   UNL     1       0.315  12.224  21.233  0.00  0.00    +0.000 C 
BRANCH   4  11
ATOM     11  C   UNL     1       0.261   9.413  22.772  0.00  0.00    +0.000 C 
ATOM     12  N   UNL     1      -0.992   8.881  22.892  0.00  0.00    +0.000 N 
ATOM     13  O   UNL     1       0.905   9.683  23.782  0.00  0.00    +0.000 OA
ATOM     14  H   UNL     1      -1.580   8.668  22.104  0.00  0.00    +0.000 HD
ATOM     15  H   UNL     1      -1.347   8.748  23.827  0.00  0.00    +0.000 HD
ENDBRANCH   4  11
ENDBRANCH   1   2
BRANCH   1  16
ATOM     16  N   UNL     1       1.985   7.328  18.014  0.00  0.00    +0.000 NA
ATOM     17  H   UNL     1       1.793   6.983  17.077  0.00  0.00    +0.000 HD
BRANCH  16  22
ATOM     18  C   UNL     1       3.768   3.195  19.521  0.00  0.00    +0.000 C 
ATOM     19  C   UNL     1       3.100   4.297  18.686  0.00  0.00    +0.000 C 
ATOM     20  C   UNL     1       1.708   3.829  18.248  0.00  0.00    +0.000 C 
ATOM     21  C   UNL     1       3.059   5.632  19.483  0.00  0.00    +0.000 C 
ATOM     22  C   UNL     1       3.269   6.799  18.485  0.00  0.00    +0.000 C 
ATOM     23  C   UNL     1       4.074   6.098  17.423  0.00  0.00    +0.000 A 
ATOM     24  C   UNL     1       4.859   6.683  16.436  0.00  0.00    +0.000 A 
ATOM     25  C   UNL     1       5.466   5.865  15.484  0.00  0.00    +0.000 A 
ATOM     26  C   UNL     1       5.302   4.475  15.538  0.00  0.00    +0.000 A 
ATOM     27  C   UNL     1       4.546   3.887  16.555  0.00  0.00    +0.000 A 
ATOM     28  C   UNL     1       3.942   4.705  17.499  0.00  0.00    +0.000 A 
ENDBRANCH  16  22
ENDBRANCH   1  16
TORSDOF 4
ENDMDL
MODEL 6
REMARK VINA RESULT:      -8.1      1.324      1.508
REMARK  Name = 
REMARK  6 active torsions:
REMARK  status: ('A' for Active; 'I' for Inactive)
REMARK    1  A    between atoms: C_1  and  C_2
REMARK    2  A    between atoms: C_2  and  C_3
REMARK    3  A    between atoms: C_5  and  N_6
REMARK    4  A    between atoms: N_6  and  C_7
REMARK    5  A    between atoms: C_7  and  C_8
REMARK    6  A    between atoms: C_10  and  C_11
REMARK                            x       y       z     vdW  Elec       q    Type
REMARK                         _______ _______ _______ _____ _____    ______ ____
ROOT
ATOM      1  C   UNL     1       2.159   8.982  18.368  0.00  0.00    +0.000 C 
ENDROOT
BRANCH   1   2
ATOM      2  C   UNL     1       0.787   9.568  18.344  0.00  0.00    +0.000 A 
ATOM      3  C   UNL     1      -0.207   9.420  17.393  0.00  0.00    +0.000 A 
ATOM      4  C   UNL     1      -1.319  10.244  17.749  0.00  0.00    +0.000 A 
ATOM      5  C   UNL     1      -0.972  10.836  18.959  0.00  0.00    +0.000 A 
ATOM      6  N   UNL     1       0.302  10.433  19.293  0.00  0.00    +0.000 N 
ATOM      7  C   UNL     1       0.998  10.848  20.504  0.00  0.00    +0.000 C 
ATOM      8  C   UNL     1       0.375  12.083  21.147  0.00  0.00    +0.000 C 
ATOM      9  C   UNL     1      -1.140  11.929  21.218  0.00  0.00    +0.000 C 
ATOM     10  C   UNL     1      -1.733  11.806  19.814  0.00  0.00    +0.000 C 
BRANCH   4  11
ATOM     11  C   UNL     1      -2.569  10.471  17.024  0.00  0.00    +0.000 C 
ATOM     12  N   UNL     1      -2.526  11.420  16.042  0.00  0.00    +0.000 N 
ATOM     13  O   UNL     1      -3.623   9.886  17.256  0.00  0.00    +0.000 OA
ATOM     14  H   UNL     1      -1.702  11.956  15.825  0.00  0.00    +0.000 HD
ATOM     15  H   UNL     1      -3.387  11.615  15.552  0.00  0.00    +0.000 HD
ENDBRANCH   4  11
ENDBRANCH   1   2
BRANCH   1  16
ATOM     16  N   UNL     1       2.117   7.550  18.101  0.00  0.00    +0.000 NA
ATOM     17  H   UNL     1       2.058   7.425  17.094  0.00  0.00    +0.000 HD
BRANCH  16  22
ATOM     18  C   UNL     1       3.284   3.140  19.410  0.00  0.00    +0.000 C 
ATOM     19  C   UNL     1       2.818   4.368  18.616  0.00  0.00    +0.000 C 
ATOM     20  C   UNL     1       1.423   4.102  18.041  0.00  0.00    +0.000 C 
ATOM     21  C   UNL     1       2.864   5.641  19.509  0.00  0.00    +0.000 C 
ATOM     22  C   UNL     1       3.289   6.840  18.624  0.00  0.00    +0.000 C 
ATOM     23  C   UNL     1       4.093   6.122  17.573  0.00  0.00    +0.000 A 
ATOM     24  C   UNL     1       5.019   6.675  16.695  0.00  0.00    +0.000 A 
ATOM     25  C   UNL     1       5.605   5.856  15.730  0.00  0.00    +0.000 A 
ATOM     26  C   UNL     1       5.279   4.496  15.664  0.00  0.00    +0.000 A 
ATOM     27  C   UNL     1       4.380   3.935  16.573  0.00  0.00    +0.000 A 
ATOM     28  C   UNL     1       3.797   4.753  17.530  0.00  0.00    +0.000 A 
ENDBRANCH  16  22
ENDBRANCH   1  16
TORSDOF 4
ENDMDL
MODEL 7
REMARK VINA RESULT:      -8.1      1.462      2.773
REMARK  Name = 
REMARK  6 active torsions:
REMARK  status: ('A' for Active; 'I' for Inactive)
REMARK    1  A    between atoms: C_1  and  C_2
REMARK    2  A    between atoms: C_2  and  C_3
REMARK    3  A    between atoms: C_5  and  N_6
REMARK    4  A    between atoms: N_6  and  C_7
REMARK    5  A    between atoms: C_7  and  C_8
REMARK    6  A    between atoms: C_10  and  C_11
REMARK                            x       y       z     vdW  Elec       q    Type
REMARK                         _______ _______ _______ _____ _____    ______ ____
ROOT
ATOM      1  C   UNL     1       1.922   8.899  18.102  0.00  0.00    +0.000 C 
ENDROOT
BRANCH   1   2
ATOM      2  C   UNL     1       1.024   9.510  19.126  0.00  0.00    +0.000 A 
ATOM      3  C   UNL     1       1.157   9.525  20.503  0.00  0.00    +0.000 A 
ATOM      4  C   UNL     1       0.006  10.146  21.075  0.00  0.00    +0.000 A 
ATOM      5  C   UNL     1      -0.780  10.543  19.997  0.00  0.00    +0.000 A 
ATOM      6  N   UNL     1      -0.161  10.137  18.835  0.00  0.00    +0.000 N 
ATOM      7  C   UNL     1      -0.690  10.385  17.500  0.00  0.00    +0.000 C 
ATOM      8  C   UNL     1      -2.172  10.747  17.512  0.00  0.00    +0.000 C 
ATOM      9  C   UNL     1      -2.448  11.792  18.588  0.00  0.00    +0.000 C 
ATOM     10  C   UNL     1      -2.109  11.237  19.972  0.00  0.00    +0.000 C 
BRANCH   4  11
ATOM     11  C   UNL     1      -0.338  10.334  22.485  0.00  0.00    +0.000 C 
ATOM     12  N   UNL     1      -0.623   9.198  23.187  0.00  0.00    +0.000 N 
ATOM     13  O   UNL     1      -0.398  11.425  23.046  0.00  0.00    +0.000 OA
ATOM     14  H   UNL     1      -0.621   8.278  22.777  0.00  0.00    +0.000 HD
ATOM     15  H   UNL     1      -0.894   9.309  24.153  0.00  0.00    +0.000 HD
ENDBRANCH   4  11
ENDBRANCH   1   2
BRANCH   1  16
ATOM     16  N   UNL     1       1.845   7.445  18.145  0.00  0.00    +0.000 NA
ATOM     17  H   UNL     1       1.686   7.116  17.196  0.00  0.00    +0.000 HD
BRANCH  16  22
ATOM     18  C   UNL     1       3.300   3.152  19.552  0.00  0.00    +0.000 C 
ATOM     19  C   UNL     1       2.758   4.330  18.729  0.00  0.00    +0.000 C 
ATOM     20  C   UNL     1       1.388   3.957  18.152  0.00  0.00    +0.000 C 
ATOM     21  C   UNL     1       2.710   5.620  19.597  0.00  0.00    +0.000 C 
ATOM     22  C   UNL     1       3.058   6.827  18.689  0.00  0.00    +0.000 C 
ATOM     23  C   UNL     1       3.917   6.144  17.658  0.00  0.00    +0.000 A 
ATOM     24  C   UNL     1       4.810   6.741  16.774  0.00  0.00    +0.000 A 
ATOM     25  C   UNL     1       5.457   5.945  15.830  0.00  0.00    +0.000 A 
ATOM     26  C   UNL     1       5.225   4.564  15.789  0.00  0.00    +0.000 A 
ATOM     27  C   UNL     1       4.360   3.962  16.705  0.00  0.00    +0.000 A 
ATOM     28  C   UNL     1       3.716   4.758  17.641  0.00  0.00    +0.000 A 
ENDBRANCH  16  22
ENDBRANCH   1  16
TORSDOF 4
ENDMDL
MODEL 8
REMARK VINA RESULT:      -8.1      1.349      1.395
REMARK  Name = 
REMARK  6 active torsions:
REMARK  status: ('A' for Active; 'I' for Inactive)
REMARK    1  A    between atoms: C_1  and  C_2
REMARK    2  A    between atoms: C_2  and  C_3
REMARK    3  A    between atoms: C_5  and  N_6
REMARK    4  A    between atoms: N_6  and  C_7
REMARK    5  A    between atoms: C_7  and  C_8
REMARK    6  A    between atoms: C_10  and  C_11
REMARK                            x       y       z     vdW  Elec       q    Type
REMARK                         _______ _______ _______ _____ _____    ______ ____
ROOT
ATOM      1  C   UNL     1       1.852   7.582  19.544  0.00  0.00    +0.000 C 
ENDROOT
BRANCH   1   2
ATOM      2  C   UNL     1       1.305   8.968  19.633  0.00  0.00    +0.000 A 
ATOM      3  C   UNL     1       1.359   9.988  18.699  0.00  0.00    +0.000 A 
ATOM      4  C   UNL     1       0.782  11.166  19.262  0.00  0.00    +0.000 A 
ATOM      5  C   UNL     1       0.340  10.797  20.529  0.00  0.00    +0.000 A 
ATOM      6  N   UNL     1       0.679   9.479  20.742  0.00  0.00    +0.000 N 
ATOM      7  C   UNL     1       0.368   8.744  21.961  0.00  0.00    +0.000 C 
ATOM      8  C   UNL     1       0.026   9.661  23.131  0.00  0.00    +0.000 C 
ATOM      9  C   UNL     1      -0.959  10.736  22.682  0.00  0.00    +0.000 C 
ATOM     10  C   UNL     1      -0.338  11.610  21.592  0.00  0.00    +0.000 C 
BRANCH   4  11
ATOM     11  C   UNL     1       0.671  12.507  18.686  0.00  0.00    +0.000 C 
ATOM     12  N   UNL     1      -0.446  12.745  17.937  0.00  0.00    +0.000 N 
ATOM     13  O   UNL     1       1.510  13.393  18.823  0.00  0.00    +0.000 OA
ATOM     14  H   UNL     1      -1.154  12.050  17.762  0.00  0.00    +0.000 HD
ATOM     15  H   UNL     1      -0.525  13.653  17.504  0.00  0.00    +0.000 HD
ENDBRANCH   4  11
ENDBRANCH   1   2
BRANCH   1  16
ATOM     16  N   UNL     1       2.666   7.421  18.346  0.00  0.00    +0.000 NA
ATOM     17  H   UNL     1       2.868   8.349  17.983  0.00  0.00    +0.000 HD
BRANCH  16  22
ATOM     18  C   UNL     1       4.066   2.991  19.316  0.00  0.00    +0.000 C 
ATOM     19  C   UNL     1       3.449   4.232  18.655  0.00  0.00    +0.000 C 
ATOM     20  C   UNL     1       1.964   3.974  18.379  0.00  0.00    +0.000 C 
ATOM     21  C   UNL     1       3.684   5.490  19.539  0.00  0.00    +0.000 C 
ATOM     22  C   UNL     1       3.918   6.703  18.602  0.00  0.00    +0.000 C 
ATOM     23  C   UNL     1       4.484   6.001  17.396  0.00  0.00    +0.000 A 
ATOM     24  C   UNL     1       5.208   6.568  16.354  0.00  0.00    +0.000 A 
ATOM     25  C   UNL     1       5.579   5.765  15.276  0.00  0.00    +0.000 A 
ATOM     26  C   UNL     1       5.242   4.405  15.257  0.00  0.00    +0.000 A 
ATOM     27  C   UNL     1       4.550   3.830  16.325  0.00  0.00    +0.000 A 
ATOM     28  C   UNL     1       4.181   4.633  17.395  0.00  0.00    +0.000 A 
ENDBRANCH  16  22
ENDBRANCH   1  16
TORSDOF 4
ENDMDL
MODEL 9
REMARK VINA RESULT:      -8.1      1.200      2.828
REMARK  Name = 
REMARK  6 active torsions:
REMARK  status: ('A' for Active; 'I' for Inactive)
REMARK    1  A    between atoms: C_1  and  C_2
REMARK    2  A    between atoms: C_2  and  C_3
REMARK    3  A    between atoms: C_5  and  N_6
REMARK    4  A    between atoms: N_6  and  C_7
REMARK    5  A    between atoms: C_7  and  C_8
REMARK    6  A    between atoms: C_10  and  C_11
REMARK                            x       y       z     vdW  Elec       q    Type
REMARK                         _______ _______ _______ _____ _____    ______ ____
ROOT
ATOM      1  C   UNL     1       2.290   8.276  18.406  0.00  0.00    +0.000 C 
ENDROOT
BRANCH   1   2
ATOM      2  C   UNL     1       1.176   9.171  18.835  0.00  0.00    +0.000 A 
ATOM      3  C   UNL     1       0.370   9.990  18.063  0.00  0.00    +0.000 A 
ATOM      4  C   UNL     1      -0.498  10.731  18.921  0.00  0.00    +0.000 A 
ATOM      5  C   UNL     1      -0.218  10.287  20.210  0.00  0.00    +0.000 A 
ATOM      6  N   UNL     1       0.802   9.364  20.141  0.00  0.00    +0.000 N 
ATOM      7  C   UNL     1       1.359   8.675  21.298  0.00  0.00    +0.000 C 
ATOM      8  C   UNL     1       1.018   9.367  22.615  0.00  0.00    +0.000 C 
ATOM      9  C   UNL     1      -0.464   9.726  22.650  0.00  0.00    +0.000 C 
ATOM     10  C   UNL     1      -0.804  10.705  21.527  0.00  0.00    +0.000 C 
BRANCH   4  11
ATOM     11  C   UNL     1      -1.476  11.763  18.578  0.00  0.00    +0.000 C 
ATOM     12  N   UNL     1      -1.103  12.637  17.596  0.00  0.00    +0.000 N 
ATOM     13  O   UNL     1      -2.571  11.890  19.119  0.00  0.00    +0.000 OA
ATOM     14  H   UNL     1      -0.209  12.604  17.136  0.00  0.00    +0.000 HD
ATOM     15  H   UNL     1      -1.752  13.376  17.367  0.00  0.00    +0.000 HD
ENDBRANCH   4  11
ENDBRANCH   1   2
BRANCH   1  16
ATOM     16  N   UNL     1       2.397   7.121  19.286  0.00  0.00    +0.000 NA
ATOM     17  H   UNL     1       1.745   7.256  20.055  0.00  0.00    +0.000 HD
BRANCH  16  22
ATOM     18  C   UNL     1       4.792   3.456  17.451  0.00  0.00    +0.000 C 
ATOM     19  C   UNL     1       4.229   4.525  18.400  0.00  0.00    +0.000 C 
ATOM     20  C   UNL     1       5.388   5.284  19.054  0.00  0.00    +0.000 C 
ATOM     21  C   UNL     1       3.252   5.466  17.638  0.00  0.00    +0.000 C 
ATOM     22  C   UNL     1       2.104   5.856  18.603  0.00  0.00    +0.000 C 
ATOM     23  C   UNL     1       2.099   4.654  19.509  0.00  0.00    +0.000 A 
ATOM     24  C   UNL     1       1.079   4.245  20.362  0.00  0.00    +0.000 A 
ATOM     25  C   UNL     1       1.294   3.143  21.189  0.00  0.00    +0.000 A 
ATOM     26  C   UNL     1       2.511   2.451  21.144  0.00  0.00    +0.000 A 
ATOM     27  C   UNL     1       3.517   2.839  20.258  0.00  0.00    +0.000 A 
ATOM     28  C   UNL     1       3.300   3.937  19.437  0.00  0.00    +0.000 A 
ENDBRANCH  16  22
ENDBRANCH   1  16
TORSDOF 4
ENDMDL
