MODEL 1
REMARK VINA RESULT:      -6.6      0.000      0.000
REMARK  Name = 
REMARK  3 active torsions:
REMARK  status: ('A' for Active; 'I' for Inactive)
REMARK    1  A    between atoms: N_1  and  C_2
REMARK    2  A    between atoms: C_5  and  C_6
REMARK    3  A    between atoms: C_9  and  N_10
REMARK                            x       y       z     vdW  Elec       q    Type
REMARK                         _______ _______ _______ _____ _____    ______ ____
ROOT
ATOM      1  C   UNL     1       6.981   4.914  15.097  0.00  0.00    +0.000 A 
ATOM      2  C   UNL     1       5.726   4.573  14.595  0.00  0.00    +0.000 A 
ATOM      3  C   UNL     1       4.710   4.121  15.446  0.00  0.00    +0.000 A 
ATOM      4  C   UNL     1       4.908   4.047  16.832  0.00  0.00    +0.000 A 
ATOM      5  C   UNL     1       6.163   4.418  17.334  0.00  0.00    +0.000 A 
ATOM      6  C   UNL     1       7.178   4.867  16.477  0.00  0.00    +0.000 A 
ENDROOT
BRANCH   4   7
ATOM      7  C   UNL     1       3.837   3.629  17.756  0.00  0.00    +0.000 A 
ATOM      8  C   UNL     1       2.535   3.251  17.467  0.00  0.00    +0.000 A 
ATOM      9  C   UNL     1       1.793   2.874  18.628  0.00  0.00    +0.000 A 
ATOM     10  C   UNL     1       2.561   2.975  19.765  0.00  0.00    +0.000 A 
ATOM     11  S   UNL     1       4.140   3.499  19.447  0.00  0.00    +0.000 S 
BRANCH  10  12
ATOM     12  N   UNL     1       2.144   2.686  21.113  0.00  0.00    +0.000 N 
ATOM     13  O   UNL     1       3.043   2.374  21.908  0.00  0.00    +0.000 OA
ATOM     14  O   UNL     1       0.941   2.764  21.391  0.00  0.00    +0.000 OA
ENDBRANCH  10  12
ENDBRANCH   4   7
BRANCH   1  15
ATOM     15  N   UNL     1       7.932   5.518  14.270  0.00  0.00    +0.000 N 
ATOM     16  H   UNL     1       8.872   5.525  14.653  0.00  0.00    +0.000 HD
ATOM     17  H   UNL     1       7.654   6.424  13.908  0.00  0.00    +0.000 HD
ENDBRANCH   1  15
TORSDOF 3
ENDMDL
MODEL 2
REMARK VINA RESULT:      -6.6      3.768      6.488
REMARK  Name = 
REMARK  3 active torsions:
REMARK  status: ('A' for Active; 'I' for Inactive)
REMARK    1  A    between atoms: N_1  and  C_2
REMARK    2  A    between atoms: C_5  and  C_6
REMARK    3  A    between atoms: C_9  and  N_10
REMARK                            x       y       z     vdW  Elec       q    Type
REMARK                         _______ _______ _______ _____ _____    ______ ____
ROOT
ATOM      1  C   UNL     1       1.575   3.478  20.337  0.00  0.00    +0.000 A 
ATOM      2  C   UNL     1       1.542   2.931  19.055  0.00  0.00    +0.000 A 
ATOM      3  C   UNL     1       2.356   3.439  18.035  0.00  0.00    +0.000 A 
ATOM      4  C   UNL     1       3.265   4.477  18.286  0.00  0.00    +0.000 A 
ATOM      5  C   UNL     1       3.313   5.004  19.584  0.00  0.00    +0.000 A 
ATOM      6  C   UNL     1       2.494   4.494  20.600  0.00  0.00    +0.000 A 
ENDROOT
BRANCH   4   7
ATOM      7  C   UNL     1       4.173   4.992  17.245  0.00  0.00    +0.000 A 
ATOM      8  C   UNL     1       4.465   6.307  16.917  0.00  0.00    +0.000 A 
ATOM      9  C   UNL     1       5.427   6.419  15.866  0.00  0.00    +0.000 A 
ATOM     10  C   UNL     1       5.837   5.179  15.431  0.00  0.00    +0.000 A 
ATOM     11  S   UNL     1       5.095   3.910  16.272  0.00  0.00    +0.000 S 
BRANCH  10  12
ATOM     12  N   UNL     1       6.787   4.905  14.384  0.00  0.00    +0.000 N 
ATOM     13  O   UNL     1       6.496   3.982  13.609  0.00  0.00    +0.000 OA
ATOM     14  O   UNL     1       7.815   5.592  14.323  0.00  0.00    +0.000 OA
ENDBRANCH  10  12
ENDBRANCH   4   7
BRANCH   1  15
ATOM     15  N   UNL     1       0.886   2.862  21.385  0.00  0.00    +0.000 N 
ATOM     16  H   UNL     1       0.872   1.848  21.334  0.00  0.00    +0.000 HD
ATOM     17  H   UNL     1      -0.032   3.252  21.568  0.00  0.00    +0.000 HD
ENDBRANCH   1  15
TORSDOF 3
ENDMDL
MODEL 3
REMARK VINA RESULT:      -6.6      0.753      1.101
REMARK  Name = 
REMARK  3 active torsions:
REMARK  status: ('A' for Active; 'I' for Inactive)
REMARK    1  A    between atoms: N_1  and  C_2
REMARK    2  A    between atoms: C_5  and  C_6
REMARK    3  A    between atoms: C_9  and  N_10
REMARK                            x       y       z     vdW  Elec       q    Type
REMARK                         _______ _______ _______ _____ _____    ______ ____
ROOT
ATOM      1  C   UNL     1       6.963   5.076  15.149  0.00  0.00    +0.000 A 
ATOM      2  C   UNL     1       5.906   4.221  14.842  0.00  0.00    +0.000 A 
ATOM      3  C   UNL     1       4.912   3.938  15.786  0.00  0.00    +0.000 A 
ATOM      4  C   UNL     1       4.922   4.548  17.050  0.00  0.00    +0.000 A 
ATOM      5  C   UNL     1       5.973   5.429  17.342  0.00  0.00    +0.000 A 
ATOM      6  C   UNL     1       6.967   5.705  16.394  0.00  0.00    +0.000 A 
ENDROOT
BRANCH   4   7
ATOM      7  C   UNL     1       3.858   4.311  18.042  0.00  0.00    +0.000 A 
ATOM      8  C   UNL     1       2.550   4.773  18.045  0.00  0.00    +0.000 A 
ATOM      9  C   UNL     1       1.795   4.304  19.164  0.00  0.00    +0.000 A 
ATOM     10  C   UNL     1       2.558   3.496  19.976  0.00  0.00    +0.000 A 
ATOM     11  S   UNL     1       4.139   3.293  19.404  0.00  0.00    +0.000 S 
BRANCH  10  12
ATOM     12  N   UNL     1       2.134   2.855  21.193  0.00  0.00    +0.000 N 
ATOM     13  O   UNL     1       0.909   2.783  21.376  0.00  0.00    +0.000 OA
ATOM     14  O   UNL     1       2.997   2.423  21.968  0.00  0.00    +0.000 OA
ENDBRANCH  10  12
ENDBRANCH   4   7
BRANCH   1  15
ATOM     15  N   UNL     1       7.856   5.481  14.152  0.00  0.00    +0.000 N 
ATOM     16  H   UNL     1       8.419   4.728  13.768  0.00  0.00    +0.000 HD
ATOM     17  H   UNL     1       8.410   6.296  14.393  0.00  0.00    +0.000 HD
ENDBRANCH   1  15
TORSDOF 3
ENDMDL
MODEL 4
REMARK VINA RESULT:      -6.6      3.735      6.477
REMARK  Name = 
REMARK  3 active torsions:
REMARK  status: ('A' for Active; 'I' for Inactive)
REMARK    1  A    between atoms: N_1  and  C_2
REMARK    2  A    between atoms: C_5  and  C_6
REMARK    3  A    between atoms: C_9  and  N_10
REMARK                            x       y       z     vdW  Elec       q    Type
REMARK                         _______ _______ _______ _____ _____    ______ ____
ROOT
ATOM      1  C   UNL     1       2.194   3.324  21.038  0.00  0.00    +0.000 A 
ATOM      2  C   UNL     1       1.700   4.443  20.367  0.00  0.00    +0.000 A 
ATOM      3  C   UNL     1       2.388   4.989  19.277  0.00  0.00    +0.000 A 
ATOM      4  C   UNL     1       3.566   4.399  18.796  0.00  0.00    +0.000 A 
ATOM      5  C   UNL     1       4.042   3.258  19.458  0.00  0.00    +0.000 A 
ATOM      6  C   UNL     1       3.351   2.717  20.550  0.00  0.00    +0.000 A 
ENDROOT
BRANCH   4   7
ATOM      7  C   UNL     1       4.280   4.921  17.617  0.00  0.00    +0.000 A 
ATOM      8  C   UNL     1       4.365   6.226  17.157  0.00  0.00    +0.000 A 
ATOM      9  C   UNL     1       5.182   6.356  15.992  0.00  0.00    +0.000 A 
ATOM     10  C   UNL     1       5.696   5.138  15.606  0.00  0.00    +0.000 A 
ATOM     11  S   UNL     1       5.219   3.871  16.625  0.00  0.00    +0.000 S 
BRANCH  10  12
ATOM     12  N   UNL     1       6.551   4.885  14.476  0.00  0.00    +0.000 N 
ATOM     13  O   UNL     1       6.139   4.054  13.653  0.00  0.00    +0.000 OA
ATOM     14  O   UNL     1       7.624   5.498  14.396  0.00  0.00    +0.000 OA
ENDBRANCH  10  12
ENDBRANCH   4   7
BRANCH   1  15
ATOM     15  N   UNL     1       1.421   2.689  22.013  0.00  0.00    +0.000 N 
ATOM     16  H   UNL     1       1.249   3.253  22.840  0.00  0.00    +0.000 HD
ATOM     17  H   UNL     1       1.728   1.749  22.242  0.00  0.00    +0.000 HD
ENDBRANCH   1  15
TORSDOF 3
ENDMDL
MODEL 5
REMARK VINA RESULT:      -6.6      0.553      1.353
REMARK  Name = 
REMARK  3 active torsions:
REMARK  status: ('A' for Active; 'I' for Inactive)
REMARK    1  A    between atoms: N_1  and  C_2
REMARK    2  A    between atoms: C_5  and  C_6
REMARK    3  A    between atoms: C_9  and  N_10
REMARK                            x       y       z     vdW  Elec       q    Type
REMARK                         _______ _______ _______ _____ _____    ______ ____
ROOT
ATOM      1  C   UNL     1       6.928   5.117  15.097  0.00  0.00    +0.000 A 
ATOM      2  C   UNL     1       7.216   5.073  16.461  0.00  0.00    +0.000 A 
ATOM      3  C   UNL     1       6.302   4.529  17.372  0.00  0.00    +0.000 A 
ATOM      4  C   UNL     1       5.093   3.968  16.934  0.00  0.00    +0.000 A 
ATOM      5  C   UNL     1       4.822   3.991  15.559  0.00  0.00    +0.000 A 
ATOM      6  C   UNL     1       5.739   4.538  14.652  0.00  0.00    +0.000 A 
ENDROOT
BRANCH   4   7
ATOM      7  C   UNL     1       4.138   3.340  17.866  0.00  0.00    +0.000 A 
ATOM      8  C   UNL     1       3.373   2.197  17.690  0.00  0.00    +0.000 A 
ATOM      9  C   UNL     1       2.584   1.873  18.836  0.00  0.00    +0.000 A 
ATOM     10  C   UNL     1       2.780   2.783  19.851  0.00  0.00    +0.000 A 
ATOM     11  S   UNL     1       3.894   3.991  19.442  0.00  0.00    +0.000 S 
BRANCH  10  12
ATOM     12  N   UNL     1       2.148   2.778  21.144  0.00  0.00    +0.000 N 
ATOM     13  O   UNL     1       2.855   2.417  22.097  0.00  0.00    +0.000 OA
ATOM     14  O   UNL     1       0.963   3.126  21.227  0.00  0.00    +0.000 OA
ENDBRANCH  10  12
ENDBRANCH   4   7
BRANCH   1  15
ATOM     15  N   UNL     1       7.909   5.506  14.181  0.00  0.00    +0.000 N 
ATOM     16  H   UNL     1       8.483   4.742  13.837  0.00  0.00    +0.000 HD
ATOM     17  H   UNL     1       8.462   6.304  14.476  0.00  0.00    +0.000 HD
ENDBRANCH   1  15
TORSDOF 3
ENDMDL
MODEL 6
REMARK VINA RESULT:      -6.5      0.867      1.139
REMARK  Name = 
REMARK  3 active torsions:
REMARK  status: ('A' for Active; 'I' for Inactive)
REMARK    1  A    between atoms: N_1  and  C_2
REMARK    2  A    between atoms: C_5  and  C_6
REMARK    3  A    between atoms: C_9  and  N_10
REMARK                            x       y       z     vdW  Elec       q    Type
REMARK                         _______ _______ _______ _____ _____    ______ ____
ROOT
ATOM      1  C   UNL     1       6.509   5.168  15.036  0.00  0.00    +0.000 A 
ATOM      2  C   UNL     1       5.958   6.134  15.876  0.00  0.00    +0.000 A 
ATOM      3  C   UNL     1       4.952   5.803  16.791  0.00  0.00    +0.000 A 
ATOM      4  C   UNL     1       4.505   4.480  16.926  0.00  0.00    +0.000 A 
ATOM      5  C   UNL     1       5.083   3.508  16.097  0.00  0.00    +0.000 A 
ATOM      6  C   UNL     1       6.088   3.846  15.181  0.00  0.00    +0.000 A 
ENDROOT
BRANCH   4   7
ATOM      7  C   UNL     1       3.487   4.094  17.920  0.00  0.00    +0.000 A 
ATOM      8  C   UNL     1       2.106   4.083  17.794  0.00  0.00    +0.000 A 
ATOM      9  C   UNL     1       1.443   3.610  18.968  0.00  0.00    +0.000 A 
ATOM     10  C   UNL     1       2.347   3.272  19.950  0.00  0.00    +0.000 A 
ATOM     11  S   UNL     1       3.955   3.505  19.471  0.00  0.00    +0.000 S 
BRANCH  10  12
ATOM     12  N   UNL     1       2.041   2.769  21.263  0.00  0.00    +0.000 N 
ATOM     13  O   UNL     1       3.010   2.419  21.954  0.00  0.00    +0.000 OA
ATOM     14  O   UNL     1       0.857   2.716  21.617  0.00  0.00    +0.000 OA
ENDBRANCH  10  12
ENDBRANCH   4   7
BRANCH   1  15
ATOM     15  N   UNL     1       7.622   5.470  14.247  0.00  0.00    +0.000 N 
ATOM     16  H   UNL     1       7.583   5.084  13.308  0.00  0.00    +0.000 HD
ATOM     17  H   UNL     1       8.514   5.299  14.699  0.00  0.00    +0.000 HD
ENDBRANCH   1  15
TORSDOF 3
ENDMDL
MODEL 7
REMARK VINA RESULT:      -6.5      3.452      6.417
REMARK  Name = 
REMARK  3 active torsions:
REMARK  status: ('A' for Active; 'I' for Inactive)
REMARK    1  A    between atoms: N_1  and  C_2
REMARK    2  A    between atoms: C_5  and  C_6
REMARK    3  A    between atoms: C_9  and  N_10
REMARK                            x       y       z     vdW  Elec       q    Type
REMARK                         _______ _______ _______ _____ _____    ______ ____
ROOT
ATOM      1  C   UNL     1       1.810   2.993  21.472  0.00  0.00    +0.000 A 
ATOM      2  C   UNL     1       1.357   3.944  20.558  0.00  0.00    +0.000 A 
ATOM      3  C   UNL     1       2.155   4.342  19.479  0.00  0.00    +0.000 A 
ATOM      4  C   UNL     1       3.411   3.758  19.256  0.00  0.00    +0.000 A 
ATOM      5  C   UNL     1       3.849   2.783  20.162  0.00  0.00    +0.000 A 
ATOM      6  C   UNL     1       3.047   2.391  21.243  0.00  0.00    +0.000 A 
ENDROOT
BRANCH   4   7
ATOM      7  C   UNL     1       4.247   4.118  18.096  0.00  0.00    +0.000 A 
ATOM      8  C   UNL     1       4.062   3.807  16.758  0.00  0.00    +0.000 A 
ATOM      9  C   UNL     1       5.069   4.364  15.911  0.00  0.00    +0.000 A 
ATOM     10  C   UNL     1       5.989   5.085  16.638  0.00  0.00    +0.000 A 
ATOM     11  S   UNL     1       5.646   5.105  18.296  0.00  0.00    +0.000 S 
BRANCH  10  12
ATOM     12  N   UNL     1       7.142   5.777  16.122  0.00  0.00    +0.000 N 
ATOM     13  O   UNL     1       7.607   5.345  15.056  0.00  0.00    +0.000 OA
ATOM     14  O   UNL     1       7.590   6.739  16.758  0.00  0.00    +0.000 OA
ENDBRANCH  10  12
ENDBRANCH   4   7
BRANCH   1  15
ATOM     15  N   UNL     1       0.947   2.483  22.445  0.00  0.00    +0.000 N 
ATOM     16  H   UNL     1       1.344   1.730  22.999  0.00  0.00    +0.000 HD
ATOM     17  H   UNL     1       0.017   2.264  22.105  0.00  0.00    +0.000 HD
ENDBRANCH   1  15
TORSDOF 3
ENDMDL
MODEL 8
REMARK VINA RESULT:      -6.5      3.729      6.592
REMARK  Name = 
REMARK  3 active torsions:
REMARK  status: ('A' for Active; 'I' for Inactive)
REMARK    1  A    between atoms: N_1  and  C_2
REMARK    2  A    between atoms: C_5  and  C_6
REMARK    3  A    between atoms: C_9  and  N_10
REMARK                            x       y       z     vdW  Elec       q    Type
REMARK                         _______ _______ _______ _____ _____    ______ ____
ROOT
ATOM      1  C   UNL     1       2.055   3.207  20.492  0.00  0.00    +0.000 A 
ATOM      2  C   UNL     1       2.580   4.499  20.507  0.00  0.00    +0.000 A 
ATOM      3  C   UNL     1       3.644   4.853  19.668  0.00  0.00    +0.000 A 
ATOM      4  C   UNL     1       4.178   3.934  18.753  0.00  0.00    +0.000 A 
ATOM      5  C   UNL     1       3.628   2.645  18.724  0.00  0.00    +0.000 A 
ATOM      6  C   UNL     1       2.565   2.296  19.568  0.00  0.00    +0.000 A 
ENDROOT
BRANCH   4   7
ATOM      7  C   UNL     1       5.261   4.296  17.820  0.00  0.00    +0.000 A 
ATOM      8  C   UNL     1       6.548   4.726  18.104  0.00  0.00    +0.000 A 
ATOM      9  C   UNL     1       7.333   4.951  16.931  0.00  0.00    +0.000 A 
ATOM     10  C   UNL     1       6.612   4.681  15.790  0.00  0.00    +0.000 A 
ATOM     11  S   UNL     1       5.035   4.156  16.118  0.00  0.00    +0.000 S 
BRANCH  10  12
ATOM     12  N   UNL     1       7.073   4.803  14.431  0.00  0.00    +0.000 N 
ATOM     13  O   UNL     1       6.511   4.080  13.595  0.00  0.00    +0.000 OA
ATOM     14  O   UNL     1       7.985   5.603  14.185  0.00  0.00    +0.000 OA
ENDBRANCH  10  12
ENDBRANCH   4   7
BRANCH   1  15
ATOM     15  N   UNL     1       0.892   2.910  21.208  0.00  0.00    +0.000 N 
ATOM     16  H   UNL     1       0.326   3.722  21.436  0.00  0.00    +0.000 HD
ATOM     17  H   UNL     1       1.037   2.302  22.007  0.00  0.00    +0.000 HD
ENDBRANCH   1  15
TORSDOF 3
ENDMDL
MODEL 9
REMARK VINA RESULT:      -6.4      3.746      6.577
REMARK  Name = 
REMARK  3 active torsions:
REMARK  status: ('A' for Active; 'I' for Inactive)
REMARK    1  A    between atoms: N_1  and  C_2
REMARK    2  A    between atoms: C_5  and  C_6
REMARK    3  A    between atoms: C_9  and  N_10
REMARK                            x       y       z     vdW  Elec       q    Type
REMARK                         _______ _______ _______ _____ _____    ______ ____
ROOT
ATOM      1  C   UNL     1       2.493   3.079  21.068  0.00  0.00    +0.000 A 
ATOM      2  C   UNL     1       3.562   2.234  20.773  0.00  0.00    +0.000 A 
ATOM      3  C   UNL     1       4.491   2.569  19.780  0.00  0.00    +0.000 A 
ATOM      4  C   UNL     1       4.402   3.786  19.089  0.00  0.00    +0.000 A 
ATOM      5  C   UNL     1       3.341   4.644  19.410  0.00  0.00    +0.000 A 
ATOM      6  C   UNL     1       2.412   4.303  20.402  0.00  0.00    +0.000 A 
ENDROOT
BRANCH   4   7
ATOM      7  C   UNL     1       5.398   4.188  18.078  0.00  0.00    +0.000 A 
ATOM      8  C   UNL     1       6.678   4.688  18.266  0.00  0.00    +0.000 A 
ATOM      9  C   UNL     1       7.367   4.933  17.039  0.00  0.00    +0.000 A 
ATOM     10  C   UNL     1       6.584   4.607  15.954  0.00  0.00    +0.000 A 
ATOM     11  S   UNL     1       5.063   4.009  16.398  0.00  0.00    +0.000 S 
BRANCH  10  12
ATOM     12  N   UNL     1       6.944   4.730  14.566  0.00  0.00    +0.000 N 
ATOM     13  O   UNL     1       7.787   5.598  14.294  0.00  0.00    +0.000 OA
ATOM     14  O   UNL     1       6.404   3.978  13.744  0.00  0.00    +0.000 OA
ENDBRANCH  10  12
ENDBRANCH   4   7
BRANCH   1  15
ATOM     15  N   UNL     1       1.671   2.819  22.167  0.00  0.00    +0.000 N 
ATOM     16  H   UNL     1       1.757   1.878  22.537  0.00  0.00    +0.000 HD
ATOM     17  H   UNL     1       0.704   3.098  22.041  0.00  0.00    +0.000 HD
ENDBRANCH   1  15
TORSDOF 3
ENDMDL
