MODEL 1
REMARK VINA RESULT:      -5.9      0.000      0.000
REMARK  Name = 
REMARK  14 active torsions:
REMARK  status: ('A' for Active; 'I' for Inactive)
REMARK    1  A    between atoms: C_13  and  N_14
REMARK    2  A    between atoms: N_14  and  C_15
REMARK    3  A    between atoms: C_15  and  C_16
REMARK    4  A    between atoms: C_16  and  N_17
REMARK    5  A    between atoms: N_17  and  C_18
REMARK    6  A    between atoms: C_18  and  C_19
REMARK    7  A    between atoms: C_19  and  O_20
REMARK    8  A    between atoms: C_26  and  N_27
REMARK    9  A    between atoms: N_27  and  C_28
REMARK   10  A    between atoms: C_28  and  C_29
REMARK   11  A    between atoms: C_29  and  N_30
REMARK   12  A    between atoms: N_30  and  C_31
REMARK   13  A    between atoms: C_31  and  C_32
REMARK   14  A    between atoms: C_32  and  O_33
REMARK                            x       y       z     vdW  Elec       q    Type
REMARK                         _______ _______ _______ _____ _____    ______ ____
ROOT
ATOM      1  O   UNL     1       4.495   4.725  20.039  0.00  0.00    +0.000 OA
ATOM      2  C   UNL     1       4.141   5.464  19.126  0.00  0.00    +0.000 C 
ATOM      3  C   UNL     1       4.899   5.397  17.870  0.00  0.00    +0.000 A 
ATOM      4  C   UNL     1       5.870   4.395  17.701  0.00  0.00    +0.000 A 
ATOM      5  C   UNL     1       6.625   4.341  16.533  0.00  0.00    +0.000 A 
ATOM      6  C   UNL     1       6.416   5.285  15.533  0.00  0.00    +0.000 A 
ATOM      7  C   UNL     1       5.445   6.278  15.700  0.00  0.00    +0.000 A 
ATOM      8  C   UNL     1       4.676   6.336  16.876  0.00  0.00    +0.000 A 
ATOM      9  C   UNL     1       3.636   7.371  17.051  0.00  0.00    +0.000 C 
ATOM     10  O   UNL     1       3.369   8.089  16.085  0.00  0.00    +0.000 OA
ATOM     11  C   UNL     1       2.877   7.476  18.335  0.00  0.00    +0.000 A 
ATOM     12  C   UNL     1       3.043   6.465  19.306  0.00  0.00    +0.000 A 
ATOM     13  C   UNL     1       2.262   6.412  20.511  0.00  0.00    +0.000 A 
ATOM     14  C   UNL     1       1.335   7.468  20.707  0.00  0.00    +0.000 A 
ATOM     15  C   UNL     1       0.402   7.842  21.729  0.00  0.00    +0.000 A 
ATOM     16  C   UNL     1      -0.217   8.990  21.322  0.00  0.00    +0.000 A 
ATOM     17  O   UNL     1       0.276   9.369  20.130  0.00  0.00    +0.000 OA
ATOM     18  C   UNL     1       1.238   8.468  19.748  0.00  0.00    +0.000 A 
ATOM     19  C   UNL     1       1.987   8.568  18.556  0.00  0.00    +0.000 A 
ENDROOT
BRANCH  13  20
ATOM     20  N   UNL     1       2.354   5.292  21.350  0.00  0.00    +0.000 N 
ATOM     21  H   UNL     1       2.491   5.558  22.339  0.00  0.00    +0.000 HD
BRANCH  20  22
ATOM     22  C   UNL     1       1.496   4.127  21.210  0.00  0.00    +0.000 C 
BRANCH  22  23
ATOM     23  C   UNL     1       2.283   2.837  21.481  0.00  0.00    +0.000 C 
BRANCH  23  24
ATOM     24  N   UNL     1       2.885   2.327  20.241  0.00  0.00    +0.000 NA
ATOM     25  H   UNL     1       3.350   1.444  20.447  0.00  0.00    +0.000 HD
BRANCH  24  26
ATOM     26  C   UNL     1       1.852   2.096  19.226  0.00  0.00    +0.000 C 
BRANCH  26  27
ATOM     27  C   UNL     1       2.389   2.443  17.835  0.00  0.00    +0.000 C 
BRANCH  27  28
ATOM     28  O   UNL     1       1.743   3.611  17.331  0.00  0.00    +0.000 OA
ATOM     29  H   UNL     1       0.828   3.562  17.661  0.00  0.00    +0.000 HD
ENDBRANCH  27  28
ENDBRANCH  26  27
ENDBRANCH  24  26
ENDBRANCH  23  24
ENDBRANCH  22  23
ENDBRANCH  20  22
ENDBRANCH  13  20
BRANCH  19  30
ATOM     30  N   UNL     1       1.970   9.702  17.726  0.00  0.00    +0.000 N 
ATOM     31  H   UNL     1       1.112   9.798  17.174  0.00  0.00    +0.000 HD
BRANCH  30  32
ATOM     32  C   UNL     1       2.544  10.954  18.217  0.00  0.00    +0.000 C 
BRANCH  32  33
ATOM     33  C   UNL     1       1.481  11.996  18.581  0.00  0.00    +0.000 C 
BRANCH  33  34
ATOM     34  N   UNL     1       0.151  11.611  18.085  0.00  0.00    +0.000 NA
ATOM     35  H   UNL     1      -0.054  10.675  18.435  0.00  0.00    +0.000 HD
BRANCH  34  36
ATOM     36  C   UNL     1      -0.865  12.538  18.605  0.00  0.00    +0.000 C 
BRANCH  36  37
ATOM     37  C   UNL     1      -2.235  11.858  18.644  0.00  0.00    +0.000 C 
BRANCH  37  38
ATOM     38  O   UNL     1      -2.869  11.945  17.369  0.00  0.00    +0.000 OA
ATOM     39  H   UNL     1      -2.161  11.824  16.715  0.00  0.00    +0.000 HD
ENDBRANCH  37  38
ENDBRANCH  36  37
ENDBRANCH  34  36
ENDBRANCH  33  34
ENDBRANCH  32  33
ENDBRANCH  30  32
ENDBRANCH  19  30
TORSDOF 14
ENDMDL
MODEL 2
REMARK VINA RESULT:      -5.6      1.573      1.978
REMARK  Name = 
REMARK  14 active torsions:
REMARK  status: ('A' for Active; 'I' for Inactive)
REMARK    1  A    between atoms: C_13  and  N_14
REMARK    2  A    between atoms: N_14  and  C_15
REMARK    3  A    between atoms: C_15  and  C_16
REMARK    4  A    between atoms: C_16  and  N_17
REMARK    5  A    between atoms: N_17  and  C_18
REMARK    6  A    between atoms: C_18  and  C_19
REMARK    7  A    between atoms: C_19  and  O_20
REMARK    8  A    between atoms: C_26  and  N_27
REMARK    9  A    between atoms: N_27  and  C_28
REMARK   10  A    between atoms: C_28  and  C_29
REMARK   11  A    between atoms: C_29  and  N_30
REMARK   12  A    between atoms: N_30  and  C_31
REMARK   13  A    between atoms: C_31  and  C_32
REMARK   14  A    between atoms: C_32  and  O_33
REMARK                            x       y       z     vdW  Elec       q    Type
REMARK                         _______ _______ _______ _____ _____    ______ ____
ROOT
ATOM      1  O   UNL     1       4.537   4.615  19.921  0.00  0.00    +0.000 OA
ATOM      2  C   UNL     1       4.189   5.365  19.015  0.00  0.00    +0.000 C 
ATOM      3  C   UNL     1       4.940   5.296  17.755  0.00  0.00    +0.000 A 
ATOM      4  C   UNL     1       5.896   4.282  17.575  0.00  0.00    +0.000 A 
ATOM      5  C   UNL     1       6.646   4.225  16.403  0.00  0.00    +0.000 A 
ATOM      6  C   UNL     1       6.446   5.179  15.410  0.00  0.00    +0.000 A 
ATOM      7  C   UNL     1       5.488   6.185  15.588  0.00  0.00    +0.000 A 
ATOM      8  C   UNL     1       4.726   6.245  16.768  0.00  0.00    +0.000 A 
ATOM      9  C   UNL     1       3.701   7.292  16.955  0.00  0.00    +0.000 C 
ATOM     10  O   UNL     1       3.440   8.020  15.995  0.00  0.00    +0.000 OA
ATOM     11  C   UNL     1       2.949   7.399  18.243  0.00  0.00    +0.000 A 
ATOM     12  C   UNL     1       3.106   6.379  19.207  0.00  0.00    +0.000 A 
ATOM     13  C   UNL     1       2.329   6.329  20.414  0.00  0.00    +0.000 A 
ATOM     14  C   UNL     1       1.418   7.396  20.622  0.00  0.00    +0.000 A 
ATOM     15  C   UNL     1       0.495   7.775  21.651  0.00  0.00    +0.000 A 
ATOM     16  C   UNL     1      -0.110   8.935  21.255  0.00  0.00    +0.000 A 
ATOM     17  O   UNL     1       0.382   9.315  20.063  0.00  0.00    +0.000 OA
ATOM     18  C   UNL     1       1.329   8.404  19.670  0.00  0.00    +0.000 A 
ATOM     19  C   UNL     1       2.075   8.502  18.475  0.00  0.00    +0.000 A 
ENDROOT
BRANCH  13  20
ATOM     20  N   UNL     1       2.409   5.202  21.246  0.00  0.00    +0.000 N 
ATOM     21  H   UNL     1       2.651   5.453  22.219  0.00  0.00    +0.000 HD
BRANCH  20  22
ATOM     22  C   UNL     1       1.459   4.104  21.183  0.00  0.00    +0.000 C 
BRANCH  22  23
ATOM     23  C   UNL     1       2.167   2.758  21.392  0.00  0.00    +0.000 C 
BRANCH  23  24
ATOM     24  N   UNL     1       2.827   2.322  20.152  0.00  0.00    +0.000 NA
ATOM     25  H   UNL     1       3.366   1.481  20.352  0.00  0.00    +0.000 HD
BRANCH  24  26
ATOM     26  C   UNL     1       1.830   2.017  19.121  0.00  0.00    +0.000 C 
BRANCH  26  27
ATOM     27  C   UNL     1       2.235   2.653  17.789  0.00  0.00    +0.000 C 
BRANCH  27  28
ATOM     28  O   UNL     1       1.400   3.775  17.502  0.00  0.00    +0.000 OA
ATOM     29  H   UNL     1       0.630   3.681  18.091  0.00  0.00    +0.000 HD
ENDBRANCH  27  28
ENDBRANCH  26  27
ENDBRANCH  24  26
ENDBRANCH  23  24
ENDBRANCH  22  23
ENDBRANCH  20  22
ENDBRANCH  13  20
BRANCH  19  30
ATOM     30  N   UNL     1       2.069   9.641  17.653  0.00  0.00    +0.000 N 
ATOM     31  H   UNL     1       1.203   9.762  17.118  0.00  0.00    +0.000 HD
BRANCH  30  32
ATOM     32  C   UNL     1       2.684  10.875  18.141  0.00  0.00    +0.000 C 
BRANCH  32  33
ATOM     33  C   UNL     1       1.685  12.032  18.262  0.00  0.00    +0.000 C 
BRANCH  33  34
ATOM     34  N   UNL     1       2.250  13.292  17.756  0.00  0.00    +0.000 NA
ATOM     35  H   UNL     1       1.472  13.907  17.513  0.00  0.00    +0.000 HD
BRANCH  34  36
ATOM     36  C   UNL     1       3.048  13.940  18.806  0.00  0.00    +0.000 C 
BRANCH  36  37
ATOM     37  C   UNL     1       4.089  14.873  18.183  0.00  0.00    +0.000 C 
BRANCH  37  38
ATOM     38  O   UNL     1       3.697  15.242  16.862  0.00  0.00    +0.000 OA
ATOM     39  H   UNL     1       4.352  14.834  16.271  0.00  0.00    +0.000 HD
ENDBRANCH  37  38
ENDBRANCH  36  37
ENDBRANCH  34  36
ENDBRANCH  33  34
ENDBRANCH  32  33
ENDBRANCH  30  32
ENDBRANCH  19  30
TORSDOF 14
ENDMDL
MODEL 3
REMARK VINA RESULT:      -5.5      1.688      6.829
REMARK  Name = 
REMARK  14 active torsions:
REMARK  status: ('A' for Active; 'I' for Inactive)
REMARK    1  A    between atoms: C_13  and  N_14
REMARK    2  A    between atoms: N_14  and  C_15
REMARK    3  A    between atoms: C_15  and  C_16
REMARK    4  A    between atoms: C_16  and  N_17
REMARK    5  A    between atoms: N_17  and  C_18
REMARK    6  A    between atoms: C_18  and  C_19
REMARK    7  A    between atoms: C_19  and  O_20
REMARK    8  A    between atoms: C_26  and  N_27
REMARK    9  A    between atoms: N_27  and  C_28
REMARK   10  A    between atoms: C_28  and  C_29
REMARK   11  A    between atoms: C_29  and  N_30
REMARK   12  A    between atoms: N_30  and  C_31
REMARK   13  A    between atoms: C_31  and  C_32
REMARK   14  A    between atoms: C_32  and  O_33
REMARK                            x       y       z     vdW  Elec       q    Type
REMARK                         _______ _______ _______ _____ _____    ______ ____
ROOT
ATOM      1  O   UNL     1       3.369   8.147  16.181  0.00  0.00    +0.000 OA
ATOM      2  C   UNL     1       3.608   7.386  17.113  0.00  0.00    +0.000 C 
ATOM      3  C   UNL     1       4.587   6.317  16.878  0.00  0.00    +0.000 A 
ATOM      4  C   UNL     1       5.324   6.305  15.682  0.00  0.00    +0.000 A 
ATOM      5  C   UNL     1       6.228   5.277  15.425  0.00  0.00    +0.000 A 
ATOM      6  C   UNL     1       6.396   4.259  16.358  0.00  0.00    +0.000 A 
ATOM      7  C   UNL     1       5.666   4.276  17.552  0.00  0.00    +0.000 A 
ATOM      8  C   UNL     1       4.755   5.313  17.819  0.00  0.00    +0.000 A 
ATOM      9  C   UNL     1       3.994   5.346  19.084  0.00  0.00    +0.000 C 
ATOM     10  O   UNL     1       4.284   4.521  19.953  0.00  0.00    +0.000 OA
ATOM     11  C   UNL     1       2.970   6.408  19.328  0.00  0.00    +0.000 A 
ATOM     12  C   UNL     1       2.867   7.476  18.410  0.00  0.00    +0.000 A 
ATOM     13  C   UNL     1       2.006   8.605  18.628  0.00  0.00    +0.000 A 
ATOM     14  C   UNL     1       1.211   8.573  19.803  0.00  0.00    +0.000 A 
ATOM     15  C   UNL     1       0.221   9.421  20.398  0.00  0.00    +0.000 A 
ATOM     16  C   UNL     1      -0.181   8.830  21.563  0.00  0.00    +0.000 A 
ATOM     17  O   UNL     1       0.472   7.666  21.726  0.00  0.00    +0.000 OA
ATOM     18  C   UNL     1       1.309   7.480  20.655  0.00  0.00    +0.000 A 
ATOM     19  C   UNL     1       2.132   6.347  20.480  0.00  0.00    +0.000 A 
ENDROOT
BRANCH  13  20
ATOM     20  N   UNL     1       2.077   9.710  17.767  0.00  0.00    +0.000 N 
ATOM     21  H   UNL     1       1.181   9.883  17.282  0.00  0.00    +0.000 HD
BRANCH  20  22
ATOM     22  C   UNL     1       2.757  10.944  18.120  0.00  0.00    +0.000 C 
BRANCH  22  23
ATOM     23  C   UNL     1       1.749  12.090  18.293  0.00  0.00    +0.000 C 
BRANCH  23  24
ATOM     24  N   UNL     1       2.185  13.279  17.547  0.00  0.00    +0.000 NA
ATOM     25  H   UNL     1       1.357  13.772  17.214  0.00  0.00    +0.000 HD
BRANCH  24  26
ATOM     26  C   UNL     1       2.957  14.175  18.414  0.00  0.00    +0.000 C 
BRANCH  26  27
ATOM     27  C   UNL     1       3.532  15.336  17.599  0.00  0.00    +0.000 C 
BRANCH  27  28
ATOM     28  O   UNL     1       2.856  16.550  17.923  0.00  0.00    +0.000 OA
ATOM     29  H   UNL     1       2.284  16.740  17.158  0.00  0.00    +0.000 HD
ENDBRANCH  27  28
ENDBRANCH  26  27
ENDBRANCH  24  26
ENDBRANCH  23  24
ENDBRANCH  22  23
ENDBRANCH  20  22
ENDBRANCH  13  20
BRANCH  19  30
ATOM     30  N   UNL     1       2.042   5.197  21.283  0.00  0.00    +0.000 N 
ATOM     31  H   UNL     1       2.100   5.387  22.288  0.00  0.00    +0.000 HD
BRANCH  30  32
ATOM     32  C   UNL     1       1.117   4.130  20.899  0.00  0.00    +0.000 C 
BRANCH  32  33
ATOM     33  C   UNL     1       1.622   2.735  21.285  0.00  0.00    +0.000 C 
BRANCH  33  34
ATOM     34  N   UNL     1       2.363   2.101  20.183  0.00  0.00    +0.000 NA
ATOM     35  H   UNL     1       2.512   1.123  20.430  0.00  0.00    +0.000 HD
BRANCH  34  36
ATOM     36  C   UNL     1       1.568   2.157  18.948  0.00  0.00    +0.000 C 
BRANCH  36  37
ATOM     37  C   UNL     1       2.486   2.244  17.728  0.00  0.00    +0.000 C 
BRANCH  37  38
ATOM     38  O   UNL     1       2.101   3.335  16.893  0.00  0.00    +0.000 OA
ATOM     39  H   UNL     1       1.866   2.940  16.037  0.00  0.00    +0.000 HD
ENDBRANCH  37  38
ENDBRANCH  36  37
ENDBRANCH  34  36
ENDBRANCH  33  34
ENDBRANCH  32  33
ENDBRANCH  30  32
ENDBRANCH  19  30
TORSDOF 14
ENDMDL
MODEL 4
REMARK VINA RESULT:      -5.5      6.617      9.139
REMARK  Name = 
REMARK  14 active torsions:
REMARK  status: ('A' for Active; 'I' for Inactive)
REMARK    1  A    between atoms: C_13  and  N_14
REMARK    2  A    between atoms: N_14  and  C_15
REMARK    3  A    between atoms: C_15  and  C_16
REMARK    4  A    between atoms: C_16  and  N_17
REMARK    5  A    between atoms: N_17  and  C_18
REMARK    6  A    between atoms: C_18  and  C_19
REMARK    7  A    between atoms: C_19  and  O_20
REMARK    8  A    between atoms: C_26  and  N_27
REMARK    9  A    between atoms: N_27  and  C_28
REMARK   10  A    between atoms: C_28  and  C_29
REMARK   11  A    between atoms: C_29  and  N_30
REMARK   12  A    between atoms: N_30  and  C_31
REMARK   13  A    between atoms: C_31  and  C_32
REMARK   14  A    between atoms: C_32  and  O_33
REMARK                            x       y       z     vdW  Elec       q    Type
REMARK                         _______ _______ _______ _____ _____    ______ ____
ROOT
ATOM      1  O   UNL     1      -1.159  10.561  17.716  0.00  0.00    +0.000 OA
ATOM      2  C   UNL     1      -1.388  11.488  18.485  0.00  0.00    +0.000 C 
ATOM      3  C   UNL     1      -0.233  12.161  19.094  0.00  0.00    +0.000 A 
ATOM      4  C   UNL     1       1.063  11.841  18.655  0.00  0.00    +0.000 A 
ATOM      5  C   UNL     1       2.172  12.440  19.249  0.00  0.00    +0.000 A 
ATOM      6  C   UNL     1       1.990  13.356  20.280  0.00  0.00    +0.000 A 
ATOM      7  C   UNL     1       0.698  13.679  20.711  0.00  0.00    +0.000 A 
ATOM      8  C   UNL     1      -0.425  13.080  20.113  0.00  0.00    +0.000 A 
ATOM      9  C   UNL     1      -1.792  13.429  20.551  0.00  0.00    +0.000 C 
ATOM     10  O   UNL     1      -1.921  14.357  21.352  0.00  0.00    +0.000 OA
ATOM     11  C   UNL     1      -2.978  12.731  19.966  0.00  0.00    +0.000 A 
ATOM     12  C   UNL     1      -2.784  11.865  18.869  0.00  0.00    +0.000 A 
ATOM     13  C   UNL     1      -3.875  11.254  18.161  0.00  0.00    +0.000 A 
ATOM     14  C   UNL     1      -5.177  11.525  18.656  0.00  0.00    +0.000 A 
ATOM     15  C   UNL     1      -6.511  11.128  18.314  0.00  0.00    +0.000 A 
ATOM     16  C   UNL     1      -7.362  11.746  19.187  0.00  0.00    +0.000 A 
ATOM     17  O   UNL     1      -6.653  12.483  20.060  0.00  0.00    +0.000 OA
ATOM     18  C   UNL     1      -5.320  12.345  19.768  0.00  0.00    +0.000 A 
ATOM     19  C   UNL     1      -4.281  12.961  20.500  0.00  0.00    +0.000 A 
ENDROOT
BRANCH  13  20
ATOM     20  N   UNL     1      -3.625  10.544  16.978  0.00  0.00    +0.000 N 
ATOM     21  H   UNL     1      -3.964   9.569  17.030  0.00  0.00    +0.000 HD
BRANCH  20  22
ATOM     22  C   UNL     1      -3.813  11.119  15.657  0.00  0.00    +0.000 C 
BRANCH  22  23
ATOM     23  C   UNL     1      -3.393  10.124  14.565  0.00  0.00    +0.000 C 
BRANCH  23  24
ATOM     24  N   UNL     1      -4.548   9.748  13.736  0.00  0.00    +0.000 NA
ATOM     25  H   UNL     1      -5.321  10.374  13.955  0.00  0.00    +0.000 HD
BRANCH  24  26
ATOM     26  C   UNL     1      -4.220   9.875  12.312  0.00  0.00    +0.000 C 
BRANCH  26  27
ATOM     27  C   UNL     1      -5.388   9.384  11.454  0.00  0.00    +0.000 C 
BRANCH  27  28
ATOM     28  O   UNL     1      -6.503   9.052  12.280  0.00  0.00    +0.000 OA
ATOM     29  H   UNL     1      -6.820   8.191  11.952  0.00  0.00    +0.000 HD
ENDBRANCH  27  28
ENDBRANCH  26  27
ENDBRANCH  24  26
ENDBRANCH  23  24
ENDBRANCH  22  23
ENDBRANCH  20  22
ENDBRANCH  13  20
BRANCH  19  30
ATOM     30  N   UNL     1      -4.486  13.623  21.722  0.00  0.00    +0.000 N 
ATOM     31  H   UNL     1      -4.968  14.523  21.631  0.00  0.00    +0.000 HD
BRANCH  30  32
ATOM     32  C   UNL     1      -4.837  12.840  22.907  0.00  0.00    +0.000 C 
BRANCH  32  33
ATOM     33  C   UNL     1      -3.920  13.123  24.102  0.00  0.00    +0.000 C 
BRANCH  33  34
ATOM     34  N   UNL     1      -4.114  14.484  24.626  0.00  0.00    +0.000 NA
ATOM     35  H   UNL     1      -4.910  14.462  25.264  0.00  0.00    +0.000 HD
BRANCH  34  36
ATOM     36  C   UNL     1      -2.923  14.905  25.377  0.00  0.00    +0.000 C 
BRANCH  36  37
ATOM     37  C   UNL     1      -1.905  15.554  24.438  0.00  0.00    +0.000 C 
BRANCH  37  38
ATOM     38  O   UNL     1      -0.843  14.645  24.152  0.00  0.00    +0.000 OA
ATOM     39  H   UNL     1      -0.165  14.813  24.828  0.00  0.00    +0.000 HD
ENDBRANCH  37  38
ENDBRANCH  36  37
ENDBRANCH  34  36
ENDBRANCH  33  34
ENDBRANCH  32  33
ENDBRANCH  30  32
ENDBRANCH  19  30
TORSDOF 14
ENDMDL
MODEL 5
REMARK VINA RESULT:      -5.5      0.920      1.007
REMARK  Name = 
REMARK  14 active torsions:
REMARK  status: ('A' for Active; 'I' for Inactive)
REMARK    1  A    between atoms: C_13  and  N_14
REMARK    2  A    between atoms: N_14  and  C_15
REMARK    3  A    between atoms: C_15  and  C_16
REMARK    4  A    between atoms: C_16  and  N_17
REMARK    5  A    between atoms: N_17  and  C_18
REMARK    6  A    between atoms: C_18  and  C_19
REMARK    7  A    between atoms: C_19  and  O_20
REMARK    8  A    between atoms: C_26  and  N_27
REMARK    9  A    between atoms: N_27  and  C_28
REMARK   10  A    between atoms: C_28  and  C_29
REMARK   11  A    between atoms: C_29  and  N_30
REMARK   12  A    between atoms: N_30  and  C_31
REMARK   13  A    between atoms: C_31  and  C_32
REMARK   14  A    between atoms: C_32  and  O_33
REMARK                            x       y       z     vdW  Elec       q    Type
REMARK                         _______ _______ _______ _____ _____    ______ ____
ROOT
ATOM      1  O   UNL     1       4.491   4.637  19.909  0.00  0.00    +0.000 OA
ATOM      2  C   UNL     1       4.143   5.408  19.021  0.00  0.00    +0.000 C 
ATOM      3  C   UNL     1       4.899   5.372  17.762  0.00  0.00    +0.000 A 
ATOM      4  C   UNL     1       5.858   4.365  17.560  0.00  0.00    +0.000 A 
ATOM      5  C   UNL     1       6.610   4.339  16.389  0.00  0.00    +0.000 A 
ATOM      6  C   UNL     1       6.410   5.317  15.419  0.00  0.00    +0.000 A 
ATOM      7  C   UNL     1       5.450   6.314  15.619  0.00  0.00    +0.000 A 
ATOM      8  C   UNL     1       4.684   6.344  16.798  0.00  0.00    +0.000 A 
ATOM      9  C   UNL     1       3.656   7.384  17.007  0.00  0.00    +0.000 C 
ATOM     10  O   UNL     1       3.395   8.134  16.065  0.00  0.00    +0.000 OA
ATOM     11  C   UNL     1       2.900   7.457  18.295  0.00  0.00    +0.000 A 
ATOM     12  C   UNL     1       3.057   6.414  19.234  0.00  0.00    +0.000 A 
ATOM     13  C   UNL     1       2.277   6.333  20.438  0.00  0.00    +0.000 A 
ATOM     14  C   UNL     1       1.362   7.392  20.669  0.00  0.00    +0.000 A 
ATOM     15  C   UNL     1       0.436   7.744  21.704  0.00  0.00    +0.000 A 
ATOM     16  C   UNL     1      -0.171   8.911  21.335  0.00  0.00    +0.000 A 
ATOM     17  O   UNL     1       0.324   9.322  20.155  0.00  0.00    +0.000 OA
ATOM     18  C   UNL     1       1.274   8.422  19.742  0.00  0.00    +0.000 A 
ATOM     19  C   UNL     1       2.023   8.551  18.552  0.00  0.00    +0.000 A 
ENDROOT
BRANCH  13  20
ATOM     20  N   UNL     1       2.358   5.186  21.242  0.00  0.00    +0.000 N 
ATOM     21  H   UNL     1       2.606   5.413  22.219  0.00  0.00    +0.000 HD
BRANCH  20  22
ATOM     22  C   UNL     1       1.404   4.093  21.158  0.00  0.00    +0.000 C 
BRANCH  22  23
ATOM     23  C   UNL     1       1.044   3.796  19.696  0.00  0.00    +0.000 C 
BRANCH  23  24
ATOM     24  N   UNL     1       1.464   2.437  19.325  0.00  0.00    +0.000 NA
ATOM     25  H   UNL     1       0.635   1.899  19.078  0.00  0.00    +0.000 HD
BRANCH  24  26
ATOM     26  C   UNL     1       2.369   2.476  18.172  0.00  0.00    +0.000 C 
BRANCH  26  27
ATOM     27  C   UNL     1       3.504   1.466  18.355  0.00  0.00    +0.000 C 
BRANCH  27  28
ATOM     28  O   UNL     1       4.343   1.856  19.443  0.00  0.00    +0.000 OA
ATOM     29  H   UNL     1       4.496   1.042  19.956  0.00  0.00    +0.000 HD
ENDBRANCH  27  28
ENDBRANCH  26  27
ENDBRANCH  24  26
ENDBRANCH  23  24
ENDBRANCH  22  23
ENDBRANCH  20  22
ENDBRANCH  13  20
BRANCH  19  30
ATOM     30  N   UNL     1       2.016   9.711  17.758  0.00  0.00    +0.000 N 
ATOM     31  H   UNL     1       1.164   9.827  17.201  0.00  0.00    +0.000 HD
BRANCH  30  32
ATOM     32  C   UNL     1       2.589  10.945  18.294  0.00  0.00    +0.000 C 
BRANCH  32  33
ATOM     33  C   UNL     1       1.668  12.158  18.114  0.00  0.00    +0.000 C 
BRANCH  33  34
ATOM     34  N   UNL     1       0.251  11.790  18.261  0.00  0.00    +0.000 NA
ATOM     35  H   UNL     1       0.210  10.800  18.504  0.00  0.00    +0.000 HD
BRANCH  34  36
ATOM     36  C   UNL     1      -0.356  12.566  19.351  0.00  0.00    +0.000 C 
BRANCH  36  37
ATOM     37  C   UNL     1      -1.801  12.118  19.582  0.00  0.00    +0.000 C 
BRANCH  37  38
ATOM     38  O   UNL     1      -2.053  10.887  18.907  0.00  0.00    +0.000 OA
ATOM     39  H   UNL     1      -2.836  10.506  19.340  0.00  0.00    +0.000 HD
ENDBRANCH  37  38
ENDBRANCH  36  37
ENDBRANCH  34  36
ENDBRANCH  33  34
ENDBRANCH  32  33
ENDBRANCH  30  32
ENDBRANCH  19  30
TORSDOF 14
ENDMDL
MODEL 6
REMARK VINA RESULT:      -5.4      0.740      6.251
REMARK  Name = 
REMARK  14 active torsions:
REMARK  status: ('A' for Active; 'I' for Inactive)
REMARK    1  A    between atoms: C_13  and  N_14
REMARK    2  A    between atoms: N_14  and  C_15
REMARK    3  A    between atoms: C_15  and  C_16
REMARK    4  A    between atoms: C_16  and  N_17
REMARK    5  A    between atoms: N_17  and  C_18
REMARK    6  A    between atoms: C_18  and  C_19
REMARK    7  A    between atoms: C_19  and  O_20
REMARK    8  A    between atoms: C_26  and  N_27
REMARK    9  A    between atoms: N_27  and  C_28
REMARK   10  A    between atoms: C_28  and  C_29
REMARK   11  A    between atoms: C_29  and  N_30
REMARK   12  A    between atoms: N_30  and  C_31
REMARK   13  A    between atoms: C_31  and  C_32
REMARK   14  A    between atoms: C_32  and  O_33
REMARK                            x       y       z     vdW  Elec       q    Type
REMARK                         _______ _______ _______ _____ _____    ______ ____
ROOT
ATOM      1  O   UNL     1       3.270   8.206  16.295  0.00  0.00    +0.000 OA
ATOM      2  C   UNL     1       3.558   7.439  17.208  0.00  0.00    +0.000 C 
ATOM      3  C   UNL     1       4.584   6.423  16.939  0.00  0.00    +0.000 A 
ATOM      4  C   UNL     1       5.305   6.472  15.734  0.00  0.00    +0.000 A 
ATOM      5  C   UNL     1       6.253   5.494  15.445  0.00  0.00    +0.000 A 
ATOM      6  C   UNL     1       6.483   4.467  16.354  0.00  0.00    +0.000 A 
ATOM      7  C   UNL     1       5.769   4.424  17.557  0.00  0.00    +0.000 A 
ATOM      8  C   UNL     1       4.813   5.411  17.856  0.00  0.00    +0.000 A 
ATOM      9  C   UNL     1       4.069   5.381  19.132  0.00  0.00    +0.000 C 
ATOM     10  O   UNL     1       4.410   4.554  19.979  0.00  0.00    +0.000 OA
ATOM     11  C   UNL     1       2.998   6.387  19.410  0.00  0.00    +0.000 A 
ATOM     12  C   UNL     1       2.832   7.467  18.516  0.00  0.00    +0.000 A 
ATOM     13  C   UNL     1       1.919   8.548  18.768  0.00  0.00    +0.000 A 
ATOM     14  C   UNL     1       1.143   8.454  19.952  0.00  0.00    +0.000 A 
ATOM     15  C   UNL     1       0.122   9.241  20.577  0.00  0.00    +0.000 A 
ATOM     16  C   UNL     1      -0.236   8.608  21.735  0.00  0.00    +0.000 A 
ATOM     17  O   UNL     1       0.475   7.474  21.865  0.00  0.00    +0.000 OA
ATOM     18  C   UNL     1       1.305   7.351  20.780  0.00  0.00    +0.000 A 
ATOM     19  C   UNL     1       2.179   6.262  20.572  0.00  0.00    +0.000 A 
ENDROOT
BRANCH  13  20
ATOM     20  N   UNL     1       1.926   9.672  17.929  0.00  0.00    +0.000 N 
ATOM     21  H   UNL     1       1.051   9.757  17.386  0.00  0.00    +0.000 HD
BRANCH  20  22
ATOM     22  C   UNL     1       2.439  10.966  18.346  0.00  0.00    +0.000 C 
BRANCH  22  23
ATOM     23  C   UNL     1       1.288  11.941  18.632  0.00  0.00    +0.000 C 
BRANCH  23  24
ATOM     24  N   UNL     1       0.038  11.458  18.027  0.00  0.00    +0.000 NA
ATOM     25  H   UNL     1      -0.064  10.468  18.244  0.00  0.00    +0.000 HD
BRANCH  24  26
ATOM     26  C   UNL     1      -1.112  12.187  18.573  0.00  0.00    +0.000 C 
BRANCH  26  27
ATOM     27  C   UNL     1      -2.410  11.439  18.262  0.00  0.00    +0.000 C 
BRANCH  27  28
ATOM     28  O   UNL     1      -2.130  10.079  17.931  0.00  0.00    +0.000 OA
ATOM     29  H   UNL     1      -1.237  10.086  17.541  0.00  0.00    +0.000 HD
ENDBRANCH  27  28
ENDBRANCH  26  27
ENDBRANCH  24  26
ENDBRANCH  23  24
ENDBRANCH  22  23
ENDBRANCH  20  22
ENDBRANCH  13  20
BRANCH  19  30
ATOM     30  N   UNL     1       2.156   5.093  21.351  0.00  0.00    +0.000 N 
ATOM     31  H   UNL     1       2.291   5.260  22.353  0.00  0.00    +0.000 HD
BRANCH  30  32
ATOM     32  C   UNL     1       1.209   4.031  21.014  0.00  0.00    +0.000 C 
BRANCH  32  33
ATOM     33  C   UNL     1       1.876   2.657  20.880  0.00  0.00    +0.000 C 
BRANCH  33  34
ATOM     34  N   UNL     1       1.527   2.006  19.608  0.00  0.00    +0.000 NA
ATOM     35  H   UNL     1       0.875   2.616  19.114  0.00  0.00    +0.000 HD
BRANCH  34  36
ATOM     36  C   UNL     1       2.732   1.841  18.783  0.00  0.00    +0.000 C 
BRANCH  36  37
ATOM     37  C   UNL     1       2.550   2.535  17.431  0.00  0.00    +0.000 C 
BRANCH  37  38
ATOM     38  O   UNL     1       1.512   3.511  17.510  0.00  0.00    +0.000 OA
ATOM     39  H   UNL     1       1.764   4.212  16.886  0.00  0.00    +0.000 HD
ENDBRANCH  37  38
ENDBRANCH  36  37
ENDBRANCH  34  36
ENDBRANCH  33  34
ENDBRANCH  32  33
ENDBRANCH  30  32
ENDBRANCH  19  30
TORSDOF 14
ENDMDL
MODEL 7
REMARK VINA RESULT:      -5.4      1.780      6.831
REMARK  Name = 
REMARK  14 active torsions:
REMARK  status: ('A' for Active; 'I' for Inactive)
REMARK    1  A    between atoms: C_13  and  N_14
REMARK    2  A    between atoms: N_14  and  C_15
REMARK    3  A    between atoms: C_15  and  C_16
REMARK    4  A    between atoms: C_16  and  N_17
REMARK    5  A    between atoms: N_17  and  C_18
REMARK    6  A    between atoms: C_18  and  C_19
REMARK    7  A    between atoms: C_19  and  O_20
REMARK    8  A    between atoms: C_26  and  N_27
REMARK    9  A    between atoms: N_27  and  C_28
REMARK   10  A    between atoms: C_28  and  C_29
REMARK   11  A    between atoms: C_29  and  N_30
REMARK   12  A    between atoms: N_30  and  C_31
REMARK   13  A    between atoms: C_31  and  C_32
REMARK   14  A    between atoms: C_32  and  O_33
REMARK                            x       y       z     vdW  Elec       q    Type
REMARK                         _______ _______ _______ _____ _____    ______ ____
ROOT
ATOM      1  O   UNL     1       3.528   8.066  16.199  0.00  0.00    +0.000 OA
ATOM      2  C   UNL     1       3.779   7.279  17.105  0.00  0.00    +0.000 C 
ATOM      3  C   UNL     1       4.761   6.223  16.829  0.00  0.00    +0.000 A 
ATOM      4  C   UNL     1       5.488   6.252  15.626  0.00  0.00    +0.000 A 
ATOM      5  C   UNL     1       6.395   5.237  15.331  0.00  0.00    +0.000 A 
ATOM      6  C   UNL     1       6.577   4.192  16.231  0.00  0.00    +0.000 A 
ATOM      7  C   UNL     1       5.858   4.169  17.431  0.00  0.00    +0.000 A 
ATOM      8  C   UNL     1       4.944   5.192  17.737  0.00  0.00    +0.000 A 
ATOM      9  C   UNL     1       4.194   5.183  19.010  0.00  0.00    +0.000 C 
ATOM     10  O   UNL     1       4.496   4.333  19.850  0.00  0.00    +0.000 OA
ATOM     11  C   UNL     1       3.166   6.230  19.295  0.00  0.00    +0.000 A 
ATOM     12  C   UNL     1       3.050   7.325  18.410  0.00  0.00    +0.000 A 
ATOM     13  C   UNL     1       2.184   8.441  18.670  0.00  0.00    +0.000 A 
ATOM     14  C   UNL     1       1.400   8.370  19.851  0.00  0.00    +0.000 A 
ATOM     15  C   UNL     1       0.411   9.193  20.481  0.00  0.00    +0.000 A 
ATOM     16  C   UNL     1       0.023   8.565  21.630  0.00  0.00    +0.000 A 
ATOM     17  O   UNL     1       0.683   7.401  21.752  0.00  0.00    +0.000 OA
ATOM     18  C   UNL     1       1.512   7.252  20.668  0.00  0.00    +0.000 A 
ATOM     19  C   UNL     1       2.339   6.129  20.452  0.00  0.00    +0.000 A 
ENDROOT
BRANCH  13  20
ATOM     20  N   UNL     1       2.241   9.573  17.843  0.00  0.00    +0.000 N 
ATOM     21  H   UNL     1       2.354   9.320  16.847  0.00  0.00    +0.000 HD
BRANCH  20  22
ATOM     22  C   UNL     1       1.377  10.727  18.021  0.00  0.00    +0.000 C 
BRANCH  22  23
ATOM     23  C   UNL     1       2.202  11.979  18.348  0.00  0.00    +0.000 C 
BRANCH  23  24
ATOM     24  N   UNL     1       1.416  13.197  18.100  0.00  0.00    +0.000 NA
ATOM     25  H   UNL     1       0.432  12.939  18.038  0.00  0.00    +0.000 HD
BRANCH  24  26
ATOM     26  C   UNL     1       1.591  14.153  19.198  0.00  0.00    +0.000 C 
BRANCH  26  27
ATOM     27  C   UNL     1       2.722  13.696  20.123  0.00  0.00    +0.000 C 
BRANCH  27  28
ATOM     28  O   UNL     1       2.290  13.723  21.483  0.00  0.00    +0.000 OA
ATOM     29  H   UNL     1       2.773  13.001  21.922  0.00  0.00    +0.000 HD
ENDBRANCH  27  28
ENDBRANCH  26  27
ENDBRANCH  24  26
ENDBRANCH  23  24
ENDBRANCH  22  23
ENDBRANCH  20  22
ENDBRANCH  13  20
BRANCH  19  30
ATOM     30  N   UNL     1       2.263   4.955  21.220  0.00  0.00    +0.000 N 
ATOM     31  H   UNL     1       2.444   5.100  22.219  0.00  0.00    +0.000 HD
BRANCH  30  32
ATOM     32  C   UNL     1       1.234   3.964  20.906  0.00  0.00    +0.000 C 
BRANCH  32  33
ATOM     33  C   UNL     1       1.790   2.539  20.804  0.00  0.00    +0.000 C 
BRANCH  33  34
ATOM     34  N   UNL     1       1.415   1.899  19.534  0.00  0.00    +0.000 NA
ATOM     35  H   UNL     1       0.470   2.204  19.298  0.00  0.00    +0.000 HD
BRANCH  34  36
ATOM     36  C   UNL     1       2.327   2.334  18.466  0.00  0.00    +0.000 C 
BRANCH  36  37
ATOM     37  C   UNL     1       3.468   1.328  18.300  0.00  0.00    +0.000 C 
BRANCH  37  38
ATOM     38  O   UNL     1       4.507   1.596  19.241  0.00  0.00    +0.000 OA
ATOM     39  H   UNL     1       4.348   0.993  19.986  0.00  0.00    +0.000 HD
ENDBRANCH  37  38
ENDBRANCH  36  37
ENDBRANCH  34  36
ENDBRANCH  33  34
ENDBRANCH  32  33
ENDBRANCH  30  32
ENDBRANCH  19  30
TORSDOF 14
ENDMDL
MODEL 8
REMARK VINA RESULT:      -5.4      5.049      9.374
REMARK  Name = 
REMARK  14 active torsions:
REMARK  status: ('A' for Active; 'I' for Inactive)
REMARK    1  A    between atoms: C_13  and  N_14
REMARK    2  A    between atoms: N_14  and  C_15
REMARK    3  A    between atoms: C_15  and  C_16
REMARK    4  A    between atoms: C_16  and  N_17
REMARK    5  A    between atoms: N_17  and  C_18
REMARK    6  A    between atoms: C_18  and  C_19
REMARK    7  A    between atoms: C_19  and  O_20
REMARK    8  A    between atoms: C_26  and  N_27
REMARK    9  A    between atoms: N_27  and  C_28
REMARK   10  A    between atoms: C_28  and  C_29
REMARK   11  A    between atoms: C_29  and  N_30
REMARK   12  A    between atoms: N_30  and  C_31
REMARK   13  A    between atoms: C_31  and  C_32
REMARK   14  A    between atoms: C_32  and  O_33
REMARK                            x       y       z     vdW  Elec       q    Type
REMARK                         _______ _______ _______ _____ _____    ______ ____
ROOT
ATOM      1  O   UNL     1      -3.589  13.223  21.433  0.00  0.00    +0.000 OA
ATOM      2  C   UNL     1      -3.900  12.875  20.298  0.00  0.00    +0.000 C 
ATOM      3  C   UNL     1      -5.275  13.150  19.861  0.00  0.00    +0.000 A 
ATOM      4  C   UNL     1      -6.114  13.934  20.671  0.00  0.00    +0.000 A 
ATOM      5  C   UNL     1      -7.432  14.171  20.291  0.00  0.00    +0.000 A 
ATOM      6  C   UNL     1      -7.916  13.627  19.105  0.00  0.00    +0.000 A 
ATOM      7  C   UNL     1      -7.077  12.853  18.296  0.00  0.00    +0.000 A 
ATOM      8  C   UNL     1      -5.743  12.613  18.673  0.00  0.00    +0.000 A 
ATOM      9  C   UNL     1      -4.847  11.812  17.815  0.00  0.00    +0.000 C 
ATOM     10  O   UNL     1      -5.258  11.481  16.701  0.00  0.00    +0.000 OA
ATOM     11  C   UNL     1      -3.455  11.493  18.258  0.00  0.00    +0.000 A 
ATOM     12  C   UNL     1      -2.954  12.116  19.422  0.00  0.00    +0.000 A 
ATOM     13  C   UNL     1      -1.590  11.973  19.851  0.00  0.00    +0.000 A 
ATOM     14  C   UNL     1      -0.769  11.123  19.068  0.00  0.00    +0.000 A 
ATOM     15  C   UNL     1       0.588  10.667  19.123  0.00  0.00    +0.000 A 
ATOM     16  C   UNL     1       0.791   9.843  18.051  0.00  0.00    +0.000 A 
ATOM     17  O   UNL     1      -0.347   9.738  17.344  0.00  0.00    +0.000 OA
ATOM     18  C   UNL     1      -1.316  10.492  17.957  0.00  0.00    +0.000 A 
ATOM     19  C   UNL     1      -2.648  10.594  17.501  0.00  0.00    +0.000 A 
ENDROOT
BRANCH  13  20
ATOM     20  N   UNL     1      -1.112  12.752  20.915  0.00  0.00    +0.000 N 
ATOM     21  H   UNL     1      -1.823  13.418  21.260  0.00  0.00    +0.000 HD
BRANCH  20  22
ATOM     22  C   UNL     1      -0.303  12.207  21.993  0.00  0.00    +0.000 C 
BRANCH  22  23
ATOM     23  C   UNL     1      -1.107  11.188  22.813  0.00  0.00    +0.000 C 
BRANCH  23  24
ATOM     24  N   UNL     1      -0.207  10.238  23.483  0.00  0.00    +0.000 NA
ATOM     25  H   UNL     1      -0.764   9.463  23.841  0.00  0.00    +0.000 HD
BRANCH  24  26
ATOM     26  C   UNL     1       0.784   9.715  22.536  0.00  0.00    +0.000 C 
BRANCH  26  27
ATOM     27  C   UNL     1       0.167   8.604  21.684  0.00  0.00    +0.000 C 
BRANCH  27  28
ATOM     28  O   UNL     1      -0.936   8.010  22.368  0.00  0.00    +0.000 OA
ATOM     29  H   UNL     1      -0.793   7.049  22.304  0.00  0.00    +0.000 HD
ENDBRANCH  27  28
ENDBRANCH  26  27
ENDBRANCH  24  26
ENDBRANCH  23  24
ENDBRANCH  22  23
ENDBRANCH  20  22
ENDBRANCH  13  20
BRANCH  19  30
ATOM     30  N   UNL     1      -3.179   9.784  16.483  0.00  0.00    +0.000 N 
ATOM     31  H   UNL     1      -4.188   9.626  16.564  0.00  0.00    +0.000 HD
BRANCH  30  32
ATOM     32  C   UNL     1      -2.673   9.930  15.119  0.00  0.00    +0.000 C 
BRANCH  32  33
ATOM     33  C   UNL     1      -3.791  10.009  14.073  0.00  0.00    +0.000 C 
BRANCH  33  34
ATOM     34  N   UNL     1      -3.317   9.606  12.740  0.00  0.00    +0.000 NA
ATOM     35  H   UNL     1      -3.221   8.590  12.738  0.00  0.00    +0.000 HD
BRANCH  34  36
ATOM     36  C   UNL     1      -4.307   9.985  11.721  0.00  0.00    +0.000 C 
BRANCH  36  37
ATOM     37  C   UNL     1      -5.657   9.331  12.022  0.00  0.00    +0.000 C 
BRANCH  37  38
ATOM     38  O   UNL     1      -6.687   9.938  11.244  0.00  0.00    +0.000 OA
ATOM     39  H   UNL     1      -6.499  10.892  11.259  0.00  0.00    +0.000 HD
ENDBRANCH  37  38
ENDBRANCH  36  37
ENDBRANCH  34  36
ENDBRANCH  33  34
ENDBRANCH  32  33
ENDBRANCH  30  32
ENDBRANCH  19  30
TORSDOF 14
ENDMDL
MODEL 9
REMARK VINA RESULT:      -5.4      6.812      9.712
REMARK  Name = 
REMARK  14 active torsions:
REMARK  status: ('A' for Active; 'I' for Inactive)
REMARK    1  A    between atoms: C_13  and  N_14
REMARK    2  A    between atoms: N_14  and  C_15
REMARK    3  A    between atoms: C_15  and  C_16
REMARK    4  A    between atoms: C_16  and  N_17
REMARK    5  A    between atoms: N_17  and  C_18
REMARK    6  A    between atoms: C_18  and  C_19
REMARK    7  A    between atoms: C_19  and  O_20
REMARK    8  A    between atoms: C_26  and  N_27
REMARK    9  A    between atoms: N_27  and  C_28
REMARK   10  A    between atoms: C_28  and  C_29
REMARK   11  A    between atoms: C_29  and  N_30
REMARK   12  A    between atoms: N_30  and  C_31
REMARK   13  A    between atoms: C_31  and  C_32
REMARK   14  A    between atoms: C_32  and  O_33
REMARK                            x       y       z     vdW  Elec       q    Type
REMARK                         _______ _______ _______ _____ _____    ______ ____
ROOT
ATOM      1  O   UNL     1      -2.254  14.924  21.415  0.00  0.00    +0.000 OA
ATOM      2  C   UNL     1      -1.808  13.938  20.837  0.00  0.00    +0.000 C 
ATOM      3  C   UNL     1      -0.349  13.778  20.804  0.00  0.00    +0.000 A 
ATOM      4  C   UNL     1       0.460  14.643  21.560  0.00  0.00    +0.000 A 
ATOM      5  C   UNL     1       1.847  14.531  21.509  0.00  0.00    +0.000 A 
ATOM      6  C   UNL     1       2.430  13.558  20.704  0.00  0.00    +0.000 A 
ATOM      7  C   UNL     1       1.623  12.692  19.956  0.00  0.00    +0.000 A 
ATOM      8  C   UNL     1       0.222  12.798  20.007  0.00  0.00    +0.000 A 
ATOM      9  C   UNL     1      -0.636  11.876  19.234  0.00  0.00    +0.000 C 
ATOM     10  O   UNL     1      -0.094  10.930  18.660  0.00  0.00    +0.000 OA
ATOM     11  C   UNL     1      -2.121  12.045  19.230  0.00  0.00    +0.000 A 
ATOM     12  C   UNL     1      -2.701  12.983  20.111  0.00  0.00    +0.000 A 
ATOM     13  C   UNL     1      -4.122  13.121  20.270  0.00  0.00    +0.000 A 
ATOM     14  C   UNL     1      -4.931  12.293  19.449  0.00  0.00    +0.000 A 
ATOM     15  C   UNL     1      -6.337  12.111  19.240  0.00  0.00    +0.000 A 
ATOM     16  C   UNL     1      -6.491  11.135  18.296  0.00  0.00    +0.000 A 
ATOM     17  O   UNL     1      -5.283  10.711  17.887  0.00  0.00    +0.000 OA
ATOM     18  C   UNL     1      -4.319  11.418  18.561  0.00  0.00    +0.000 A 
ATOM     19  C   UNL     1      -2.931  11.252  18.364  0.00  0.00    +0.000 A 
ENDROOT
BRANCH  13  20
ATOM     20  N   UNL     1      -4.631  13.947  21.283  0.00  0.00    +0.000 N 
ATOM     21  H   UNL     1      -5.166  14.745  20.902  0.00  0.00    +0.000 HD
BRANCH  20  22
ATOM     22  C   UNL     1      -5.220  13.426  22.505  0.00  0.00    +0.000 C 
BRANCH  22  23
ATOM     23  C   UNL     1      -5.247  14.504  23.598  0.00  0.00    +0.000 C 
BRANCH  23  24
ATOM     24  N   UNL     1      -3.914  15.099  23.771  0.00  0.00    +0.000 NA
ATOM     25  H   UNL     1      -4.028  16.075  24.043  0.00  0.00    +0.000 HD
BRANCH  24  26
ATOM     26  C   UNL     1      -3.171  14.396  24.822  0.00  0.00    +0.000 C 
BRANCH  26  27
ATOM     27  C   UNL     1      -2.189  15.350  25.506  0.00  0.00    +0.000 C 
BRANCH  27  28
ATOM     28  O   UNL     1      -0.862  15.117  25.034  0.00  0.00    +0.000 OA
ATOM     29  H   UNL     1      -0.345  15.890  25.323  0.00  0.00    +0.000 HD
ENDBRANCH  27  28
ENDBRANCH  26  27
ENDBRANCH  24  26
ENDBRANCH  23  24
ENDBRANCH  22  23
ENDBRANCH  20  22
ENDBRANCH  13  20
BRANCH  19  30
ATOM     30  N   UNL     1      -2.386  10.486  17.319  0.00  0.00    +0.000 N 
ATOM     31  H   UNL     1      -2.452   9.474  17.470  0.00  0.00    +0.000 HD
BRANCH  30  32
ATOM     32  C   UNL     1      -2.574  10.928  15.938  0.00  0.00    +0.000 C 
BRANCH  32  33
ATOM     33  C   UNL     1      -3.200   9.851  15.045  0.00  0.00    +0.000 C 
BRANCH  33  34
ATOM     34  N   UNL     1      -3.502  10.368  13.702  0.00  0.00    +0.000 NA
ATOM     35  H   UNL     1      -2.662  10.267  13.133  0.00  0.00    +0.000 HD
BRANCH  34  36
ATOM     36  C   UNL     1      -4.579   9.575  13.091  0.00  0.00    +0.000 C 
BRANCH  36  37
ATOM     37  C   UNL     1      -4.752   9.956  11.619  0.00  0.00    +0.000 C 
BRANCH  37  38
ATOM     38  O   UNL     1      -3.519   9.803  10.919  0.00  0.00    +0.000 OA
ATOM     39  H   UNL     1      -3.287  10.691  10.598  0.00  0.00    +0.000 HD
ENDBRANCH  37  38
ENDBRANCH  36  37
ENDBRANCH  34  36
ENDBRANCH  33  34
ENDBRANCH  32  33
ENDBRANCH  30  32
ENDBRANCH  19  30
TORSDOF 14
ENDMDL
