MODEL 1
REMARK VINA RESULT:      -7.4      0.000      0.000
REMARK  Name = 
REMARK  4 active torsions:
REMARK  status: ('A' for Active; 'I' for Inactive)
REMARK    1  A    between atoms: C_1  and  C_2
REMARK    2  A    between atoms: N_4  and  C_5
REMARK    3  A    between atoms: C_9  and  C_10
REMARK    4  A    between atoms: C_10  and  O_12
REMARK                            x       y       z     vdW  Elec       q    Type
REMARK                         _______ _______ _______ _____ _____    ______ ____
ROOT
ATOM      1  C   UNL     1       5.705   6.663  17.421  0.00  0.00    +0.000 A 
ATOM      2  S   UNL     1       4.405   6.714  18.523  0.00  0.00    +0.000 S 
ATOM      3  C   UNL     1       3.906   5.147  18.158  0.00  0.00    +0.000 A 
ATOM      4  C   UNL     1       4.703   4.568  17.187  0.00  0.00    +0.000 A 
ATOM      5  C   UNL     1       5.760   5.450  16.736  0.00  0.00    +0.000 A 
ATOM      6  C   UNL     1       4.423   3.149  16.769  0.00  0.00    +0.000 C 
ATOM      7  C   UNL     1       2.913   2.851  16.828  0.00  0.00    +0.000 C 
ATOM      8  C   UNL     1       2.275   3.310  18.128  0.00  0.00    +0.000 A 
ATOM      9  C   UNL     1       1.173   2.623  18.655  0.00  0.00    +0.000 A 
ATOM     10  C   UNL     1       0.562   3.074  19.822  0.00  0.00    +0.000 A 
ATOM     11  C   UNL     1       1.032   4.219  20.463  0.00  0.00    +0.000 A 
ATOM     12  C   UNL     1       2.119   4.920  19.938  0.00  0.00    +0.000 A 
ATOM     13  C   UNL     1       2.749   4.480  18.768  0.00  0.00    +0.000 A 
ENDROOT
BRANCH   1  17
ATOM     14  C   UNL     1       8.381   9.298  17.530  0.00  0.00    +0.000 C 
ATOM     15  C   UNL     1       7.733   7.994  17.910  0.00  0.00    +0.000 C 
ATOM     16  O   UNL     1       8.323   7.225  18.659  0.00  0.00    +0.000 OA
ATOM     17  N   UNL     1       6.513   7.791  17.267  0.00  0.00    +0.000 N 
ATOM     18  H   UNL     1       6.193   8.512  16.629  0.00  0.00    +0.000 HD
ENDBRANCH   1  17
BRANCH   5  19
ATOM     19  C   UNL     1       6.748   5.099  15.716  0.00  0.00    +0.000 C 
ATOM     20  O   UNL     1       6.619   5.335  14.526  0.00  0.00    +0.000 OA
BRANCH  19  21
ATOM     21  O   UNL     1       7.848   4.462  16.197  0.00  0.00    +0.000 OA
ATOM     22  H   UNL     1       8.641   5.029  16.139  0.00  0.00    +0.000 HD
ENDBRANCH  19  21
ENDBRANCH   5  19
TORSDOF 3
ENDMDL
MODEL 2
REMARK VINA RESULT:      -7.0      3.792      5.801
REMARK  Name = 
REMARK  4 active torsions:
REMARK  status: ('A' for Active; 'I' for Inactive)
REMARK    1  A    between atoms: C_1  and  C_2
REMARK    2  A    between atoms: N_4  and  C_5
REMARK    3  A    between atoms: C_9  and  C_10
REMARK    4  A    between atoms: C_10  and  O_12
REMARK                            x       y       z     vdW  Elec       q    Type
REMARK                         _______ _______ _______ _____ _____    ______ ____
ROOT
ATOM      1  C   UNL     1       2.338   6.154  20.077  0.00  0.00    +0.000 A 
ATOM      2  S   UNL     1       3.327   6.847  18.875  0.00  0.00    +0.000 S 
ATOM      3  C   UNL     1       3.631   5.366  18.133  0.00  0.00    +0.000 A 
ATOM      4  C   UNL     1       3.003   4.324  18.791  0.00  0.00    +0.000 A 
ATOM      5  C   UNL     1       2.246   4.770  19.943  0.00  0.00    +0.000 A 
ATOM      6  C   UNL     1       3.134   2.931  18.237  0.00  0.00    +0.000 C 
ATOM      7  C   UNL     1       4.515   2.732  17.584  0.00  0.00    +0.000 C 
ATOM      8  C   UNL     1       4.891   3.868  16.649  0.00  0.00    +0.000 A 
ATOM      9  C   UNL     1       5.706   3.625  15.534  0.00  0.00    +0.000 A 
ATOM     10  C   UNL     1       6.088   4.678  14.706  0.00  0.00    +0.000 A 
ATOM     11  C   UNL     1       5.675   5.979  14.990  0.00  0.00    +0.000 A 
ATOM     12  C   UNL     1       4.878   6.234  16.107  0.00  0.00    +0.000 A 
ATOM     13  C   UNL     1       4.481   5.189  16.949  0.00  0.00    +0.000 A 
ENDROOT
BRANCH   1  17
ATOM     14  C   UNL     1       0.757   8.892  22.109  0.00  0.00    +0.000 C 
ATOM     15  C   UNL     1       1.303   8.263  20.856  0.00  0.00    +0.000 C 
ATOM     16  O   UNL     1       1.222   8.871  19.794  0.00  0.00    +0.000 OA
ATOM     17  N   UNL     1       1.789   6.974  21.065  0.00  0.00    +0.000 N 
ATOM     18  H   UNL     1       1.728   6.597  22.005  0.00  0.00    +0.000 HD
ENDBRANCH   1  17
BRANCH   5  19
ATOM     19  C   UNL     1       1.485   3.883  20.823  0.00  0.00    +0.000 C 
ATOM     20  O   UNL     1       1.869   3.512  21.921  0.00  0.00    +0.000 OA
BRANCH  19  21
ATOM     21  O   UNL     1       0.292   3.477  20.316  0.00  0.00    +0.000 OA
ATOM     22  H   UNL     1       0.386   3.162  19.396  0.00  0.00    +0.000 HD
ENDBRANCH  19  21
ENDBRANCH   5  19
TORSDOF 3
ENDMDL
MODEL 3
REMARK VINA RESULT:      -6.8      5.249      6.841
REMARK  Name = 
REMARK  4 active torsions:
REMARK  status: ('A' for Active; 'I' for Inactive)
REMARK    1  A    between atoms: C_1  and  C_2
REMARK    2  A    between atoms: N_4  and  C_5
REMARK    3  A    between atoms: C_9  and  C_10
REMARK    4  A    between atoms: C_10  and  O_12
REMARK                            x       y       z     vdW  Elec       q    Type
REMARK                         _______ _______ _______ _____ _____    ______ ____
ROOT
ATOM      1  C   UNL     1       2.065   6.525  20.392  0.00  0.00    +0.000 A 
ATOM      2  S   UNL     1       1.212   7.717  21.263  0.00  0.00    +0.000 S 
ATOM      3  C   UNL     1       1.245   8.814  19.985  0.00  0.00    +0.000 A 
ATOM      4  C   UNL     1       1.915   8.304  18.888  0.00  0.00    +0.000 A 
ATOM      5  C   UNL     1       2.412   6.961  19.115  0.00  0.00    +0.000 A 
ATOM      6  C   UNL     1       2.004   9.138  17.639  0.00  0.00    +0.000 C 
ATOM      7  C   UNL     1       2.093  10.636  17.989  0.00  0.00    +0.000 C 
ATOM      8  C   UNL     1       1.055  11.062  19.012  0.00  0.00    +0.000 A 
ATOM      9  C   UNL     1       0.540  12.366  18.996  0.00  0.00    +0.000 A 
ATOM     10  C   UNL     1      -0.377  12.766  19.965  0.00  0.00    +0.000 A 
ATOM     11  C   UNL     1      -0.775  11.879  20.964  0.00  0.00    +0.000 A 
ATOM     12  C   UNL     1      -0.256  10.584  21.000  0.00  0.00    +0.000 A 
ATOM     13  C   UNL     1       0.664  10.161  20.032  0.00  0.00    +0.000 A 
ENDROOT
BRANCH   1  17
ATOM     14  C   UNL     1       2.250   2.986  21.641  0.00  0.00    +0.000 C 
ATOM     15  C   UNL     1       1.666   4.127  20.853  0.00  0.00    +0.000 C 
ATOM     16  O   UNL     1       0.706   3.920  20.118  0.00  0.00    +0.000 OA
ATOM     17  N   UNL     1       2.375   5.315  21.016  0.00  0.00    +0.000 N 
ATOM     18  H   UNL     1       3.186   5.297  21.625  0.00  0.00    +0.000 HD
ENDBRANCH   1  17
BRANCH   5  19
ATOM     19  C   UNL     1       3.158   6.181  18.127  0.00  0.00    +0.000 C 
ATOM     20  O   UNL     1       4.226   6.525  17.647  0.00  0.00    +0.000 OA
BRANCH  19  21
ATOM     21  O   UNL     1       2.557   5.019  17.761  0.00  0.00    +0.000 OA
ATOM     22  H   UNL     1       2.134   5.099  16.884  0.00  0.00    +0.000 HD
ENDBRANCH  19  21
ENDBRANCH   5  19
TORSDOF 3
ENDMDL
MODEL 4
REMARK VINA RESULT:      -6.7      2.254      3.843
REMARK  Name = 
REMARK  4 active torsions:
REMARK  status: ('A' for Active; 'I' for Inactive)
REMARK    1  A    between atoms: C_1  and  C_2
REMARK    2  A    between atoms: N_4  and  C_5
REMARK    3  A    between atoms: C_9  and  C_10
REMARK    4  A    between atoms: C_10  and  O_12
REMARK                            x       y       z     vdW  Elec       q    Type
REMARK                         _______ _______ _______ _____ _____    ______ ____
ROOT
ATOM      1  C   UNL     1       5.535   4.032  15.553  0.00  0.00    +0.000 A 
ATOM      2  S   UNL     1       4.292   2.990  16.076  0.00  0.00    +0.000 S 
ATOM      3  C   UNL     1       3.858   3.991  17.358  0.00  0.00    +0.000 A 
ATOM      4  C   UNL     1       4.655   5.119  17.422  0.00  0.00    +0.000 A 
ATOM      5  C   UNL     1       5.654   5.154  16.372  0.00  0.00    +0.000 A 
ATOM      6  C   UNL     1       4.377   6.146  18.487  0.00  0.00    +0.000 C 
ATOM      7  C   UNL     1       3.864   5.472  19.773  0.00  0.00    +0.000 C 
ATOM      8  C   UNL     1       2.761   4.462  19.506  0.00  0.00    +0.000 A 
ATOM      9  C   UNL     1       1.766   4.232  20.466  0.00  0.00    +0.000 A 
ATOM     10  C   UNL     1       0.784   3.272  20.237  0.00  0.00    +0.000 A 
ATOM     11  C   UNL     1       0.794   2.523  19.061  0.00  0.00    +0.000 A 
ATOM     12  C   UNL     1       1.791   2.732  18.106  0.00  0.00    +0.000 A 
ATOM     13  C   UNL     1       2.784   3.695  18.316  0.00  0.00    +0.000 A 
ENDROOT
BRANCH   1  17
ATOM     14  C   UNL     1       6.947   3.199  12.172  0.00  0.00    +0.000 C 
ATOM     15  C   UNL     1       5.869   3.611  13.137  0.00  0.00    +0.000 C 
ATOM     16  O   UNL     1       4.762   3.916  12.708  0.00  0.00    +0.000 OA
ATOM     17  N   UNL     1       6.317   3.665  14.456  0.00  0.00    +0.000 N 
ATOM     18  H   UNL     1       7.289   3.433  14.631  0.00  0.00    +0.000 HD
ENDBRANCH   1  17
BRANCH   5  19
ATOM     19  C   UNL     1       6.631   6.228  16.200  0.00  0.00    +0.000 C 
ATOM     20  O   UNL     1       6.511   7.347  16.671  0.00  0.00    +0.000 OA
BRANCH  19  21
ATOM     21  O   UNL     1       7.711   5.889  15.447  0.00  0.00    +0.000 OA
ATOM     22  H   UNL     1       7.569   5.040  14.986  0.00  0.00    +0.000 HD
ENDBRANCH  19  21
ENDBRANCH   5  19
TORSDOF 3
ENDMDL
MODEL 5
REMARK VINA RESULT:      -6.6      2.893      4.224
REMARK  Name = 
REMARK  4 active torsions:
REMARK  status: ('A' for Active; 'I' for Inactive)
REMARK    1  A    between atoms: C_1  and  C_2
REMARK    2  A    between atoms: N_4  and  C_5
REMARK    3  A    between atoms: C_9  and  C_10
REMARK    4  A    between atoms: C_10  and  O_12
REMARK                            x       y       z     vdW  Elec       q    Type
REMARK                         _______ _______ _______ _____ _____    ______ ____
ROOT
ATOM      1  C   UNL     1       4.378   5.684  17.161  0.00  0.00    +0.000 A 
ATOM      2  S   UNL     1       3.551   7.174  17.175  0.00  0.00    +0.000 S 
ATOM      3  C   UNL     1       2.900   6.909  18.705  0.00  0.00    +0.000 A 
ATOM      4  C   UNL     1       3.283   5.685  19.221  0.00  0.00    +0.000 A 
ATOM      5  C   UNL     1       4.146   4.947  18.321  0.00  0.00    +0.000 A 
ATOM      6  C   UNL     1       2.823   5.303  20.603  0.00  0.00    +0.000 C 
ATOM      7  C   UNL     1       1.420   5.872  20.887  0.00  0.00    +0.000 C 
ATOM      8  C   UNL     1       1.298   7.340  20.517  0.00  0.00    +0.000 A 
ATOM      9  C   UNL     1       0.427   8.178  21.228  0.00  0.00    +0.000 A 
ATOM     10  C   UNL     1       0.282   9.512  20.856  0.00  0.00    +0.000 A 
ATOM     11  C   UNL     1       0.989  10.017  19.766  0.00  0.00    +0.000 A 
ATOM     12  C   UNL     1       1.846   9.188  19.040  0.00  0.00    +0.000 A 
ATOM     13  C   UNL     1       2.008   7.845  19.401  0.00  0.00    +0.000 A 
ENDROOT
BRANCH   1  17
ATOM     14  C   UNL     1       7.025   4.897  14.612  0.00  0.00    +0.000 C 
ATOM     15  C   UNL     1       6.512   5.355  15.950  0.00  0.00    +0.000 C 
ATOM     16  O   UNL     1       7.311   5.639  16.836  0.00  0.00    +0.000 OA
ATOM     17  N   UNL     1       5.121   5.326  16.034  0.00  0.00    +0.000 N 
ATOM     18  H   UNL     1       4.609   5.009  15.217  0.00  0.00    +0.000 HD
ENDBRANCH   1  17
BRANCH   5  19
ATOM     19  C   UNL     1       4.698   3.623  18.608  0.00  0.00    +0.000 C 
ATOM     20  O   UNL     1       4.032   2.605  18.688  0.00  0.00    +0.000 OA
BRANCH  19  21
ATOM     21  O   UNL     1       6.044   3.607  18.798  0.00  0.00    +0.000 OA
ATOM     22  H   UNL     1       6.485   4.303  18.274  0.00  0.00    +0.000 HD
ENDBRANCH  19  21
ENDBRANCH   5  19
TORSDOF 3
ENDMDL
MODEL 6
REMARK VINA RESULT:      -6.4      1.074      1.074
REMARK  Name = 
REMARK  4 active torsions:
REMARK  status: ('A' for Active; 'I' for Inactive)
REMARK    1  A    between atoms: C_1  and  C_2
REMARK    2  A    between atoms: N_4  and  C_5
REMARK    3  A    between atoms: C_9  and  C_10
REMARK    4  A    between atoms: C_10  and  O_12
REMARK                            x       y       z     vdW  Elec       q    Type
REMARK                         _______ _______ _______ _____ _____    ______ ____
ROOT
ATOM      1  C   UNL     1       6.268   5.801  18.246  0.00  0.00    +0.000 A 
ATOM      2  S   UNL     1       5.186   5.583  19.545  0.00  0.00    +0.000 S 
ATOM      3  C   UNL     1       4.229   4.491  18.692  0.00  0.00    +0.000 A 
ATOM      4  C   UNL     1       4.703   4.287  17.408  0.00  0.00    +0.000 A 
ATOM      5  C   UNL     1       5.897   5.058  17.127  0.00  0.00    +0.000 A 
ATOM      6  C   UNL     1       3.989   3.305  16.518  0.00  0.00    +0.000 C 
ATOM      7  C   UNL     1       2.476   3.307  16.808  0.00  0.00    +0.000 C 
ATOM      8  C   UNL     1       2.163   3.224  18.292  0.00  0.00    +0.000 A 
ATOM      9  C   UNL     1       0.990   2.595  18.732  0.00  0.00    +0.000 A 
ATOM     10  C   UNL     1       0.683   2.562  20.090  0.00  0.00    +0.000 A 
ATOM     11  C   UNL     1       1.531   3.167  21.016  0.00  0.00    +0.000 A 
ATOM     12  C   UNL     1       2.693   3.810  20.587  0.00  0.00    +0.000 A 
ATOM     13  C   UNL     1       3.021   3.851  19.227  0.00  0.00    +0.000 A 
ENDROOT
BRANCH   1  17
ATOM     14  C   UNL     1       8.697   8.664  18.086  0.00  0.00    +0.000 C 
ATOM     15  C   UNL     1       7.449   7.910  17.713  0.00  0.00    +0.000 C 
ATOM     16  O   UNL     1       6.644   8.422  16.942  0.00  0.00    +0.000 OA
ATOM     17  N   UNL     1       7.331   6.695  18.387  0.00  0.00    +0.000 N 
ATOM     18  H   UNL     1       8.068   6.448  19.039  0.00  0.00    +0.000 HD
ENDBRANCH   1  17
BRANCH   5  19
ATOM     19  C   UNL     1       6.609   5.038  15.849  0.00  0.00    +0.000 C 
ATOM     20  O   UNL     1       6.140   5.437  14.796  0.00  0.00    +0.000 OA
BRANCH  19  21
ATOM     21  O   UNL     1       7.863   4.517  15.914  0.00  0.00    +0.000 OA
ATOM     22  H   UNL     1       8.444   5.060  16.481  0.00  0.00    +0.000 HD
ENDBRANCH  19  21
ENDBRANCH   5  19
TORSDOF 3
ENDMDL
MODEL 7
REMARK VINA RESULT:      -6.3      3.080      6.446
REMARK  Name = 
REMARK  4 active torsions:
REMARK  status: ('A' for Active; 'I' for Inactive)
REMARK    1  A    between atoms: C_1  and  C_2
REMARK    2  A    between atoms: N_4  and  C_5
REMARK    3  A    between atoms: C_9  and  C_10
REMARK    4  A    between atoms: C_10  and  O_12
REMARK                            x       y       z     vdW  Elec       q    Type
REMARK                         _______ _______ _______ _____ _____    ______ ____
ROOT
ATOM      1  C   UNL     1       3.997   3.710  17.810  0.00  0.00    +0.000 A 
ATOM      2  S   UNL     1       3.956   3.258  16.167  0.00  0.00    +0.000 S 
ATOM      3  C   UNL     1       5.392   4.061  15.809  0.00  0.00    +0.000 A 
ATOM      4  C   UNL     1       5.915   4.697  16.920  0.00  0.00    +0.000 A 
ATOM      5  C   UNL     1       5.101   4.508  18.104  0.00  0.00    +0.000 A 
ATOM      6  C   UNL     1       7.223   5.431  16.788  0.00  0.00    +0.000 C 
ATOM      7  C   UNL     1       7.358   6.056  15.387  0.00  0.00    +0.000 C 
ATOM      8  C   UNL     1       7.016   5.081  14.274  0.00  0.00    +0.000 A 
ATOM      9  C   UNL     1       7.644   5.187  13.025  0.00  0.00    +0.000 A 
ATOM     10  C   UNL     1       7.294   4.321  11.992  0.00  0.00    +0.000 A 
ATOM     11  C   UNL     1       6.307   3.355  12.190  0.00  0.00    +0.000 A 
ATOM     12  C   UNL     1       5.664   3.252  13.424  0.00  0.00    +0.000 A 
ATOM     13  C   UNL     1       6.005   4.111  14.475  0.00  0.00    +0.000 A 
ENDROOT
BRANCH   1  17
ATOM     14  C   UNL     1       0.715   3.023  19.507  0.00  0.00    +0.000 C 
ATOM     15  C   UNL     1       1.605   3.590  18.434  0.00  0.00    +0.000 C 
ATOM     16  O   UNL     1       1.100   4.157  17.471  0.00  0.00    +0.000 OA
ATOM     17  N   UNL     1       2.954   3.318  18.652  0.00  0.00    +0.000 N 
ATOM     18  H   UNL     1       3.197   2.783  19.479  0.00  0.00    +0.000 HD
ENDBRANCH   1  17
BRANCH   5  19
ATOM     19  C   UNL     1       5.415   5.069  19.418  0.00  0.00    +0.000 C 
ATOM     20  O   UNL     1       6.538   5.120  19.891  0.00  0.00    +0.000 OA
BRANCH  19  21
ATOM     21  O   UNL     1       4.336   5.533  20.101  0.00  0.00    +0.000 OA
ATOM     22  H   UNL     1       3.919   4.826  20.629  0.00  0.00    +0.000 HD
ENDBRANCH  19  21
ENDBRANCH   5  19
TORSDOF 3
ENDMDL
MODEL 8
REMARK VINA RESULT:      -6.2      5.004      6.267
REMARK  Name = 
REMARK  4 active torsions:
REMARK  status: ('A' for Active; 'I' for Inactive)
REMARK    1  A    between atoms: C_1  and  C_2
REMARK    2  A    between atoms: N_4  and  C_5
REMARK    3  A    between atoms: C_9  and  C_10
REMARK    4  A    between atoms: C_10  and  O_12
REMARK                            x       y       z     vdW  Elec       q    Type
REMARK                         _______ _______ _______ _____ _____    ______ ____
ROOT
ATOM      1  C   UNL     1       0.624   9.028  20.629  0.00  0.00    +0.000 A 
ATOM      2  S   UNL     1       0.660   7.468  21.314  0.00  0.00    +0.000 S 
ATOM      3  C   UNL     1       1.733   6.878  20.157  0.00  0.00    +0.000 A 
ATOM      4  C   UNL     1       2.066   7.846  19.226  0.00  0.00    +0.000 A 
ATOM      5  C   UNL     1       1.415   9.114  19.485  0.00  0.00    +0.000 A 
ATOM      6  C   UNL     1       3.050   7.501  18.141  0.00  0.00    +0.000 C 
ATOM      7  C   UNL     1       2.907   6.024  17.725  0.00  0.00    +0.000 C 
ATOM      8  C   UNL     1       2.857   5.082  18.915  0.00  0.00    +0.000 A 
ATOM      9  C   UNL     1       3.357   3.777  18.804  0.00  0.00    +0.000 A 
ATOM     10  C   UNL     1       3.267   2.901  19.882  0.00  0.00    +0.000 A 
ATOM     11  C   UNL     1       2.665   3.311  21.071  0.00  0.00    +0.000 A 
ATOM     12  C   UNL     1       2.149   4.602  21.187  0.00  0.00    +0.000 A 
ATOM     13  C   UNL     1       2.233   5.499  20.115  0.00  0.00    +0.000 A 
ENDROOT
BRANCH   1  17
ATOM     14  C   UNL     1      -1.196  11.429  22.875  0.00  0.00    +0.000 C 
ATOM     15  C   UNL     1      -0.232  10.318  22.560  0.00  0.00    +0.000 C 
ATOM     16  O   UNL     1       0.454   9.844  23.460  0.00  0.00    +0.000 OA
ATOM     17  N   UNL     1      -0.191  10.006  21.202  0.00  0.00    +0.000 N 
ATOM     18  H   UNL     1      -0.790  10.540  20.581  0.00  0.00    +0.000 HD
ENDBRANCH   1  17
BRANCH   5  19
ATOM     19  C   UNL     1       1.584  10.311  18.660  0.00  0.00    +0.000 C 
ATOM     20  O   UNL     1       1.524  11.452  19.087  0.00  0.00    +0.000 OA
BRANCH  19  21
ATOM     21  O   UNL     1       1.809  10.057  17.344  0.00  0.00    +0.000 OA
ATOM     22  H   UNL     1       2.476  10.666  16.974  0.00  0.00    +0.000 HD
ENDBRANCH  19  21
ENDBRANCH   5  19
TORSDOF 3
ENDMDL
MODEL 9
REMARK VINA RESULT:      -6.2      1.932      3.507
REMARK  Name = 
REMARK  4 active torsions:
REMARK  status: ('A' for Active; 'I' for Inactive)
REMARK    1  A    between atoms: C_1  and  C_2
REMARK    2  A    between atoms: N_4  and  C_5
REMARK    3  A    between atoms: C_9  and  C_10
REMARK    4  A    between atoms: C_10  and  O_12
REMARK                            x       y       z     vdW  Elec       q    Type
REMARK                         _______ _______ _______ _____ _____    ______ ____
ROOT
ATOM      1  C   UNL     1       6.422   5.272  15.897  0.00  0.00    +0.000 A 
ATOM      2  S   UNL     1       5.221   4.069  15.771  0.00  0.00    +0.000 S 
ATOM      3  C   UNL     1       4.717   4.268  17.366  0.00  0.00    +0.000 A 
ATOM      4  C   UNL     1       5.458   5.233  18.022  0.00  0.00    +0.000 A 
ATOM      5  C   UNL     1       6.472   5.828  17.175  0.00  0.00    +0.000 A 
ATOM      6  C   UNL     1       5.112   5.569  19.448  0.00  0.00    +0.000 C 
ATOM      7  C   UNL     1       4.609   4.320  20.196  0.00  0.00    +0.000 C 
ATOM      8  C   UNL     1       3.561   3.550  19.411  0.00  0.00    +0.000 A 
ATOM      9  C   UNL     1       2.561   2.834  20.083  0.00  0.00    +0.000 A 
ATOM     10  C   UNL     1       1.630   2.090  19.361  0.00  0.00    +0.000 A 
ATOM     11  C   UNL     1       1.698   2.042  17.970  0.00  0.00    +0.000 A 
ATOM     12  C   UNL     1       2.700   2.738  17.292  0.00  0.00    +0.000 A 
ATOM     13  C   UNL     1       3.642   3.493  17.999  0.00  0.00    +0.000 A 
ENDROOT
BRANCH   1  17
ATOM     14  C   UNL     1       8.191   5.375  12.584  0.00  0.00    +0.000 C 
ATOM     15  C   UNL     1       7.200   4.849  13.586  0.00  0.00    +0.000 C 
ATOM     16  O   UNL     1       6.430   3.953  13.258  0.00  0.00    +0.000 OA
ATOM     17  N   UNL     1       7.240   5.538  14.797  0.00  0.00    +0.000 N 
ATOM     18  H   UNL     1       7.907   6.298  14.882  0.00  0.00    +0.000 HD
ENDBRANCH   1  17
BRANCH   5  19
ATOM     19  C   UNL     1       7.400   6.872  17.608  0.00  0.00    +0.000 C 
ATOM     20  O   UNL     1       7.576   7.923  17.014  0.00  0.00    +0.000 OA
BRANCH  19  21
ATOM     21  O   UNL     1       8.083   6.578  18.746  0.00  0.00    +0.000 OA
ATOM     22  H   UNL     1       8.906   6.091  18.551  0.00  0.00    +0.000 HD
ENDBRANCH  19  21
ENDBRANCH   5  19
TORSDOF 3
ENDMDL
