MODEL 1
REMARK VINA RESULT:      -7.3      0.000      0.000
REMARK  Name = 
REMARK  3 active torsions:
REMARK  status: ('A' for Active; 'I' for Inactive)
REMARK    1  A    between atoms: C_1  and  C_2
REMARK    2  A    between atoms: C_7  and  N_8
REMARK    3  A    between atoms: C_15  and  N_16
REMARK                            x       y       z     vdW  Elec       q    Type
REMARK                         _______ _______ _______ _____ _____    ______ ____
ROOT
ATOM      1  N   UNL     1       3.620   4.726  18.257  0.00  0.00    +0.000 N 
ATOM      2  C   UNL     1       2.938   5.894  18.580  0.00  0.00    +0.000 A 
ATOM      3  N   UNL     1       2.864   6.887  17.760  0.00  0.00    +0.000 NA
ATOM      4  C   UNL     1       2.284   8.092  17.983  0.00  0.00    +0.000 A 
ATOM      5  O   UNL     1       2.223   8.935  17.088  0.00  0.00    +0.000 OA
ATOM      6  C   UNL     1       1.753   8.490  19.304  0.00  0.00    +0.000 A 
ATOM      7  C   UNL     1       1.324   9.821  19.471  0.00  0.00    +0.000 A 
ATOM      8  C   UNL     1       0.792  10.238  20.690  0.00  0.00    +0.000 A 
ATOM      9  C   UNL     1       0.694   9.339  21.754  0.00  0.00    +0.000 A 
ATOM     10  C   UNL     1       1.138   8.013  21.579  0.00  0.00    +0.000 A 
ATOM     11  C   UNL     1       1.669   7.580  20.351  0.00  0.00    +0.000 A 
ATOM     12  S   UNL     1       2.199   5.890  20.173  0.00  0.00    +0.000 S 
ATOM     13  H   UNL     1       3.619   4.006  18.968  0.00  0.00    +0.000 HD
ENDROOT
BRANCH   1  20
ATOM     14  C   UNL     1       6.342   5.397  19.414  0.00  0.00    +0.000 C 
ATOM     15  C   UNL     1       6.077   5.017  17.983  0.00  0.00    +0.000 A 
ATOM     16  C   UNL     1       7.204   4.985  17.129  0.00  0.00    +0.000 A 
ATOM     17  C   UNL     1       7.091   4.644  15.786  0.00  0.00    +0.000 A 
ATOM     18  C   UNL     1       5.845   4.339  15.266  0.00  0.00    +0.000 A 
ATOM     19  C   UNL     1       4.721   4.376  16.090  0.00  0.00    +0.000 A 
ATOM     20  C   UNL     1       4.800   4.708  17.460  0.00  0.00    +0.000 A 
ENDBRANCH   1  20
BRANCH   8  21
ATOM     21  N   UNL     1       0.337  11.630  20.851  0.00  0.00    +0.000 N 
ATOM     22  O   UNL     1       0.237  12.071  22.001  0.00  0.00    +0.000 OA
ATOM     23  O   UNL     1       0.081  12.272  19.828  0.00  0.00    +0.000 OA
ENDBRANCH   8  21
TORSDOF 2
ENDMDL
MODEL 2
REMARK VINA RESULT:      -7.3      2.396      3.289
REMARK  Name = 
REMARK  3 active torsions:
REMARK  status: ('A' for Active; 'I' for Inactive)
REMARK    1  A    between atoms: C_1  and  C_2
REMARK    2  A    between atoms: C_7  and  N_8
REMARK    3  A    between atoms: C_15  and  N_16
REMARK                            x       y       z     vdW  Elec       q    Type
REMARK                         _______ _______ _______ _____ _____    ______ ____
ROOT
ATOM      1  N   UNL     1       3.017   6.803  17.960  0.00  0.00    +0.000 N 
ATOM      2  C   UNL     1       2.319   7.736  18.718  0.00  0.00    +0.000 A 
ATOM      3  N   UNL     1       2.105   7.565  19.979  0.00  0.00    +0.000 NA
ATOM      4  C   UNL     1       1.391   8.368  20.805  0.00  0.00    +0.000 A 
ATOM      5  O   UNL     1       1.319   8.125  22.009  0.00  0.00    +0.000 OA
ATOM      6  C   UNL     1       0.615   9.528  20.317  0.00  0.00    +0.000 A 
ATOM      7  C   UNL     1      -0.225  10.194  21.230  0.00  0.00    +0.000 A 
ATOM      8  C   UNL     1      -0.957  11.309  20.825  0.00  0.00    +0.000 A 
ATOM      9  C   UNL     1      -0.869  11.761  19.507  0.00  0.00    +0.000 A 
ATOM     10  C   UNL     1      -0.034  11.079  18.599  0.00  0.00    +0.000 A 
ATOM     11  C   UNL     1       0.714   9.958  18.999  0.00  0.00    +0.000 A 
ATOM     12  S   UNL     1       1.768   9.141  17.820  0.00  0.00    +0.000 S 
ATOM     13  H   UNL     1       3.132   7.031  16.981  0.00  0.00    +0.000 HD
ENDROOT
BRANCH   1  20
ATOM     14  C   UNL     1       5.328   5.268  19.185  0.00  0.00    +0.000 C 
ATOM     15  C   UNL     1       4.014   4.668  18.764  0.00  0.00    +0.000 A 
ATOM     16  C   UNL     1       3.876   3.275  18.959  0.00  0.00    +0.000 A 
ATOM     17  C   UNL     1       2.707   2.604  18.615  0.00  0.00    +0.000 A 
ATOM     18  C   UNL     1       1.657   3.312  18.057  0.00  0.00    +0.000 A 
ATOM     19  C   UNL     1       1.781   4.685  17.846  0.00  0.00    +0.000 A 
ATOM     20  C   UNL     1       2.947   5.400  18.193  0.00  0.00    +0.000 A 
ENDBRANCH   1  20
BRANCH   8  21
ATOM     21  N   UNL     1      -1.824  12.004  21.791  0.00  0.00    +0.000 N 
ATOM     22  O   UNL     1      -1.728  11.686  22.981  0.00  0.00    +0.000 OA
ATOM     23  O   UNL     1      -2.598  12.862  21.354  0.00  0.00    +0.000 OA
ENDBRANCH   8  21
TORSDOF 2
ENDMDL
MODEL 3
REMARK VINA RESULT:      -7.2      0.916      1.726
REMARK  Name = 
REMARK  3 active torsions:
REMARK  status: ('A' for Active; 'I' for Inactive)
REMARK    1  A    between atoms: C_1  and  C_2
REMARK    2  A    between atoms: C_7  and  N_8
REMARK    3  A    between atoms: C_15  and  N_16
REMARK                            x       y       z     vdW  Elec       q    Type
REMARK                         _______ _______ _______ _____ _____    ______ ____
ROOT
ATOM      1  N   UNL     1       3.714   5.043  19.258  0.00  0.00    +0.000 N 
ATOM      2  C   UNL     1       2.941   6.199  19.279  0.00  0.00    +0.000 A 
ATOM      3  N   UNL     1       2.949   7.040  18.301  0.00  0.00    +0.000 NA
ATOM      4  C   UNL     1       2.290   8.222  18.232  0.00  0.00    +0.000 A 
ATOM      5  O   UNL     1       2.329   8.904  17.208  0.00  0.00    +0.000 OA
ATOM      6  C   UNL     1       1.549   8.791  19.378  0.00  0.00    +0.000 A 
ATOM      7  C   UNL     1       1.043  10.100  19.254  0.00  0.00    +0.000 A 
ATOM      8  C   UNL     1       0.315  10.671  20.297  0.00  0.00    +0.000 A 
ATOM      9  C   UNL     1       0.096   9.950  21.473  0.00  0.00    +0.000 A 
ATOM     10  C   UNL     1       0.619   8.647  21.589  0.00  0.00    +0.000 A 
ATOM     11  C   UNL     1       1.348   8.058  20.541  0.00  0.00    +0.000 A 
ATOM     12  S   UNL     1       1.971   6.401  20.729  0.00  0.00    +0.000 S 
ATOM     13  H   UNL     1       3.637   4.449  20.074  0.00  0.00    +0.000 HD
ENDROOT
BRANCH   1  20
ATOM     14  C   UNL     1       4.129   3.807  16.521  0.00  0.00    +0.000 C 
ATOM     15  C   UNL     1       5.212   4.405  17.375  0.00  0.00    +0.000 A 
ATOM     16  C   UNL     1       6.520   4.368  16.838  0.00  0.00    +0.000 A 
ATOM     17  C   UNL     1       7.606   4.893  17.529  0.00  0.00    +0.000 A 
ATOM     18  C   UNL     1       7.409   5.457  18.778  0.00  0.00    +0.000 A 
ATOM     19  C   UNL     1       6.127   5.491  19.328  0.00  0.00    +0.000 A 
ATOM     20  C   UNL     1       5.001   4.977  18.651  0.00  0.00    +0.000 A 
ENDBRANCH   1  20
BRANCH   8  21
ATOM     21  N   UNL     1      -0.219  12.036  20.154  0.00  0.00    +0.000 N 
ATOM     22  O   UNL     1       0.574  12.977  20.272  0.00  0.00    +0.000 OA
ATOM     23  O   UNL     1      -1.426  12.159  19.927  0.00  0.00    +0.000 OA
ENDBRANCH   8  21
TORSDOF 2
ENDMDL
MODEL 4
REMARK VINA RESULT:      -7.1      3.282      4.411
REMARK  Name = 
REMARK  3 active torsions:
REMARK  status: ('A' for Active; 'I' for Inactive)
REMARK    1  A    between atoms: C_1  and  C_2
REMARK    2  A    between atoms: C_7  and  N_8
REMARK    3  A    between atoms: C_15  and  N_16
REMARK                            x       y       z     vdW  Elec       q    Type
REMARK                         _______ _______ _______ _____ _____    ______ ____
ROOT
ATOM      1  N   UNL     1       2.688   6.295  19.452  0.00  0.00    +0.000 N 
ATOM      2  C   UNL     1       2.013   7.467  19.773  0.00  0.00    +0.000 A 
ATOM      3  N   UNL     1       1.415   7.620  20.906  0.00  0.00    +0.000 NA
ATOM      4  C   UNL     1       0.679   8.685  21.306  0.00  0.00    +0.000 A 
ATOM      5  O   UNL     1       0.214   8.734  22.445  0.00  0.00    +0.000 OA
ATOM      6  C   UNL     1       0.338   9.805  20.404  0.00  0.00    +0.000 A 
ATOM      7  C   UNL     1      -0.570  10.777  20.868  0.00  0.00    +0.000 A 
ATOM      8  C   UNL     1      -0.903  11.865  20.065  0.00  0.00    +0.000 A 
ATOM      9  C   UNL     1      -0.346  11.989  18.790  0.00  0.00    +0.000 A 
ATOM     10  C   UNL     1       0.551  11.004  18.331  0.00  0.00    +0.000 A 
ATOM     11  C   UNL     1       0.900   9.906  19.137  0.00  0.00    +0.000 A 
ATOM     12  S   UNL     1       2.052   8.698  18.520  0.00  0.00    +0.000 S 
ATOM     13  H   UNL     1       3.124   6.275  18.539  0.00  0.00    +0.000 HD
ENDROOT
BRANCH   1  20
ATOM     14  C   UNL     1       1.405   4.314  17.547  0.00  0.00    +0.000 C 
ATOM     15  C   UNL     1       1.661   4.070  19.009  0.00  0.00    +0.000 A 
ATOM     16  C   UNL     1       1.255   2.812  19.510  0.00  0.00    +0.000 A 
ATOM     17  C   UNL     1       1.442   2.465  20.843  0.00  0.00    +0.000 A 
ATOM     18  C   UNL     1       2.028   3.374  21.706  0.00  0.00    +0.000 A 
ATOM     19  C   UNL     1       2.424   4.624  21.232  0.00  0.00    +0.000 A 
ATOM     20  C   UNL     1       2.260   5.007  19.884  0.00  0.00    +0.000 A 
ENDBRANCH   1  20
BRANCH   8  21
ATOM     21  N   UNL     1      -1.845  12.882  20.564  0.00  0.00    +0.000 N 
ATOM     22  O   UNL     1      -1.653  14.055  20.227  0.00  0.00    +0.000 OA
ATOM     23  O   UNL     1      -2.767  12.501  21.291  0.00  0.00    +0.000 OA
ENDBRANCH   8  21
TORSDOF 2
ENDMDL
MODEL 5
REMARK VINA RESULT:      -7.0      3.011      4.627
REMARK  Name = 
REMARK  3 active torsions:
REMARK  status: ('A' for Active; 'I' for Inactive)
REMARK    1  A    between atoms: C_1  and  C_2
REMARK    2  A    between atoms: C_7  and  N_8
REMARK    3  A    between atoms: C_15  and  N_16
REMARK                            x       y       z     vdW  Elec       q    Type
REMARK                         _______ _______ _______ _____ _____    ______ ____
ROOT
ATOM      1  N   UNL     1       2.121   7.944  19.281  0.00  0.00    +0.000 N 
ATOM      2  C   UNL     1       1.407   8.823  20.087  0.00  0.00    +0.000 A 
ATOM      3  N   UNL     1       1.466   8.765  21.375  0.00  0.00    +0.000 NA
ATOM      4  C   UNL     1       0.773   9.522  22.261  0.00  0.00    +0.000 A 
ATOM      5  O   UNL     1       0.972   9.411  23.471  0.00  0.00    +0.000 OA
ATOM      6  C   UNL     1      -0.287  10.466  21.848  0.00  0.00    +0.000 A 
ATOM      7  C   UNL     1      -1.058  11.078  22.856  0.00  0.00    +0.000 A 
ATOM      8  C   UNL     1      -2.052  11.994  22.518  0.00  0.00    +0.000 A 
ATOM      9  C   UNL     1      -2.295  12.299  21.178  0.00  0.00    +0.000 A 
ATOM     10  C   UNL     1      -1.526  11.671  20.178  0.00  0.00    +0.000 A 
ATOM     11  C   UNL     1      -0.516  10.751  20.507  0.00  0.00    +0.000 A 
ATOM     12  S   UNL     1       0.442   9.998  19.209  0.00  0.00    +0.000 S 
ATOM     13  H   UNL     1       2.009   8.072  18.284  0.00  0.00    +0.000 HD
ENDROOT
BRANCH   1  20
ATOM     14  C   UNL     1       4.362   6.340  18.014  0.00  0.00    +0.000 C 
ATOM     15  C   UNL     1       3.407   5.824  19.055  0.00  0.00    +0.000 A 
ATOM     16  C   UNL     1       3.587   4.478  19.450  0.00  0.00    +0.000 A 
ATOM     17  C   UNL     1       2.771   3.886  20.408  0.00  0.00    +0.000 A 
ATOM     18  C   UNL     1       1.751   4.624  20.982  0.00  0.00    +0.000 A 
ATOM     19  C   UNL     1       1.552   5.950  20.596  0.00  0.00    +0.000 A 
ATOM     20  C   UNL     1       2.366   6.586  19.635  0.00  0.00    +0.000 A 
ENDBRANCH   1  20
BRANCH   8  21
ATOM     21  N   UNL     1      -2.845  12.636  23.580  0.00  0.00    +0.000 N 
ATOM     22  O   UNL     1      -3.803  12.005  24.041  0.00  0.00    +0.000 OA
ATOM     23  O   UNL     1      -2.508  13.766  23.945  0.00  0.00    +0.000 OA
ENDBRANCH   8  21
TORSDOF 2
ENDMDL
MODEL 6
REMARK VINA RESULT:      -6.7      2.482      3.927
REMARK  Name = 
REMARK  3 active torsions:
REMARK  status: ('A' for Active; 'I' for Inactive)
REMARK    1  A    between atoms: C_1  and  C_2
REMARK    2  A    between atoms: C_7  and  N_8
REMARK    3  A    between atoms: C_15  and  N_16
REMARK                            x       y       z     vdW  Elec       q    Type
REMARK                         _______ _______ _______ _____ _____    ______ ____
ROOT
ATOM      1  N   UNL     1       2.771   6.499  19.006  0.00  0.00    +0.000 N 
ATOM      2  C   UNL     1       2.084   7.618  19.462  0.00  0.00    +0.000 A 
ATOM      3  N   UNL     1       1.808   7.784  20.711  0.00  0.00    +0.000 NA
ATOM      4  C   UNL     1       1.096   8.796  21.265  0.00  0.00    +0.000 A 
ATOM      5  O   UNL     1       0.959   8.873  22.486  0.00  0.00    +0.000 OA
ATOM      6  C   UNL     1       0.397   9.818  20.455  0.00  0.00    +0.000 A 
ATOM      7  C   UNL     1      -0.450  10.724  21.122  0.00  0.00    +0.000 A 
ATOM      8  C   UNL     1      -1.111  11.721  20.406  0.00  0.00    +0.000 A 
ATOM      9  C   UNL     1      -0.943  11.816  19.023  0.00  0.00    +0.000 A 
ATOM     10  C   UNL     1      -0.102  10.896  18.366  0.00  0.00    +0.000 A 
ATOM     11  C   UNL     1       0.575   9.891  19.079  0.00  0.00    +0.000 A 
ATOM     12  S   UNL     1       1.640   8.764  18.206  0.00  0.00    +0.000 S 
ATOM     13  H   UNL     1       2.940   6.463  18.008  0.00  0.00    +0.000 HD
ENDROOT
BRANCH   1  20
ATOM     14  C   UNL     1       5.071   4.525  19.111  0.00  0.00    +0.000 C 
ATOM     15  C   UNL     1       3.687   4.273  19.642  0.00  0.00    +0.000 A 
ATOM     16  C   UNL     1       3.467   3.004  20.226  0.00  0.00    +0.000 A 
ATOM     17  C   UNL     1       2.231   2.652  20.758  0.00  0.00    +0.000 A 
ATOM     18  C   UNL     1       1.187   3.559  20.707  0.00  0.00    +0.000 A 
ATOM     19  C   UNL     1       1.383   4.811  20.124  0.00  0.00    +0.000 A 
ATOM     20  C   UNL     1       2.625   5.206  19.584  0.00  0.00    +0.000 A 
ENDBRANCH   1  20
BRANCH   8  21
ATOM     21  N   UNL     1      -1.987  12.670  21.114  0.00  0.00    +0.000 N 
ATOM     22  O   UNL     1      -2.228  12.448  22.306  0.00  0.00    +0.000 OA
ATOM     23  O   UNL     1      -2.429  13.629  20.475  0.00  0.00    +0.000 OA
ENDBRANCH   8  21
TORSDOF 2
ENDMDL
MODEL 7
REMARK VINA RESULT:      -6.7      3.074      7.442
REMARK  Name = 
REMARK  3 active torsions:
REMARK  status: ('A' for Active; 'I' for Inactive)
REMARK    1  A    between atoms: C_1  and  C_2
REMARK    2  A    between atoms: C_7  and  N_8
REMARK    3  A    between atoms: C_15  and  N_16
REMARK                            x       y       z     vdW  Elec       q    Type
REMARK                         _______ _______ _______ _____ _____    ______ ____
ROOT
ATOM      1  N   UNL     1       0.630   9.814  20.536  0.00  0.00    +0.000 N 
ATOM      2  C   UNL     1       1.316   8.682  20.111  0.00  0.00    +0.000 A 
ATOM      3  N   UNL     1       1.961   8.658  18.993  0.00  0.00    +0.000 NA
ATOM      4  C   UNL     1       2.613   7.602  18.447  0.00  0.00    +0.000 A 
ATOM      5  O   UNL     1       3.249   7.731  17.401  0.00  0.00    +0.000 OA
ATOM      6  C   UNL     1       2.553   6.242  19.022  0.00  0.00    +0.000 A 
ATOM      7  C   UNL     1       3.125   5.186  18.285  0.00  0.00    +0.000 A 
ATOM      8  C   UNL     1       3.116   3.890  18.797  0.00  0.00    +0.000 A 
ATOM      9  C   UNL     1       2.528   3.632  20.037  0.00  0.00    +0.000 A 
ATOM     10  C   UNL     1       1.948   4.694  20.758  0.00  0.00    +0.000 A 
ATOM     11  C   UNL     1       1.957   6.007  20.256  0.00  0.00    +0.000 A 
ATOM     12  S   UNL     1       1.228   7.318  21.213  0.00  0.00    +0.000 S 
ATOM     13  H   UNL     1       0.156   9.731  21.427  0.00  0.00    +0.000 HD
ENDROOT
BRANCH   1  20
ATOM     14  C   UNL     1       1.601  12.654  20.103  0.00  0.00    +0.000 C 
ATOM     15  C   UNL     1       0.408  12.033  19.430  0.00  0.00    +0.000 A 
ATOM     16  C   UNL     1      -0.302  12.864  18.534  0.00  0.00    +0.000 A 
ATOM     17  C   UNL     1      -1.420  12.405  17.845  0.00  0.00    +0.000 A 
ATOM     18  C   UNL     1      -1.857  11.108  18.048  0.00  0.00    +0.000 A 
ATOM     19  C   UNL     1      -1.174  10.277  18.937  0.00  0.00    +0.000 A 
ATOM     20  C   UNL     1      -0.031  10.706  19.644  0.00  0.00    +0.000 A 
ENDBRANCH   1  20
BRANCH   8  21
ATOM     21  N   UNL     1       3.727   2.795  18.023  0.00  0.00    +0.000 N 
ATOM     22  O   UNL     1       4.425   3.101  17.050  0.00  0.00    +0.000 OA
ATOM     23  O   UNL     1       3.503   1.638  18.392  0.00  0.00    +0.000 OA
ENDBRANCH   8  21
TORSDOF 2
ENDMDL
MODEL 8
REMARK VINA RESULT:      -6.4      2.268      3.620
REMARK  Name = 
REMARK  3 active torsions:
REMARK  status: ('A' for Active; 'I' for Inactive)
REMARK    1  A    between atoms: C_1  and  C_2
REMARK    2  A    between atoms: C_7  and  N_8
REMARK    3  A    between atoms: C_15  and  N_16
REMARK                            x       y       z     vdW  Elec       q    Type
REMARK                         _______ _______ _______ _____ _____    ______ ____
ROOT
ATOM      1  N   UNL     1       2.728   7.072  17.924  0.00  0.00    +0.000 N 
ATOM      2  C   UNL     1       2.112   8.002  18.755  0.00  0.00    +0.000 A 
ATOM      3  N   UNL     1       1.984   7.801  20.023  0.00  0.00    +0.000 NA
ATOM      4  C   UNL     1       1.354   8.599  20.919  0.00  0.00    +0.000 A 
ATOM      5  O   UNL     1       1.361   8.323  22.119  0.00  0.00    +0.000 OA
ATOM      6  C   UNL     1       0.579   9.792  20.519  0.00  0.00    +0.000 A 
ATOM      7  C   UNL     1      -0.175  10.454  21.507  0.00  0.00    +0.000 A 
ATOM      8  C   UNL     1      -0.902  11.599  21.185  0.00  0.00    +0.000 A 
ATOM      9  C   UNL     1      -0.895  12.086  19.877  0.00  0.00    +0.000 A 
ATOM     10  C   UNL     1      -0.148  11.407  18.893  0.00  0.00    +0.000 A 
ATOM     11  C   UNL     1       0.596  10.256  19.208  0.00  0.00    +0.000 A 
ATOM     12  S   UNL     1       1.539   9.446  17.935  0.00  0.00    +0.000 S 
ATOM     13  H   UNL     1       2.779   7.324  16.945  0.00  0.00    +0.000 HD
ENDROOT
BRANCH   1  20
ATOM     14  C   UNL     1       4.685   5.141  16.644  0.00  0.00    +0.000 C 
ATOM     15  C   UNL     1       3.539   4.751  17.536  0.00  0.00    +0.000 A 
ATOM     16  C   UNL     1       3.380   3.366  17.774  0.00  0.00    +0.000 A 
ATOM     17  C   UNL     1       2.362   2.879  18.586  0.00  0.00    +0.000 A 
ATOM     18  C   UNL     1       1.473   3.766  19.167  0.00  0.00    +0.000 A 
ATOM     19  C   UNL     1       1.607   5.135  18.934  0.00  0.00    +0.000 A 
ATOM     20  C   UNL     1       2.635   5.665  18.124  0.00  0.00    +0.000 A 
ENDBRANCH   1  20
BRANCH   8  21
ATOM     21  N   UNL     1      -1.678  12.290  22.229  0.00  0.00    +0.000 N 
ATOM     22  O   UNL     1      -2.908  12.175  22.199  0.00  0.00    +0.000 OA
ATOM     23  O   UNL     1      -1.054  12.943  23.070  0.00  0.00    +0.000 OA
ENDBRANCH   8  21
TORSDOF 2
ENDMDL
MODEL 9
REMARK VINA RESULT:      -6.3      2.901      7.666
REMARK  Name = 
REMARK  3 active torsions:
REMARK  status: ('A' for Active; 'I' for Inactive)
REMARK    1  A    between atoms: C_1  and  C_2
REMARK    2  A    between atoms: C_7  and  N_8
REMARK    3  A    between atoms: C_15  and  N_16
REMARK                            x       y       z     vdW  Elec       q    Type
REMARK                         _______ _______ _______ _____ _____    ______ ____
ROOT
ATOM      1  N   UNL     1       0.212   9.858  20.689  0.00  0.00    +0.000 N 
ATOM      2  C   UNL     1       1.045   8.912  20.103  0.00  0.00    +0.000 A 
ATOM      3  N   UNL     1       1.497   9.055  18.904  0.00  0.00    +0.000 NA
ATOM      4  C   UNL     1       2.262   8.178  18.207  0.00  0.00    +0.000 A 
ATOM      5  O   UNL     1       2.685   8.467  17.088  0.00  0.00    +0.000 OA
ATOM      6  C   UNL     1       2.580   6.824  18.707  0.00  0.00    +0.000 A 
ATOM      7  C   UNL     1       3.239   5.935  17.835  0.00  0.00    +0.000 A 
ATOM      8  C   UNL     1       3.583   4.656  18.267  0.00  0.00    +0.000 A 
ATOM      9  C   UNL     1       3.264   4.247  19.564  0.00  0.00    +0.000 A 
ATOM     10  C   UNL     1       2.593   5.141  20.423  0.00  0.00    +0.000 A 
ATOM     11  C   UNL     1       2.248   6.436  20.000  0.00  0.00    +0.000 A 
ATOM     12  S   UNL     1       1.419   7.535  21.128  0.00  0.00    +0.000 S 
ATOM     13  H   UNL     1      -0.089   9.654  21.634  0.00  0.00    +0.000 HD
ENDROOT
BRANCH   1  20
ATOM     14  C   UNL     1      -0.827  12.530  21.680  0.00  0.00    +0.000 C 
ATOM     15  C   UNL     1      -1.248  11.855  20.404  0.00  0.00    +0.000 A 
ATOM     16  C   UNL     1      -2.211  12.539  19.627  0.00  0.00    +0.000 A 
ATOM     17  C   UNL     1      -2.677  12.021  18.424  0.00  0.00    +0.000 A 
ATOM     18  C   UNL     1      -2.198  10.802  17.978  0.00  0.00    +0.000 A 
ATOM     19  C   UNL     1      -1.257  10.107  18.737  0.00  0.00    +0.000 A 
ATOM     20  C   UNL     1      -0.753  10.607  19.957  0.00  0.00    +0.000 A 
ENDBRANCH   1  20
BRANCH   8  21
ATOM     21  N   UNL     1       4.281   3.737  17.351  0.00  0.00    +0.000 N 
ATOM     22  O   UNL     1       3.981   2.539  17.403  0.00  0.00    +0.000 OA
ATOM     23  O   UNL     1       5.124   4.218  16.589  0.00  0.00    +0.000 OA
ENDBRANCH   8  21
TORSDOF 2
ENDMDL
