MODEL 1
REMARK VINA RESULT:      -8.2      0.000      0.000
REMARK  Name = 
REMARK  7 active torsions:
REMARK  status: ('A' for Active; 'I' for Inactive)
REMARK    1  A    between atoms: C_1  and  C_2
REMARK    2  A    between atoms: C_5  and  N_6
REMARK    3  A    between atoms: N_6  and  CA_7
REMARK    4  A    between atoms: CA_7  and  C_17
REMARK    5  A    between atoms: C_8  and  C_9
REMARK    6  A    between atoms: C_9  and  C_11
REMARK    7  A    between atoms: C_17  and  OXT_19
REMARK                            x       y       z     vdW  Elec       q    Type
REMARK                         _______ _______ _______ _____ _____    ______ ____
ROOT
ATOM      1  CA  UNL     1       6.944   4.953  18.039  0.00  0.00    +0.000 C 
ATOM      2  C   UNL     1       6.877   5.244  16.728  0.00  0.00    +0.000 C 
ENDROOT
BRANCH   1   3
ATOM      3  N   UNL     1       6.248   3.951  18.706  0.00  0.00    +0.000 N 
ATOM      4  H   UNL     1       6.513   3.016  18.403  0.00  0.00    +0.000 HD
BRANCH   3   9
ATOM      5  C   UNL     1       0.802   4.179  20.450  0.00  0.00    +0.000 C 
ATOM      6  C   UNL     1       2.268   4.142  20.131  0.00  0.00    +0.000 A 
ATOM      7  C   UNL     1       2.967   5.320  19.849  0.00  0.00    +0.000 A 
ATOM      8  C   UNL     1       4.298   5.272  19.419  0.00  0.00    +0.000 A 
ATOM      9  C   UNL     1       4.949   4.047  19.241  0.00  0.00    +0.000 A 
ATOM     10  C   UNL     1       4.270   2.876  19.606  0.00  0.00    +0.000 A 
ATOM     11  C   UNL     1       2.938   2.921  20.030  0.00  0.00    +0.000 A 
ENDBRANCH   3   9
ENDBRANCH   1   3
BRANCH   2  12
ATOM     12  C   UNL     1       5.971   4.547  15.783  0.00  0.00    +0.000 C 
ATOM     13  O   UNL     1       4.859   4.155  16.118  0.00  0.00    +0.000 OA
BRANCH  12  14
ATOM     14  C   UNL     1       6.418   4.423  14.366  0.00  0.00    +0.000 A 
ATOM     15  C   UNL     1       5.799   3.553  13.459  0.00  0.00    +0.000 A 
ATOM     16  C   UNL     1       6.214   3.522  12.124  0.00  0.00    +0.000 A 
ATOM     17  C   UNL     1       7.246   4.355  11.692  0.00  0.00    +0.000 A 
ATOM     18  C   UNL     1       7.874   5.213  12.593  0.00  0.00    +0.000 A 
ATOM     19  C   UNL     1       7.461   5.249  13.926  0.00  0.00    +0.000 A 
ENDBRANCH  12  14
ENDBRANCH   2  12
BRANCH   1  20
ATOM     20  C   UNL     1       7.814   5.910  18.818  0.00  0.00    +0.000 C 
ATOM     21  O   UNL     1       8.109   7.035  18.443  0.00  0.00    +0.000 OA
BRANCH  20  22
ATOM     22  OXT UNL     1       8.232   5.409  19.999  0.00  0.00    +0.000 OA
ATOM     23  HXT UNL     1       7.524   4.917  20.455  0.00  0.00    +0.000 HD
ENDBRANCH  20  22
ENDBRANCH   1  20
TORSDOF 6
ENDMDL
MODEL 2
REMARK VINA RESULT:      -8.1      0.391      1.524
REMARK  Name = 
REMARK  7 active torsions:
REMARK  status: ('A' for Active; 'I' for Inactive)
REMARK    1  A    between atoms: C_1  and  C_2
REMARK    2  A    between atoms: C_5  and  N_6
REMARK    3  A    between atoms: N_6  and  CA_7
REMARK    4  A    between atoms: CA_7  and  C_17
REMARK    5  A    between atoms: C_8  and  C_9
REMARK    6  A    between atoms: C_9  and  C_11
REMARK    7  A    between atoms: C_17  and  OXT_19
REMARK                            x       y       z     vdW  Elec       q    Type
REMARK                         _______ _______ _______ _____ _____    ______ ____
ROOT
ATOM      1  CA  UNL     1       6.830   5.034  18.123  0.00  0.00    +0.000 C 
ATOM      2  C   UNL     1       6.685   5.465  16.858  0.00  0.00    +0.000 C 
ENDROOT
BRANCH   1   3
ATOM      3  N   UNL     1       6.233   3.917  18.696  0.00  0.00    +0.000 N 
ATOM      4  H   UNL     1       6.660   3.042  18.397  0.00  0.00    +0.000 HD
BRANCH   3   9
ATOM      5  C   UNL     1       0.934   3.486  20.817  0.00  0.00    +0.000 C 
ATOM      6  C   UNL     1       2.262   3.613  20.130  0.00  0.00    +0.000 A 
ATOM      7  C   UNL     1       2.904   2.487  19.605  0.00  0.00    +0.000 A 
ATOM      8  C   UNL     1       4.201   2.584  19.087  0.00  0.00    +0.000 A 
ATOM      9  C   UNL     1       4.890   3.801  19.105  0.00  0.00    +0.000 A 
ATOM     10  C   UNL     1       4.210   4.941  19.555  0.00  0.00    +0.000 A 
ATOM     11  C   UNL     1       2.916   4.846  20.078  0.00  0.00    +0.000 A 
ENDBRANCH   3   9
ENDBRANCH   1   3
BRANCH   2  12
ATOM     12  C   UNL     1       5.786   4.816  15.873  0.00  0.00    +0.000 C 
ATOM     13  O   UNL     1       4.636   4.499  16.153  0.00  0.00    +0.000 OA
BRANCH  12  14
ATOM     14  C   UNL     1       6.297   4.648  14.482  0.00  0.00    +0.000 A 
ATOM     15  C   UNL     1       7.429   5.328  14.013  0.00  0.00    +0.000 A 
ATOM     16  C   UNL     1       7.906   5.086  12.722  0.00  0.00    +0.000 A 
ATOM     17  C   UNL     1       7.256   4.170  11.895  0.00  0.00    +0.000 A 
ATOM     18  C   UNL     1       6.122   3.501  12.351  0.00  0.00    +0.000 A 
ATOM     19  C   UNL     1       5.643   3.737  13.642  0.00  0.00    +0.000 A 
ENDBRANCH  12  14
ENDBRANCH   2  12
BRANCH   1  20
ATOM     20  C   UNL     1       7.669   5.956  18.975  0.00  0.00    +0.000 C 
ATOM     21  O   UNL     1       8.145   7.012  18.585  0.00  0.00    +0.000 OA
BRANCH  20  22
ATOM     22  OXT UNL     1       7.835   5.512  20.237  0.00  0.00    +0.000 OA
ATOM     23  HXT UNL     1       7.596   4.570  20.326  0.00  0.00    +0.000 HD
ENDBRANCH  20  22
ENDBRANCH   1  20
TORSDOF 6
ENDMDL
MODEL 3
REMARK VINA RESULT:      -7.9      0.258      1.288
REMARK  Name = 
REMARK  7 active torsions:
REMARK  status: ('A' for Active; 'I' for Inactive)
REMARK    1  A    between atoms: C_1  and  C_2
REMARK    2  A    between atoms: C_5  and  N_6
REMARK    3  A    between atoms: N_6  and  CA_7
REMARK    4  A    between atoms: CA_7  and  C_17
REMARK    5  A    between atoms: C_8  and  C_9
REMARK    6  A    between atoms: C_9  and  C_11
REMARK    7  A    between atoms: C_17  and  OXT_19
REMARK                            x       y       z     vdW  Elec       q    Type
REMARK                         _______ _______ _______ _____ _____    ______ ____
ROOT
ATOM      1  CA  UNL     1       6.798   4.906  18.021  0.00  0.00    +0.000 C 
ATOM      2  C   UNL     1       6.687   5.325  16.749  0.00  0.00    +0.000 C 
ENDROOT
BRANCH   1   3
ATOM      3  N   UNL     1       6.139   3.829  18.603  0.00  0.00    +0.000 N 
ATOM      4  H   UNL     1       6.393   2.936  18.186  0.00  0.00    +0.000 HD
BRANCH   3   9
ATOM      5  C   UNL     1       0.782   3.783  20.617  0.00  0.00    +0.000 C 
ATOM      6  C   UNL     1       2.230   3.810  20.227  0.00  0.00    +0.000 A 
ATOM      7  C   UNL     1       2.882   5.024  19.987  0.00  0.00    +0.000 A 
ATOM      8  C   UNL     1       4.191   5.043  19.492  0.00  0.00    +0.000 A 
ATOM      9  C   UNL     1       4.866   3.851  19.205  0.00  0.00    +0.000 A 
ATOM     10  C   UNL     1       4.237   2.640  19.526  0.00  0.00    +0.000 A 
ATOM     11  C   UNL     1       2.928   2.618  20.016  0.00  0.00    +0.000 A 
ENDBRANCH   3   9
ENDBRANCH   1   3
BRANCH   2  12
ATOM     12  C   UNL     1       5.764   4.709  15.764  0.00  0.00    +0.000 C 
ATOM     13  O   UNL     1       4.610   4.412  16.052  0.00  0.00    +0.000 OA
BRANCH  12  14
ATOM     14  C   UNL     1       6.257   4.550  14.366  0.00  0.00    +0.000 A 
ATOM     15  C   UNL     1       7.392   5.221  13.892  0.00  0.00    +0.000 A 
ATOM     16  C   UNL     1       7.851   4.987  12.592  0.00  0.00    +0.000 A 
ATOM     17  C   UNL     1       7.181   4.087  11.764  0.00  0.00    +0.000 A 
ATOM     18  C   UNL     1       6.043   3.428  12.225  0.00  0.00    +0.000 A 
ATOM     19  C   UNL     1       5.583   3.656  13.524  0.00  0.00    +0.000 A 
ENDBRANCH  12  14
ENDBRANCH   2  12
BRANCH   1  20
ATOM     20  C   UNL     1       7.676   5.796  18.868  0.00  0.00    +0.000 C 
ATOM     21  O   UNL     1       8.126   5.483  19.960  0.00  0.00    +0.000 OA
BRANCH  20  22
ATOM     22  OXT UNL     1       7.940   6.986  18.291  0.00  0.00    +0.000 OA
ATOM     23  HXT UNL     1       7.187   7.603  18.366  0.00  0.00    +0.000 HD
ENDBRANCH  20  22
ENDBRANCH   1  20
TORSDOF 6
ENDMDL
MODEL 4
REMARK VINA RESULT:      -7.9      0.837      1.835
REMARK  Name = 
REMARK  7 active torsions:
REMARK  status: ('A' for Active; 'I' for Inactive)
REMARK    1  A    between atoms: C_1  and  C_2
REMARK    2  A    between atoms: C_5  and  N_6
REMARK    3  A    between atoms: N_6  and  CA_7
REMARK    4  A    between atoms: CA_7  and  C_17
REMARK    5  A    between atoms: C_8  and  C_9
REMARK    6  A    between atoms: C_9  and  C_11
REMARK    7  A    between atoms: C_17  and  OXT_19
REMARK                            x       y       z     vdW  Elec       q    Type
REMARK                         _______ _______ _______ _____ _____    ______ ____
ROOT
ATOM      1  CA  UNL     1       6.247   5.377  18.193  0.00  0.00    +0.000 C 
ATOM      2  C   UNL     1       6.672   4.748  17.083  0.00  0.00    +0.000 C 
ENDROOT
BRANCH   1   3
ATOM      3  N   UNL     1       4.934   5.691  18.520  0.00  0.00    +0.000 N 
ATOM      4  H   UNL     1       4.780   6.692  18.626  0.00  0.00    +0.000 HD
BRANCH   3   9
ATOM      5  C   UNL     1       1.425   2.634  21.852  0.00  0.00    +0.000 C 
ATOM      6  C   UNL     1       2.274   3.380  20.865  0.00  0.00    +0.000 A 
ATOM      7  C   UNL     1       3.415   2.789  20.314  0.00  0.00    +0.000 A 
ATOM      8  C   UNL     1       4.279   3.531  19.501  0.00  0.00    +0.000 A 
ATOM      9  C   UNL     1       4.033   4.883  19.241  0.00  0.00    +0.000 A 
ATOM     10  C   UNL     1       2.844   5.446  19.726  0.00  0.00    +0.000 A 
ATOM     11  C   UNL     1       1.982   4.708  20.544  0.00  0.00    +0.000 A 
ENDBRANCH   3   9
ENDBRANCH   1   3
BRANCH   2  12
ATOM     12  C   UNL     1       5.768   4.339  15.981  0.00  0.00    +0.000 C 
ATOM     13  O   UNL     1       4.599   4.029  16.180  0.00  0.00    +0.000 OA
BRANCH  12  14
ATOM     14  C   UNL     1       6.302   4.411  14.591  0.00  0.00    +0.000 A 
ATOM     15  C   UNL     1       7.386   5.231  14.247  0.00  0.00    +0.000 A 
ATOM     16  C   UNL     1       7.891   5.214  12.943  0.00  0.00    +0.000 A 
ATOM     17  C   UNL     1       7.318   4.382  11.981  0.00  0.00    +0.000 A 
ATOM     18  C   UNL     1       6.232   3.574  12.314  0.00  0.00    +0.000 A 
ATOM     19  C   UNL     1       5.726   3.586  13.616  0.00  0.00    +0.000 A 
ENDBRANCH  12  14
ENDBRANCH   2  12
BRANCH   1  20
ATOM     20  C   UNL     1       7.375   5.837  19.086  0.00  0.00    +0.000 C 
ATOM     21  O   UNL     1       7.672   5.311  20.148  0.00  0.00    +0.000 OA
BRANCH  20  22
ATOM     22  OXT UNL     1       8.053   6.891  18.587  0.00  0.00    +0.000 OA
ATOM     23  HXT UNL     1       8.947   6.640  18.289  0.00  0.00    +0.000 HD
ENDBRANCH  20  22
ENDBRANCH   1  20
TORSDOF 6
ENDMDL
MODEL 5
REMARK VINA RESULT:      -7.9      1.618      6.212
REMARK  Name = 
REMARK  7 active torsions:
REMARK  status: ('A' for Active; 'I' for Inactive)
REMARK    1  A    between atoms: C_1  and  C_2
REMARK    2  A    between atoms: C_5  and  N_6
REMARK    3  A    between atoms: N_6  and  CA_7
REMARK    4  A    between atoms: CA_7  and  C_17
REMARK    5  A    between atoms: C_8  and  C_9
REMARK    6  A    between atoms: C_9  and  C_11
REMARK    7  A    between atoms: C_17  and  OXT_19
REMARK                            x       y       z     vdW  Elec       q    Type
REMARK                         _______ _______ _______ _____ _____    ______ ____
ROOT
ATOM      1  CA  UNL     1       6.412   5.619  17.696  0.00  0.00    +0.000 C 
ATOM      2  C   UNL     1       5.370   5.557  18.543  0.00  0.00    +0.000 C 
ENDROOT
BRANCH   1   3
ATOM      3  N   UNL     1       6.403   6.116  16.398  0.00  0.00    +0.000 N 
ATOM      4  H   UNL     1       6.016   7.056  16.337  0.00  0.00    +0.000 HD
BRANCH   3   9
ATOM      5  C   UNL     1       6.058   2.658  11.851  0.00  0.00    +0.000 C 
ATOM      6  C   UNL     1       6.098   3.671  12.957  0.00  0.00    +0.000 A 
ATOM      7  C   UNL     1       7.219   4.487  13.138  0.00  0.00    +0.000 A 
ATOM      8  C   UNL     1       7.311   5.333  14.249  0.00  0.00    +0.000 A 
ATOM      9  C   UNL     1       6.297   5.363  15.213  0.00  0.00    +0.000 A 
ATOM     10  C   UNL     1       5.141   4.605  14.982  0.00  0.00    +0.000 A 
ATOM     11  C   UNL     1       5.049   3.755  13.876  0.00  0.00    +0.000 A 
ENDBRANCH   3   9
ENDBRANCH   1   3
BRANCH   2  12
ATOM     12  C   UNL     1       3.994   5.973  18.175  0.00  0.00    +0.000 C 
ATOM     13  O   UNL     1       3.780   6.926  17.434  0.00  0.00    +0.000 OA
BRANCH  12  14
ATOM     14  C   UNL     1       2.867   5.127  18.660  0.00  0.00    +0.000 A 
ATOM     15  C   UNL     1       2.297   4.117  17.873  0.00  0.00    +0.000 A 
ATOM     16  C   UNL     1       1.286   3.307  18.398  0.00  0.00    +0.000 A 
ATOM     17  C   UNL     1       0.840   3.503  19.706  0.00  0.00    +0.000 A 
ATOM     18  C   UNL     1       1.393   4.514  20.488  0.00  0.00    +0.000 A 
ATOM     19  C   UNL     1       2.406   5.324  19.969  0.00  0.00    +0.000 A 
ENDBRANCH  12  14
ENDBRANCH   2  12
BRANCH   1  20
ATOM     20  C   UNL     1       7.666   4.983  18.248  0.00  0.00    +0.000 C 
ATOM     21  O   UNL     1       8.147   5.243  19.341  0.00  0.00    +0.000 OA
BRANCH  20  22
ATOM     22  OXT UNL     1       8.211   4.071  17.417  0.00  0.00    +0.000 OA
ATOM     23  HXT UNL     1       7.545   3.678  16.821  0.00  0.00    +0.000 HD
ENDBRANCH  20  22
ENDBRANCH   1  20
TORSDOF 6
ENDMDL
MODEL 6
REMARK VINA RESULT:      -7.9      1.574      6.219
REMARK  Name = 
REMARK  7 active torsions:
REMARK  status: ('A' for Active; 'I' for Inactive)
REMARK    1  A    between atoms: C_1  and  C_2
REMARK    2  A    between atoms: C_5  and  N_6
REMARK    3  A    between atoms: N_6  and  CA_7
REMARK    4  A    between atoms: CA_7  and  C_17
REMARK    5  A    between atoms: C_8  and  C_9
REMARK    6  A    between atoms: C_9  and  C_11
REMARK    7  A    between atoms: C_17  and  OXT_19
REMARK                            x       y       z     vdW  Elec       q    Type
REMARK                         _______ _______ _______ _____ _____    ______ ____
ROOT
ATOM      1  CA  UNL     1       6.482   5.598  17.904  0.00  0.00    +0.000 C 
ATOM      2  C   UNL     1       5.460   5.486  18.769  0.00  0.00    +0.000 C 
ENDROOT
BRANCH   1   3
ATOM      3  N   UNL     1       6.433   6.132  16.621  0.00  0.00    +0.000 N 
ATOM      4  H   UNL     1       6.022   7.064  16.595  0.00  0.00    +0.000 HD
BRANCH   3   9
ATOM      5  C   UNL     1       6.044   2.794  11.989  0.00  0.00    +0.000 C 
ATOM      6  C   UNL     1       6.101   3.779  13.119  0.00  0.00    +0.000 A 
ATOM      7  C   UNL     1       7.247   4.550  13.338  0.00  0.00    +0.000 A 
ATOM      8  C   UNL     1       7.350   5.366  14.469  0.00  0.00    +0.000 A 
ATOM      9  C   UNL     1       6.321   5.411  15.417  0.00  0.00    +0.000 A 
ATOM     10  C   UNL     1       5.143   4.701  15.149  0.00  0.00    +0.000 A 
ATOM     11  C   UNL     1       5.039   3.880  14.022  0.00  0.00    +0.000 A 
ENDBRANCH   3   9
ENDBRANCH   1   3
BRANCH   2  12
ATOM     12  C   UNL     1       4.067   5.877  18.442  0.00  0.00    +0.000 C 
ATOM     13  O   UNL     1       3.813   6.845  17.733  0.00  0.00    +0.000 OA
BRANCH  12  14
ATOM     14  C   UNL     1       2.972   4.989  18.924  0.00  0.00    +0.000 A 
ATOM     15  C   UNL     1       2.508   5.022  20.246  0.00  0.00    +0.000 A 
ATOM     16  C   UNL     1       1.433   4.215  20.632  0.00  0.00    +0.000 A 
ATOM     17  C   UNL     1       0.822   3.373  19.704  0.00  0.00    +0.000 A 
ATOM     18  C   UNL     1       1.288   3.325  18.391  0.00  0.00    +0.000 A 
ATOM     19  C   UNL     1       2.358   4.132  18.000  0.00  0.00    +0.000 A 
ENDBRANCH  12  14
ENDBRANCH   2  12
BRANCH   1  20
ATOM     20  C   UNL     1       7.763   4.980  18.411  0.00  0.00    +0.000 C 
ATOM     21  O   UNL     1       8.401   4.127  17.813  0.00  0.00    +0.000 OA
BRANCH  20  22
ATOM     22  OXT UNL     1       8.160   5.478  19.601  0.00  0.00    +0.000 OA
ATOM     23  HXT UNL     1       7.710   5.039  20.347  0.00  0.00    +0.000 HD
ENDBRANCH  20  22
ENDBRANCH   1  20
TORSDOF 6
ENDMDL
MODEL 7
REMARK VINA RESULT:      -7.8      3.239      6.297
REMARK  Name = 
REMARK  7 active torsions:
REMARK  status: ('A' for Active; 'I' for Inactive)
REMARK    1  A    between atoms: C_1  and  C_2
REMARK    2  A    between atoms: C_5  and  N_6
REMARK    3  A    between atoms: N_6  and  CA_7
REMARK    4  A    between atoms: CA_7  and  C_17
REMARK    5  A    between atoms: C_8  and  C_9
REMARK    6  A    between atoms: C_9  and  C_11
REMARK    7  A    between atoms: C_17  and  OXT_19
REMARK                            x       y       z     vdW  Elec       q    Type
REMARK                         _______ _______ _______ _____ _____    ______ ____
ROOT
ATOM      1  CA  UNL     1       4.057   2.883  18.631  0.00  0.00    +0.000 C 
ATOM      2  C   UNL     1       2.855   3.314  19.053  0.00  0.00    +0.000 C 
ENDROOT
BRANCH   1   3
ATOM      3  N   UNL     1       4.759   3.333  17.519  0.00  0.00    +0.000 N 
ATOM      4  H   UNL     1       5.069   2.576  16.913  0.00  0.00    +0.000 HD
BRANCH   3   9
ATOM      5  C   UNL     1       7.764   8.202  17.630  0.00  0.00    +0.000 C 
ATOM      6  C   UNL     1       7.051   6.891  17.481  0.00  0.00    +0.000 A 
ATOM      7  C   UNL     1       5.907   6.787  16.684  0.00  0.00    +0.000 A 
ATOM      8  C   UNL     1       5.165   5.601  16.653  0.00  0.00    +0.000 A 
ATOM      9  C   UNL     1       5.538   4.503  17.437  0.00  0.00    +0.000 A 
ATOM     10  C   UNL     1       6.731   4.586  18.168  0.00  0.00    +0.000 A 
ATOM     11  C   UNL     1       7.471   5.772  18.205  0.00  0.00    +0.000 A 
ENDBRANCH   3   9
ENDBRANCH   1   3
BRANCH   2  12
ATOM     12  C   UNL     1       2.051   4.328  18.328  0.00  0.00    +0.000 C 
ATOM     13  O   UNL     1       1.428   4.056  17.309  0.00  0.00    +0.000 OA
BRANCH  12  14
ATOM     14  C   UNL     1       1.942   5.683  18.939  0.00  0.00    +0.000 A 
ATOM     15  C   UNL     1       1.637   5.871  20.294  0.00  0.00    +0.000 A 
ATOM     16  C   UNL     1       1.611   7.160  20.834  0.00  0.00    +0.000 A 
ATOM     17  C   UNL     1       1.886   8.264  20.026  0.00  0.00    +0.000 A 
ATOM     18  C   UNL     1       2.176   8.084  18.674  0.00  0.00    +0.000 A 
ATOM     19  C   UNL     1       2.207   6.797  18.132  0.00  0.00    +0.000 A 
ENDBRANCH  12  14
ENDBRANCH   2  12
BRANCH   1  20
ATOM     20  C   UNL     1       4.597   1.732  19.446  0.00  0.00    +0.000 C 
ATOM     21  O   UNL     1       5.048   1.839  20.577  0.00  0.00    +0.000 OA
BRANCH  20  22
ATOM     22  OXT UNL     1       4.519   0.546  18.808  0.00  0.00    +0.000 OA
ATOM     23  HXT UNL     1       4.086  -0.135  19.358  0.00  0.00    +0.000 HD
ENDBRANCH  20  22
ENDBRANCH   1  20
TORSDOF 6
ENDMDL
MODEL 8
REMARK VINA RESULT:      -7.8      0.439      1.311
REMARK  Name = 
REMARK  7 active torsions:
REMARK  status: ('A' for Active; 'I' for Inactive)
REMARK    1  A    between atoms: C_1  and  C_2
REMARK    2  A    between atoms: C_5  and  N_6
REMARK    3  A    between atoms: N_6  and  CA_7
REMARK    4  A    between atoms: CA_7  and  C_17
REMARK    5  A    between atoms: C_8  and  C_9
REMARK    6  A    between atoms: C_9  and  C_11
REMARK    7  A    between atoms: C_17  and  OXT_19
REMARK                            x       y       z     vdW  Elec       q    Type
REMARK                         _______ _______ _______ _____ _____    ______ ____
ROOT
ATOM      1  CA  UNL     1       6.721   4.850  18.097  0.00  0.00    +0.000 C 
ATOM      2  C   UNL     1       6.626   5.296  16.832  0.00  0.00    +0.000 C 
ENDROOT
BRANCH   1   3
ATOM      3  N   UNL     1       6.090   3.735  18.636  0.00  0.00    +0.000 N 
ATOM      4  H   UNL     1       6.477   2.857  18.295  0.00  0.00    +0.000 HD
BRANCH   3   9
ATOM      5  C   UNL     1       0.817   3.432  20.839  0.00  0.00    +0.000 C 
ATOM      6  C   UNL     1       2.136   3.531  20.132  0.00  0.00    +0.000 A 
ATOM      7  C   UNL     1       2.729   2.397  19.567  0.00  0.00    +0.000 A 
ATOM      8  C   UNL     1       4.020   2.463  19.029  0.00  0.00    +0.000 A 
ATOM      9  C   UNL     1       4.751   3.655  19.066  0.00  0.00    +0.000 A 
ATOM     10  C   UNL     1       4.119   4.805  19.557  0.00  0.00    +0.000 A 
ATOM     11  C   UNL     1       2.832   4.741  20.101  0.00  0.00    +0.000 A 
ENDBRANCH   3   9
ENDBRANCH   1   3
BRANCH   2  12
ATOM     12  C   UNL     1       5.754   4.668  15.809  0.00  0.00    +0.000 C 
ATOM     13  O   UNL     1       4.588   4.373  16.042  0.00  0.00    +0.000 OA
BRANCH  12  14
ATOM     14  C   UNL     1       6.316   4.495  14.439  0.00  0.00    +0.000 A 
ATOM     15  C   UNL     1       5.755   3.615  13.505  0.00  0.00    +0.000 A 
ATOM     16  C   UNL     1       6.280   3.538  12.211  0.00  0.00    +0.000 A 
ATOM     17  C   UNL     1       7.365   4.335  11.847  0.00  0.00    +0.000 A 
ATOM     18  C   UNL     1       7.936   5.203  12.776  0.00  0.00    +0.000 A 
ATOM     19  C   UNL     1       7.413   5.285  14.068  0.00  0.00    +0.000 A 
ENDBRANCH  12  14
ENDBRANCH   2  12
BRANCH   1  20
ATOM     20  C   UNL     1       7.540   5.753  18.987  0.00  0.00    +0.000 C 
ATOM     21  O   UNL     1       7.809   5.511  20.154  0.00  0.00    +0.000 OA
BRANCH  20  22
ATOM     22  OXT UNL     1       7.976   6.866  18.361  0.00  0.00    +0.000 OA
ATOM     23  HXT UNL     1       8.011   7.632  18.964  0.00  0.00    +0.000 HD
ENDBRANCH  20  22
ENDBRANCH   1  20
TORSDOF 6
ENDMDL
MODEL 9
REMARK VINA RESULT:      -7.7      2.920      4.692
REMARK  Name = 
REMARK  7 active torsions:
REMARK  status: ('A' for Active; 'I' for Inactive)
REMARK    1  A    between atoms: C_1  and  C_2
REMARK    2  A    between atoms: C_5  and  N_6
REMARK    3  A    between atoms: N_6  and  CA_7
REMARK    4  A    between atoms: CA_7  and  C_17
REMARK    5  A    between atoms: C_8  and  C_9
REMARK    6  A    between atoms: C_9  and  C_11
REMARK    7  A    between atoms: C_17  and  OXT_19
REMARK                            x       y       z     vdW  Elec       q    Type
REMARK                         _______ _______ _______ _____ _____    ______ ____
ROOT
ATOM      1  CA  UNL     1       2.888   3.992  19.613  0.00  0.00    +0.000 C 
ATOM      2  C   UNL     1       3.865   3.469  18.851  0.00  0.00    +0.000 C 
ENDROOT
BRANCH   1   3
ATOM      3  N   UNL     1       2.910   5.217  20.270  0.00  0.00    +0.000 N 
ATOM      4  H   UNL     1       2.860   5.124  21.282  0.00  0.00    +0.000 HD
BRANCH   3   9
ATOM      5  C   UNL     1       1.428  10.363  18.252  0.00  0.00    +0.000 C 
ATOM      6  C   UNL     1       1.681   8.971  18.749  0.00  0.00    +0.000 A 
ATOM      7  C   UNL     1       1.380   8.618  20.069  0.00  0.00    +0.000 A 
ATOM      8  C   UNL     1       1.742   7.362  20.570  0.00  0.00    +0.000 A 
ATOM      9  C   UNL     1       2.432   6.444  19.771  0.00  0.00    +0.000 A 
ATOM     10  C   UNL     1       2.656   6.772  18.427  0.00  0.00    +0.000 A 
ATOM     11  C   UNL     1       2.300   8.028  17.925  0.00  0.00    +0.000 A 
ENDBRANCH   3   9
ENDBRANCH   1   3
BRANCH   2  12
ATOM     12  C   UNL     1       5.179   4.126  18.646  0.00  0.00    +0.000 C 
ATOM     13  O   UNL     1       5.902   4.441  19.584  0.00  0.00    +0.000 OA
BRANCH  12  14
ATOM     14  C   UNL     1       5.646   4.303  17.242  0.00  0.00    +0.000 A 
ATOM     15  C   UNL     1       4.783   4.185  16.145  0.00  0.00    +0.000 A 
ATOM     16  C   UNL     1       5.257   4.426  14.851  0.00  0.00    +0.000 A 
ATOM     17  C   UNL     1       6.590   4.783  14.649  0.00  0.00    +0.000 A 
ATOM     18  C   UNL     1       7.456   4.889  15.735  0.00  0.00    +0.000 A 
ATOM     19  C   UNL     1       6.987   4.652  17.029  0.00  0.00    +0.000 A 
ENDBRANCH  12  14
ENDBRANCH   2  12
BRANCH   1  20
ATOM     20  C   UNL     1       1.715   3.059  19.800  0.00  0.00    +0.000 C 
ATOM     21  O   UNL     1       1.653   1.928  19.341  0.00  0.00    +0.000 OA
BRANCH  20  22
ATOM     22  OXT UNL     1       0.728   3.589  20.552  0.00  0.00    +0.000 OA
ATOM     23  HXT UNL     1      -0.123   3.607  20.075  0.00  0.00    +0.000 HD
ENDBRANCH  20  22
ENDBRANCH   1  20
TORSDOF 6
ENDMDL
