MODEL 1
REMARK VINA RESULT:      -6.2      0.000      0.000
REMARK  Name = 
REMARK  9 active torsions:
REMARK  status: ('A' for Active; 'I' for Inactive)
REMARK    1  A    between atoms: C_1  and  C_2
REMARK    2  A    between atoms: C_2  and  C_3
REMARK    3  A    between atoms: C_3  and  C_4
REMARK    4  A    between atoms: C_4  and  C_5
REMARK    5  A    between atoms: C_5  and  C_6
REMARK    6  A    between atoms: C_6  and  C_7
REMARK    7  A    between atoms: C_7  and  C_8
REMARK    8  A    between atoms: C_8  and  N_9
REMARK    9  A    between atoms: C_10  and  C_12
REMARK                            x       y       z     vdW  Elec       q    Type
REMARK                         _______ _______ _______ _____ _____    ______ ____
ROOT
ATOM      1  N   UNL     1       6.343   4.252  16.923  0.00  0.00    +0.000 N 
ATOM      2  C   UNL     1       6.347   5.240  15.944  0.00  0.00    +0.000 C 
ATOM      3  O   UNL     1       6.115   6.410  16.191  0.00  0.00    +0.000 OA
ATOM      4  H   UNL     1       6.721   3.338  16.706  0.00  0.00    +0.000 HD
ENDROOT
BRANCH   2   5
ATOM      5  C   UNL     1       6.688   4.819  14.555  0.00  0.00    +0.000 A 
ATOM      6  C   UNL     1       5.969   3.800  13.929  0.00  0.00    +0.000 A 
ATOM      7  N   UNL     1       6.187   3.444  12.631  0.00  0.00    +0.000 NA
ATOM      8  C   UNL     1       7.143   4.154  11.993  0.00  0.00    +0.000 A 
ATOM      9  C   UNL     1       7.874   5.151  12.623  0.00  0.00    +0.000 A 
ATOM     10  N   UNL     1       7.676   5.506  13.916  0.00  0.00    +0.000 NA
ENDBRANCH   2   5
BRANCH   1  11
ATOM     11  C   UNL     1       6.025   4.601  18.290  0.00  0.00    +0.000 C 
BRANCH  11  12
ATOM     12  C   UNL     1       4.531   4.485  18.565  0.00  0.00    +0.000 C 
BRANCH  12  13
ATOM     13  C   UNL     1       3.981   3.165  18.037  0.00  0.00    +0.000 C 
BRANCH  13  14
ATOM     14  C   UNL     1       2.729   3.395  17.196  0.00  0.00    +0.000 C 
BRANCH  14  15
ATOM     15  C   UNL     1       1.635   4.064  18.021  0.00  0.00    +0.000 C 
BRANCH  15  16
ATOM     16  C   UNL     1       1.055   3.086  19.036  0.00  0.00    +0.000 C 
BRANCH  16  18
ATOM     17  C   UNL     1       1.601   2.750  21.456  0.00  0.00    +0.000 C 
ATOM     18  C   UNL     1       1.017   3.704  20.429  0.00  0.00    +0.000 C 
ENDBRANCH  16  18
ENDBRANCH  15  16
ENDBRANCH  14  15
ENDBRANCH  13  14
ENDBRANCH  12  13
ENDBRANCH  11  12
ENDBRANCH   1  11
TORSDOF 8
ENDMDL
MODEL 2
REMARK VINA RESULT:      -6.1      0.892      1.007
REMARK  Name = 
REMARK  9 active torsions:
REMARK  status: ('A' for Active; 'I' for Inactive)
REMARK    1  A    between atoms: C_1  and  C_2
REMARK    2  A    between atoms: C_2  and  C_3
REMARK    3  A    between atoms: C_3  and  C_4
REMARK    4  A    between atoms: C_4  and  C_5
REMARK    5  A    between atoms: C_5  and  C_6
REMARK    6  A    between atoms: C_6  and  C_7
REMARK    7  A    between atoms: C_7  and  C_8
REMARK    8  A    between atoms: C_8  and  N_9
REMARK    9  A    between atoms: C_10  and  C_12
REMARK                            x       y       z     vdW  Elec       q    Type
REMARK                         _______ _______ _______ _____ _____    ______ ____
ROOT
ATOM      1  N   UNL     1       5.869   4.226  17.208  0.00  0.00    +0.000 N 
ATOM      2  C   UNL     1       6.845   4.929  16.508  0.00  0.00    +0.000 C 
ATOM      3  O   UNL     1       7.619   5.696  17.052  0.00  0.00    +0.000 OA
ATOM      4  H   UNL     1       5.380   3.468  16.748  0.00  0.00    +0.000 HD
ENDROOT
BRANCH   2   5
ATOM      5  C   UNL     1       6.942   4.679  15.042  0.00  0.00    +0.000 A 
ATOM      6  C   UNL     1       6.077   3.777  14.420  0.00  0.00    +0.000 A 
ATOM      7  N   UNL     1       6.069   3.585  13.070  0.00  0.00    +0.000 NA
ATOM      8  C   UNL     1       6.953   4.336  12.377  0.00  0.00    +0.000 A 
ATOM      9  C   UNL     1       7.828   5.216  12.998  0.00  0.00    +0.000 A 
ATOM     10  N   UNL     1       7.855   5.407  14.340  0.00  0.00    +0.000 NA
ENDBRANCH   2   5
BRANCH   1  11
ATOM     11  C   UNL     1       5.732   4.422  18.634  0.00  0.00    +0.000 C 
BRANCH  11  12
ATOM     12  C   UNL     1       4.491   5.238  18.970  0.00  0.00    +0.000 C 
BRANCH  12  13
ATOM     13  C   UNL     1       3.614   5.430  17.737  0.00  0.00    +0.000 C 
BRANCH  13  14
ATOM     14  C   UNL     1       2.180   4.989  18.016  0.00  0.00    +0.000 C 
BRANCH  14  15
ATOM     15  C   UNL     1       1.965   3.538  17.599  0.00  0.00    +0.000 C 
BRANCH  15  16
ATOM     16  C   UNL     1       1.625   2.677  18.809  0.00  0.00    +0.000 C 
BRANCH  16  18
ATOM     17  C   UNL     1       1.434   3.028  21.281  0.00  0.00    +0.000 C 
ATOM     18  C   UNL     1       0.990   3.514  19.914  0.00  0.00    +0.000 C 
ENDBRANCH  16  18
ENDBRANCH  15  16
ENDBRANCH  14  15
ENDBRANCH  13  14
ENDBRANCH  12  13
ENDBRANCH  11  12
ENDBRANCH   1  11
TORSDOF 8
ENDMDL
MODEL 3
REMARK VINA RESULT:      -6.0      0.850      1.118
REMARK  Name = 
REMARK  9 active torsions:
REMARK  status: ('A' for Active; 'I' for Inactive)
REMARK    1  A    between atoms: C_1  and  C_2
REMARK    2  A    between atoms: C_2  and  C_3
REMARK    3  A    between atoms: C_3  and  C_4
REMARK    4  A    between atoms: C_4  and  C_5
REMARK    5  A    between atoms: C_5  and  C_6
REMARK    6  A    between atoms: C_6  and  C_7
REMARK    7  A    between atoms: C_7  and  C_8
REMARK    8  A    between atoms: C_8  and  N_9
REMARK    9  A    between atoms: C_10  and  C_12
REMARK                            x       y       z     vdW  Elec       q    Type
REMARK                         _______ _______ _______ _____ _____    ______ ____
ROOT
ATOM      1  N   UNL     1       6.090   4.054  16.802  0.00  0.00    +0.000 N 
ATOM      2  C   UNL     1       6.389   5.115  15.953  0.00  0.00    +0.000 C 
ATOM      3  O   UNL     1       6.392   6.274  16.327  0.00  0.00    +0.000 OA
ATOM      4  H   UNL     1       6.282   3.107  16.499  0.00  0.00    +0.000 HD
ENDROOT
BRANCH   2   5
ATOM      5  C   UNL     1       6.754   4.778  14.548  0.00  0.00    +0.000 A 
ATOM      6  C   UNL     1       6.053   3.791  13.854  0.00  0.00    +0.000 A 
ATOM      7  N   UNL     1       6.291   3.513  12.540  0.00  0.00    +0.000 NA
ATOM      8  C   UNL     1       7.250   4.267  11.957  0.00  0.00    +0.000 A 
ATOM      9  C   UNL     1       7.962   5.231  12.655  0.00  0.00    +0.000 A 
ATOM     10  N   UNL     1       7.744   5.509  13.964  0.00  0.00    +0.000 NA
ENDBRANCH   2   5
BRANCH   1  11
ATOM     11  C   UNL     1       5.735   4.318  18.179  0.00  0.00    +0.000 C 
BRANCH  11  12
ATOM     12  C   UNL     1       4.362   3.754  18.522  0.00  0.00    +0.000 C 
BRANCH  12  13
ATOM     13  C   UNL     1       3.273   4.433  17.698  0.00  0.00    +0.000 C 
BRANCH  13  14
ATOM     14  C   UNL     1       2.544   5.487  18.524  0.00  0.00    +0.000 C 
BRANCH  14  15
ATOM     15  C   UNL     1       2.630   5.169  20.013  0.00  0.00    +0.000 C 
BRANCH  15  16
ATOM     16  C   UNL     1       1.256   4.807  20.564  0.00  0.00    +0.000 C 
BRANCH  16  18
ATOM     17  C   UNL     1       1.822   2.605  21.613  0.00  0.00    +0.000 C 
ATOM     18  C   UNL     1       1.030   3.300  20.521  0.00  0.00    +0.000 C 
ENDBRANCH  16  18
ENDBRANCH  15  16
ENDBRANCH  14  15
ENDBRANCH  13  14
ENDBRANCH  12  13
ENDBRANCH  11  12
ENDBRANCH   1  11
TORSDOF 8
ENDMDL
MODEL 4
REMARK VINA RESULT:      -5.9      1.744      3.128
REMARK  Name = 
REMARK  9 active torsions:
REMARK  status: ('A' for Active; 'I' for Inactive)
REMARK    1  A    between atoms: C_1  and  C_2
REMARK    2  A    between atoms: C_2  and  C_3
REMARK    3  A    between atoms: C_3  and  C_4
REMARK    4  A    between atoms: C_4  and  C_5
REMARK    5  A    between atoms: C_5  and  C_6
REMARK    6  A    between atoms: C_6  and  C_7
REMARK    7  A    between atoms: C_7  and  C_8
REMARK    8  A    between atoms: C_8  and  N_9
REMARK    9  A    between atoms: C_10  and  C_12
REMARK                            x       y       z     vdW  Elec       q    Type
REMARK                         _______ _______ _______ _____ _____    ______ ____
ROOT
ATOM      1  N   UNL     1       4.282   5.537  18.379  0.00  0.00    +0.000 N 
ATOM      2  C   UNL     1       5.357   4.698  18.100  0.00  0.00    +0.000 C 
ATOM      3  O   UNL     1       5.859   3.974  18.940  0.00  0.00    +0.000 OA
ATOM      4  H   UNL     1       3.783   5.974  17.614  0.00  0.00    +0.000 HD
ENDROOT
BRANCH   2   5
ATOM      5  C   UNL     1       5.862   4.686  16.697  0.00  0.00    +0.000 A 
ATOM      6  C   UNL     1       7.219   4.872  16.433  0.00  0.00    +0.000 A 
ATOM      7  N   UNL     1       7.738   4.778  15.176  0.00  0.00    +0.000 NA
ATOM      8  C   UNL     1       6.845   4.485  14.205  0.00  0.00    +0.000 A 
ATOM      9  C   UNL     1       5.492   4.323  14.465  0.00  0.00    +0.000 A 
ATOM     10  N   UNL     1       4.961   4.425  15.709  0.00  0.00    +0.000 NA
ENDBRANCH   2   5
BRANCH   1  11
ATOM     11  C   UNL     1       3.745   5.587  19.721  0.00  0.00    +0.000 C 
BRANCH  11  12
ATOM     12  C   UNL     1       2.260   5.928  19.717  0.00  0.00    +0.000 C 
BRANCH  12  13
ATOM     13  C   UNL     1       1.560   5.324  20.931  0.00  0.00    +0.000 C 
BRANCH  13  14
ATOM     14  C   UNL     1       2.188   3.987  21.311  0.00  0.00    +0.000 C 
BRANCH  14  15
ATOM     15  C   UNL     1       1.197   2.845  21.116  0.00  0.00    +0.000 C 
BRANCH  15  16
ATOM     16  C   UNL     1       1.003   2.552  19.633  0.00  0.00    +0.000 C 
BRANCH  16  18
ATOM     17  C   UNL     1       2.438   2.540  17.581  0.00  0.00    +0.000 C 
ATOM     18  C   UNL     1       2.292   2.034  19.005  0.00  0.00    +0.000 C 
ENDBRANCH  16  18
ENDBRANCH  15  16
ENDBRANCH  14  15
ENDBRANCH  13  14
ENDBRANCH  12  13
ENDBRANCH  11  12
ENDBRANCH   1  11
TORSDOF 8
ENDMDL
MODEL 5
REMARK VINA RESULT:      -5.9      2.886      4.267
REMARK  Name = 
REMARK  9 active torsions:
REMARK  status: ('A' for Active; 'I' for Inactive)
REMARK    1  A    between atoms: C_1  and  C_2
REMARK    2  A    between atoms: C_2  and  C_3
REMARK    3  A    between atoms: C_3  and  C_4
REMARK    4  A    between atoms: C_4  and  C_5
REMARK    5  A    between atoms: C_5  and  C_6
REMARK    6  A    between atoms: C_6  and  C_7
REMARK    7  A    between atoms: C_7  and  C_8
REMARK    8  A    between atoms: C_8  and  N_9
REMARK    9  A    between atoms: C_10  and  C_12
REMARK                            x       y       z     vdW  Elec       q    Type
REMARK                         _______ _______ _______ _____ _____    ______ ____
ROOT
ATOM      1  N   UNL     1       4.212   2.876  17.722  0.00  0.00    +0.000 N 
ATOM      2  C   UNL     1       5.047   3.456  18.672  0.00  0.00    +0.000 C 
ATOM      3  O   UNL     1       5.090   3.076  19.828  0.00  0.00    +0.000 OA
ATOM      4  H   UNL     1       4.347   3.097  16.743  0.00  0.00    +0.000 HD
ENDROOT
BRANCH   2   5
ATOM      5  C   UNL     1       5.938   4.558  18.210  0.00  0.00    +0.000 A 
ATOM      6  C   UNL     1       5.773   5.116  16.942  0.00  0.00    +0.000 A 
ATOM      7  N   UNL     1       6.504   6.184  16.512  0.00  0.00    +0.000 NA
ATOM      8  C   UNL     1       7.395   6.668  17.407  0.00  0.00    +0.000 A 
ATOM      9  C   UNL     1       7.575   6.098  18.659  0.00  0.00    +0.000 A 
ATOM     10  N   UNL     1       6.863   5.029  19.093  0.00  0.00    +0.000 NA
ENDBRANCH   2   5
BRANCH   1  11
ATOM     11  C   UNL     1       3.329   1.798  18.109  0.00  0.00    +0.000 C 
BRANCH  11  12
ATOM     12  C   UNL     1       1.908   2.294  18.344  0.00  0.00    +0.000 C 
BRANCH  12  13
ATOM     13  C   UNL     1       1.651   2.527  19.829  0.00  0.00    +0.000 C 
BRANCH  13  14
ATOM     14  C   UNL     1       1.116   3.934  20.073  0.00  0.00    +0.000 C 
BRANCH  14  15
ATOM     15  C   UNL     1       1.529   4.877  18.949  0.00  0.00    +0.000 C 
BRANCH  15  16
ATOM     16  C   UNL     1       2.474   5.952  19.472  0.00  0.00    +0.000 C 
BRANCH  16  18
ATOM     17  C   UNL     1       2.141   8.064  18.168  0.00  0.00    +0.000 C 
ATOM     18  C   UNL     1       2.997   6.821  18.333  0.00  0.00    +0.000 C 
ENDBRANCH  16  18
ENDBRANCH  15  16
ENDBRANCH  14  15
ENDBRANCH  13  14
ENDBRANCH  12  13
ENDBRANCH  11  12
ENDBRANCH   1  11
TORSDOF 8
ENDMDL
MODEL 6
REMARK VINA RESULT:      -5.9      2.874      4.266
REMARK  Name = 
REMARK  9 active torsions:
REMARK  status: ('A' for Active; 'I' for Inactive)
REMARK    1  A    between atoms: C_1  and  C_2
REMARK    2  A    between atoms: C_2  and  C_3
REMARK    3  A    between atoms: C_3  and  C_4
REMARK    4  A    between atoms: C_4  and  C_5
REMARK    5  A    between atoms: C_5  and  C_6
REMARK    6  A    between atoms: C_6  and  C_7
REMARK    7  A    between atoms: C_7  and  C_8
REMARK    8  A    between atoms: C_8  and  N_9
REMARK    9  A    between atoms: C_10  and  C_12
REMARK                            x       y       z     vdW  Elec       q    Type
REMARK                         _______ _______ _______ _____ _____    ______ ____
ROOT
ATOM      1  N   UNL     1       5.126   3.184  19.531  0.00  0.00    +0.000 N 
ATOM      2  C   UNL     1       5.061   3.835  18.303  0.00  0.00    +0.000 C 
ATOM      3  O   UNL     1       4.218   3.573  17.465  0.00  0.00    +0.000 OA
ATOM      4  H   UNL     1       5.719   3.560  20.260  0.00  0.00    +0.000 HD
ENDROOT
BRANCH   2   5
ATOM      5  C   UNL     1       6.057   4.916  18.054  0.00  0.00    +0.000 A 
ATOM      6  C   UNL     1       6.009   5.663  16.876  0.00  0.00    +0.000 A 
ATOM      7  N   UNL     1       6.841   6.719  16.647  0.00  0.00    +0.000 NA
ATOM      8  C   UNL     1       7.710   6.994  17.645  0.00  0.00    +0.000 A 
ATOM      9  C   UNL     1       7.772   6.236  18.805  0.00  0.00    +0.000 A 
ATOM     10  N   UNL     1       6.960   5.177  19.040  0.00  0.00    +0.000 NA
ENDBRANCH   2   5
BRANCH   1  11
ATOM     11  C   UNL     1       4.182   2.130  19.832  0.00  0.00    +0.000 C 
BRANCH  11  12
ATOM     12  C   UNL     1       3.183   2.561  20.898  0.00  0.00    +0.000 C 
BRANCH  12  13
ATOM     13  C   UNL     1       1.776   2.659  20.317  0.00  0.00    +0.000 C 
BRANCH  13  14
ATOM     14  C   UNL     1       1.244   4.085  20.421  0.00  0.00    +0.000 C 
BRANCH  14  15
ATOM     15  C   UNL     1       1.639   4.904  19.197  0.00  0.00    +0.000 C 
BRANCH  15  16
ATOM     16  C   UNL     1       2.375   6.172  19.615  0.00  0.00    +0.000 C 
BRANCH  16  18
ATOM     17  C   UNL     1       2.165   8.166  18.117  0.00  0.00    +0.000 C 
ATOM     18  C   UNL     1       2.946   6.897  18.402  0.00  0.00    +0.000 C 
ENDBRANCH  16  18
ENDBRANCH  15  16
ENDBRANCH  14  15
ENDBRANCH  13  14
ENDBRANCH  12  13
ENDBRANCH  11  12
ENDBRANCH   1  11
TORSDOF 8
ENDMDL
MODEL 7
REMARK VINA RESULT:      -5.9      2.537      6.820
REMARK  Name = 
REMARK  9 active torsions:
REMARK  status: ('A' for Active; 'I' for Inactive)
REMARK    1  A    between atoms: C_1  and  C_2
REMARK    2  A    between atoms: C_2  and  C_3
REMARK    3  A    between atoms: C_3  and  C_4
REMARK    4  A    between atoms: C_4  and  C_5
REMARK    5  A    between atoms: C_5  and  C_6
REMARK    6  A    between atoms: C_6  and  C_7
REMARK    7  A    between atoms: C_7  and  C_8
REMARK    8  A    between atoms: C_8  and  N_9
REMARK    9  A    between atoms: C_10  and  C_12
REMARK                            x       y       z     vdW  Elec       q    Type
REMARK                         _______ _______ _______ _____ _____    ______ ____
ROOT
ATOM      1  N   UNL     1       5.019   4.961  17.408  0.00  0.00    +0.000 N 
ATOM      2  C   UNL     1       4.885   4.238  18.589  0.00  0.00    +0.000 C 
ATOM      3  O   UNL     1       5.810   4.065  19.361  0.00  0.00    +0.000 OA
ATOM      4  H   UNL     1       4.189   5.235  16.898  0.00  0.00    +0.000 HD
ENDROOT
BRANCH   2   5
ATOM      5  C   UNL     1       3.531   3.701  18.906  0.00  0.00    +0.000 A 
ATOM      6  C   UNL     1       2.753   4.292  19.902  0.00  0.00    +0.000 A 
ATOM      7  N   UNL     1       1.475   3.893  20.164  0.00  0.00    +0.000 NA
ATOM      8  C   UNL     1       1.015   2.889  19.385  0.00  0.00    +0.000 A 
ATOM      9  C   UNL     1       1.798   2.287  18.410  0.00  0.00    +0.000 A 
ATOM     10  N   UNL     1       3.073   2.666  18.149  0.00  0.00    +0.000 NA
ENDBRANCH   2   5
BRANCH   1  11
ATOM     11  C   UNL     1       6.308   5.511  17.050  0.00  0.00    +0.000 C 
BRANCH  11  12
ATOM     12  C   UNL     1       6.727   5.091  15.647  0.00  0.00    +0.000 C 
BRANCH  12  13
ATOM     13  C   UNL     1       5.935   3.872  15.185  0.00  0.00    +0.000 C 
BRANCH  13  14
ATOM     14  C   UNL     1       5.365   4.092  13.788  0.00  0.00    +0.000 C 
BRANCH  14  15
ATOM     15  C   UNL     1       6.268   3.476  12.726  0.00  0.00    +0.000 C 
BRANCH  15  16
ATOM     16  C   UNL     1       5.437   2.816  11.632  0.00  0.00    +0.000 C 
BRANCH  16  18
ATOM     17  C   UNL     1       3.542   3.722  10.268  0.00  0.00    +0.000 C 
ATOM     18  C   UNL     1       3.999   3.321  11.660  0.00  0.00    +0.000 C 
ENDBRANCH  16  18
ENDBRANCH  15  16
ENDBRANCH  14  15
ENDBRANCH  13  14
ENDBRANCH  12  13
ENDBRANCH  11  12
ENDBRANCH   1  11
TORSDOF 8
ENDMDL
MODEL 8
REMARK VINA RESULT:      -5.8      3.044      4.129
REMARK  Name = 
REMARK  9 active torsions:
REMARK  status: ('A' for Active; 'I' for Inactive)
REMARK    1  A    between atoms: C_1  and  C_2
REMARK    2  A    between atoms: C_2  and  C_3
REMARK    3  A    between atoms: C_3  and  C_4
REMARK    4  A    between atoms: C_4  and  C_5
REMARK    5  A    between atoms: C_5  and  C_6
REMARK    6  A    between atoms: C_6  and  C_7
REMARK    7  A    between atoms: C_7  and  C_8
REMARK    8  A    between atoms: C_8  and  N_9
REMARK    9  A    between atoms: C_10  and  C_12
REMARK                            x       y       z     vdW  Elec       q    Type
REMARK                         _______ _______ _______ _____ _____    ______ ____
ROOT
ATOM      1  N   UNL     1       4.352   3.373  17.704  0.00  0.00    +0.000 N 
ATOM      2  C   UNL     1       5.243   3.837  18.666  0.00  0.00    +0.000 C 
ATOM      3  O   UNL     1       5.347   3.325  19.766  0.00  0.00    +0.000 OA
ATOM      4  H   UNL     1       4.433   3.707  16.751  0.00  0.00    +0.000 HD
ENDROOT
BRANCH   2   5
ATOM      5  C   UNL     1       6.115   4.985  18.286  0.00  0.00    +0.000 A 
ATOM      6  C   UNL     1       5.826   5.747  17.154  0.00  0.00    +0.000 A 
ATOM      7  N   UNL     1       6.541   6.859  16.819  0.00  0.00    +0.000 NA
ATOM      8  C   UNL     1       7.545   7.173  17.668  0.00  0.00    +0.000 A 
ATOM      9  C   UNL     1       7.846   6.402  18.781  0.00  0.00    +0.000 A 
ATOM     10  N   UNL     1       7.151   5.288  19.117  0.00  0.00    +0.000 NA
ENDBRANCH   2   5
BRANCH   1  11
ATOM     11  C   UNL     1       3.484   2.258  18.012  0.00  0.00    +0.000 C 
BRANCH  11  12
ATOM     12  C   UNL     1       2.023   2.591  17.736  0.00  0.00    +0.000 C 
BRANCH  12  13
ATOM     13  C   UNL     1       1.147   2.227  18.930  0.00  0.00    +0.000 C 
BRANCH  13  14
ATOM     14  C   UNL     1       1.965   2.205  20.217  0.00  0.00    +0.000 C 
BRANCH  14  15
ATOM     15  C   UNL     1       1.475   3.269  21.193  0.00  0.00    +0.000 C 
BRANCH  15  16
ATOM     16  C   UNL     1       2.269   4.559  21.021  0.00  0.00    +0.000 C 
BRANCH  16  18
ATOM     17  C   UNL     1       2.258   6.868  20.054  0.00  0.00    +0.000 C 
ATOM     18  C   UNL     1       1.533   5.536  20.111  0.00  0.00    +0.000 C 
ENDBRANCH  16  18
ENDBRANCH  15  16
ENDBRANCH  14  15
ENDBRANCH  13  14
ENDBRANCH  12  13
ENDBRANCH  11  12
ENDBRANCH   1  11
TORSDOF 8
ENDMDL
MODEL 9
REMARK VINA RESULT:      -5.8      2.002      3.496
REMARK  Name = 
REMARK  9 active torsions:
REMARK  status: ('A' for Active; 'I' for Inactive)
REMARK    1  A    between atoms: C_1  and  C_2
REMARK    2  A    between atoms: C_2  and  C_3
REMARK    3  A    between atoms: C_3  and  C_4
REMARK    4  A    between atoms: C_4  and  C_5
REMARK    5  A    between atoms: C_5  and  C_6
REMARK    6  A    between atoms: C_6  and  C_7
REMARK    7  A    between atoms: C_7  and  C_8
REMARK    8  A    between atoms: C_8  and  N_9
REMARK    9  A    between atoms: C_10  and  C_12
REMARK                            x       y       z     vdW  Elec       q    Type
REMARK                         _______ _______ _______ _____ _____    ______ ____
ROOT
ATOM      1  N   UNL     1       4.712   2.806  18.534  0.00  0.00    +0.000 N 
ATOM      2  C   UNL     1       5.262   4.078  18.406  0.00  0.00    +0.000 C 
ATOM      3  O   UNL     1       5.288   4.877  19.324  0.00  0.00    +0.000 OA
ATOM      4  H   UNL     1       4.880   2.119  17.810  0.00  0.00    +0.000 HD
ENDROOT
BRANCH   2   5
ATOM      5  C   UNL     1       5.868   4.426  17.089  0.00  0.00    +0.000 A 
ATOM      6  C   UNL     1       6.825   5.437  16.997  0.00  0.00    +0.000 A 
ATOM      7  N   UNL     1       7.470   5.728  15.832  0.00  0.00    +0.000 NA
ATOM      8  C   UNL     1       7.122   4.961  14.775  0.00  0.00    +0.000 A 
ATOM      9  C   UNL     1       6.154   3.972  14.862  0.00  0.00    +0.000 A 
ATOM     10  N   UNL     1       5.496   3.681  16.011  0.00  0.00    +0.000 NA
ENDBRANCH   2   5
BRANCH   1  11
ATOM     11  C   UNL     1       4.115   2.409  19.790  0.00  0.00    +0.000 C 
BRANCH  11  12
ATOM     12  C   UNL     1       2.614   2.187  19.652  0.00  0.00    +0.000 C 
BRANCH  12  13
ATOM     13  C   UNL     1       1.880   2.630  20.914  0.00  0.00    +0.000 C 
BRANCH  13  14
ATOM     14  C   UNL     1       1.185   3.970  20.696  0.00  0.00    +0.000 C 
BRANCH  14  15
ATOM     15  C   UNL     1       2.124   5.129  21.010  0.00  0.00    +0.000 C 
BRANCH  15  16
ATOM     16  C   UNL     1       1.545   6.442  20.498  0.00  0.00    +0.000 C 
BRANCH  16  18
ATOM     17  C   UNL     1       2.392   6.327  18.144  0.00  0.00    +0.000 C 
ATOM     18  C   UNL     1       2.465   7.077  19.462  0.00  0.00    +0.000 C 
ENDBRANCH  16  18
ENDBRANCH  15  16
ENDBRANCH  14  15
ENDBRANCH  13  14
ENDBRANCH  12  13
ENDBRANCH  11  12
ENDBRANCH   1  11
TORSDOF 8
ENDMDL
