MODEL 1
REMARK VINA RESULT:      -8.1      0.000      0.000
REMARK  Name = 
REMARK  5 active torsions:
REMARK  status: ('A' for Active; 'I' for Inactive)
REMARK    1  A    between atoms: C_2  and  C_4
REMARK    2  A    between atoms: C_5  and  C_6
REMARK    3  A    between atoms: C_9  and  O_10
REMARK    4  A    between atoms: O_10  and  C_11
REMARK    5  A    between atoms: C_25  and  C_26
REMARK                            x       y       z     vdW  Elec       q    Type
REMARK                         _______ _______ _______ _____ _____    ______ ____
ROOT
ATOM      1  C   UNL     1      -2.360  11.675  19.461  0.00  0.00    +0.000 A 
ATOM      2  C   UNL     1      -1.401  11.216  20.428  0.00  0.00    +0.000 A 
ATOM      3  N   UNL     1      -1.517  11.897  21.584  0.00  0.00    +0.000 NA
ATOM      4  N   UNL     1      -2.552  12.721  21.383  0.00  0.00    +0.000 N 
ATOM      5  C   UNL     1      -3.044  12.691  20.106  0.00  0.00    +0.000 A 
ATOM      6  N   UNL     1      -4.048  13.523  19.736  0.00  0.00    +0.000 N 
ATOM      7  C   UNL     1      -4.431  14.635  20.588  0.00  0.00    +0.000 C 
ATOM      8  C   UNL     1      -4.397  14.207  22.053  0.00  0.00    +0.000 C 
ATOM      9  C   UNL     1      -3.020  13.628  22.435  0.00  0.00    +0.000 C 
ATOM     10  H   UNL     1      -4.513  13.444  18.833  0.00  0.00    +0.000 HD
ENDROOT
BRANCH   2  11
ATOM     11  C   UNL     1      -0.352  10.201  20.295  0.00  0.00    +0.000 A 
ATOM     12  C   UNL     1      -0.141   9.230  21.283  0.00  0.00    +0.000 A 
ATOM     13  C   UNL     1       0.841   8.249  21.119  0.00  0.00    +0.000 A 
ATOM     14  C   UNL     1       1.610   8.212  19.957  0.00  0.00    +0.000 A 
ATOM     15  C   UNL     1       1.445   9.204  18.989  0.00  0.00    +0.000 A 
ATOM     16  C   UNL     1       0.448  10.172  19.143  0.00  0.00    +0.000 A 
BRANCH  14  17
ATOM     17  O   UNL     1       2.539   7.199  19.886  0.00  0.00    +0.000 OA
BRANCH  17  18
ATOM     18  C   UNL     1       2.141   5.922  19.559  0.00  0.00    +0.000 A 
ATOM     19  C   UNL     1       2.243   5.584  18.208  0.00  0.00    +0.000 A 
ATOM     20  C   UNL     1       1.850   4.319  17.772  0.00  0.00    +0.000 A 
ATOM     21  C   UNL     1       1.359   3.386  18.683  0.00  0.00    +0.000 A 
ATOM     22  C   UNL     1       1.294   3.706  20.038  0.00  0.00    +0.000 A 
ATOM     23  C   UNL     1       1.714   4.961  20.480  0.00  0.00    +0.000 A 
ENDBRANCH  17  18
ENDBRANCH  14  17
ENDBRANCH   2  11
BRANCH   1  25
ATOM     24  N   UNL     1      -2.048  11.965  17.119  0.00  0.00    +0.000 N 
ATOM     25  C   UNL     1      -2.582  11.191  18.114  0.00  0.00    +0.000 C 
ATOM     26  O   UNL     1      -3.151  10.140  17.835  0.00  0.00    +0.000 OA
ATOM     27  H   UNL     1      -2.046  11.559  16.195  0.00  0.00    +0.000 HD
ATOM     28  H   UNL     1      -1.362  12.670  17.351  0.00  0.00    +0.000 HD
ENDBRANCH   1  25
BRANCH   9  29
ATOM     29  C   UNL     1      -3.131  12.953  23.802  0.00  0.00    +0.000 C 
ATOM     30  C   UNL     1      -3.453  13.815  25.051  0.00  0.00    +0.000 C 
ATOM     31  N   UNL     1      -4.314  12.708  25.524  0.00  0.00    +0.000 NA
ATOM     32  C   UNL     1      -4.493  12.285  24.120  0.00  0.00    +0.000 C 
ATOM     33  H   UNL     1      -5.161  13.010  26.003  0.00  0.00    +0.000 HD
ENDBRANCH   9  29
TORSDOF 5
ENDMDL
MODEL 2
REMARK VINA RESULT:      -8.1      1.400      1.669
REMARK  Name = 
REMARK  5 active torsions:
REMARK  status: ('A' for Active; 'I' for Inactive)
REMARK    1  A    between atoms: C_2  and  C_4
REMARK    2  A    between atoms: C_5  and  C_6
REMARK    3  A    between atoms: C_9  and  O_10
REMARK    4  A    between atoms: O_10  and  C_11
REMARK    5  A    between atoms: C_25  and  C_26
REMARK                            x       y       z     vdW  Elec       q    Type
REMARK                         _______ _______ _______ _____ _____    ______ ____
ROOT
ATOM      1  C   UNL     1      -0.938  12.652  19.783  0.00  0.00    +0.000 A 
ATOM      2  C   UNL     1      -0.698  11.536  20.657  0.00  0.00    +0.000 A 
ATOM      3  N   UNL     1      -1.311  11.712  21.843  0.00  0.00    +0.000 NA
ATOM      4  N   UNL     1      -1.969  12.870  21.710  0.00  0.00    +0.000 N 
ATOM      5  C   UNL     1      -1.718  13.517  20.530  0.00  0.00    +0.000 A 
ATOM      6  N   UNL     1      -2.260  14.735  20.285  0.00  0.00    +0.000 N 
ATOM      7  C   UNL     1      -2.883  15.490  21.358  0.00  0.00    +0.000 C 
ATOM      8  C   UNL     1      -3.678  14.553  22.263  0.00  0.00    +0.000 C 
ATOM      9  C   UNL     1      -2.795  13.406  22.796  0.00  0.00    +0.000 C 
ATOM     10  H   UNL     1      -2.188  15.187  19.375  0.00  0.00    +0.000 HD
ENDROOT
BRANCH   2  11
ATOM     11  C   UNL     1       0.122  10.340  20.444  0.00  0.00    +0.000 A 
ATOM     12  C   UNL     1       0.721  10.073  19.205  0.00  0.00    +0.000 A 
ATOM     13  C   UNL     1       1.529   8.946  19.034  0.00  0.00    +0.000 A 
ATOM     14  C   UNL     1       1.768   8.083  20.102  0.00  0.00    +0.000 A 
ATOM     15  C   UNL     1       1.136   8.311  21.326  0.00  0.00    +0.000 A 
ATOM     16  C   UNL     1       0.346   9.450  21.504  0.00  0.00    +0.000 A 
BRANCH  14  17
ATOM     17  O   UNL     1       2.590   7.012  19.835  0.00  0.00    +0.000 OA
BRANCH  17  18
ATOM     18  C   UNL     1       2.047   5.770  19.595  0.00  0.00    +0.000 A 
ATOM     19  C   UNL     1       2.137   5.315  18.278  0.00  0.00    +0.000 A 
ATOM     20  C   UNL     1       1.602   4.076  17.928  0.00  0.00    +0.000 A 
ATOM     21  C   UNL     1       0.980   3.284  18.892  0.00  0.00    +0.000 A 
ATOM     22  C   UNL     1       0.925   3.718  20.216  0.00  0.00    +0.000 A 
ATOM     23  C   UNL     1       1.485   4.945  20.573  0.00  0.00    +0.000 A 
ENDBRANCH  17  18
ENDBRANCH  14  17
ENDBRANCH   2  11
BRANCH   1  25
ATOM     24  N   UNL     1      -1.375  12.476  17.450  0.00  0.00    +0.000 N 
ATOM     25  C   UNL     1      -0.482  12.841  18.421  0.00  0.00    +0.000 C 
ATOM     26  O   UNL     1       0.594  13.342  18.109  0.00  0.00    +0.000 OA
ATOM     27  H   UNL     1      -1.144  12.756  16.508  0.00  0.00    +0.000 HD
ATOM     28  H   UNL     1      -2.342  12.320  17.697  0.00  0.00    +0.000 HD
ENDBRANCH   1  25
BRANCH   9  29
ATOM     29  C   UNL     1      -3.693  12.352  23.443  0.00  0.00    +0.000 C 
ATOM     30  C   UNL     1      -4.123  12.526  24.923  0.00  0.00    +0.000 C 
ATOM     31  N   UNL     1      -5.457  12.012  24.537  0.00  0.00    +0.000 NA
ATOM     32  C   UNL     1      -5.211  12.488  23.161  0.00  0.00    +0.000 C 
ATOM     33  H   UNL     1      -6.235  12.456  25.024  0.00  0.00    +0.000 HD
ENDBRANCH   9  29
TORSDOF 5
ENDMDL
MODEL 3
REMARK VINA RESULT:      -8.1      3.343      3.961
REMARK  Name = 
REMARK  5 active torsions:
REMARK  status: ('A' for Active; 'I' for Inactive)
REMARK    1  A    between atoms: C_2  and  C_4
REMARK    2  A    between atoms: C_5  and  C_6
REMARK    3  A    between atoms: C_9  and  O_10
REMARK    4  A    between atoms: O_10  and  C_11
REMARK    5  A    between atoms: C_25  and  C_26
REMARK                            x       y       z     vdW  Elec       q    Type
REMARK                         _______ _______ _______ _____ _____    ______ ____
ROOT
ATOM      1  C   UNL     1      -0.298  11.798  18.621  0.00  0.00    +0.000 A 
ATOM      2  C   UNL     1       0.926  11.220  19.102  0.00  0.00    +0.000 A 
ATOM      3  N   UNL     1       1.718  12.157  19.655  0.00  0.00    +0.000 NA
ATOM      4  N   UNL     1       1.001  13.285  19.584  0.00  0.00    +0.000 N 
ATOM      5  C   UNL     1      -0.179  13.148  18.903  0.00  0.00    +0.000 A 
ATOM      6  N   UNL     1      -0.978  14.222  18.690  0.00  0.00    +0.000 N 
ATOM      7  C   UNL     1      -0.482  15.566  18.932  0.00  0.00    +0.000 C 
ATOM      8  C   UNL     1       0.375  15.586  20.195  0.00  0.00    +0.000 C 
ATOM      9  C   UNL     1       1.515  14.551  20.114  0.00  0.00    +0.000 C 
ATOM     10  H   UNL     1      -1.912  14.132  18.292  0.00  0.00    +0.000 HD
ENDROOT
BRANCH   2  11
ATOM     11  C   UNL     1       1.402   9.836  19.019  0.00  0.00    +0.000 A 
ATOM     12  C   UNL     1       1.979   9.328  17.848  0.00  0.00    +0.000 A 
ATOM     13  C   UNL     1       2.460   8.017  17.802  0.00  0.00    +0.000 A 
ATOM     14  C   UNL     1       2.392   7.203  18.932  0.00  0.00    +0.000 A 
ATOM     15  C   UNL     1       1.773   7.681  20.089  0.00  0.00    +0.000 A 
ATOM     16  C   UNL     1       1.312   8.999  20.142  0.00  0.00    +0.000 A 
BRANCH  14  17
ATOM     17  O   UNL     1       2.906   5.935  18.789  0.00  0.00    +0.000 OA
BRANCH  17  18
ATOM     18  C   UNL     1       2.301   4.870  19.418  0.00  0.00    +0.000 A 
ATOM     19  C   UNL     1       2.640   4.689  20.761  0.00  0.00    +0.000 A 
ATOM     20  C   UNL     1       2.093   3.629  21.483  0.00  0.00    +0.000 A 
ATOM     21  C   UNL     1       1.203   2.749  20.869  0.00  0.00    +0.000 A 
ATOM     22  C   UNL     1       0.831   2.951  19.541  0.00  0.00    +0.000 A 
ATOM     23  C   UNL     1       1.355   4.029  18.825  0.00  0.00    +0.000 A 
ENDBRANCH  17  18
ENDBRANCH  14  17
ENDBRANCH   2  11
BRANCH   1  25
ATOM     24  N   UNL     1      -1.828  11.678  16.801  0.00  0.00    +0.000 N 
ATOM     25  C   UNL     1      -1.420  11.134  17.989  0.00  0.00    +0.000 C 
ATOM     26  O   UNL     1      -1.964  10.122  18.420  0.00  0.00    +0.000 OA
ATOM     27  H   UNL     1      -2.490  11.133  16.268  0.00  0.00    +0.000 HD
ATOM     28  H   UNL     1      -1.225  12.331  16.320  0.00  0.00    +0.000 HD
ENDBRANCH   1  25
BRANCH   9  29
ATOM     29  C   UNL     1       2.150  14.407  21.497  0.00  0.00    +0.000 C 
ATOM     30  C   UNL     1       3.696  14.400  21.626  0.00  0.00    +0.000 C 
ATOM     31  N   UNL     1       3.541  15.207  22.858  0.00  0.00    +0.000 NA
ATOM     32  C   UNL     1       2.254  15.708  22.334  0.00  0.00    +0.000 C 
ATOM     33  H   UNL     1       4.265  15.911  22.993  0.00  0.00    +0.000 HD
ENDBRANCH   9  29
TORSDOF 5
ENDMDL
MODEL 4
REMARK VINA RESULT:      -8.0      0.401      1.327
REMARK  Name = 
REMARK  5 active torsions:
REMARK  status: ('A' for Active; 'I' for Inactive)
REMARK    1  A    between atoms: C_2  and  C_4
REMARK    2  A    between atoms: C_5  and  C_6
REMARK    3  A    between atoms: C_9  and  O_10
REMARK    4  A    between atoms: O_10  and  C_11
REMARK    5  A    between atoms: C_25  and  C_26
REMARK                            x       y       z     vdW  Elec       q    Type
REMARK                         _______ _______ _______ _____ _____    ______ ____
ROOT
ATOM      1  C   UNL     1      -2.024  11.906  19.624  0.00  0.00    +0.000 A 
ATOM      2  C   UNL     1      -1.166  11.297  20.602  0.00  0.00    +0.000 A 
ATOM      3  N   UNL     1      -1.244  11.942  21.781  0.00  0.00    +0.000 NA
ATOM      4  N   UNL     1      -2.165  12.893  21.582  0.00  0.00    +0.000 N 
ATOM      5  C   UNL     1      -2.607  12.972  20.289  0.00  0.00    +0.000 A 
ATOM      6  N   UNL     1      -3.488  13.933  19.921  0.00  0.00    +0.000 N 
ATOM      7  C   UNL     1      -3.768  15.050  20.807  0.00  0.00    +0.000 C 
ATOM      8  C   UNL     1      -3.843  14.564  22.252  0.00  0.00    +0.000 C 
ATOM      9  C   UNL     1      -2.560  13.809  22.655  0.00  0.00    +0.000 C 
ATOM     10  H   UNL     1      -3.924  13.946  19.000  0.00  0.00    +0.000 HD
ENDROOT
BRANCH   2  11
ATOM     11  C   UNL     1      -0.241  10.169  20.462  0.00  0.00    +0.000 A 
ATOM     12  C   UNL     1       0.546  10.004  19.314  0.00  0.00    +0.000 A 
ATOM     13  C   UNL     1       1.448   8.942  19.216  0.00  0.00    +0.000 A 
ATOM     14  C   UNL     1       1.593   8.043  20.271  0.00  0.00    +0.000 A 
ATOM     15  C   UNL     1       0.779   8.166  21.398  0.00  0.00    +0.000 A 
ATOM     16  C   UNL     1      -0.108   9.242  21.506  0.00  0.00    +0.000 A 
BRANCH  14  17
ATOM     17  O   UNL     1       2.518   7.042  20.083  0.00  0.00    +0.000 OA
BRANCH  17  18
ATOM     18  C   UNL     1       2.122   5.822  19.581  0.00  0.00    +0.000 A 
ATOM     19  C   UNL     1       1.558   4.943  20.507  0.00  0.00    +0.000 A 
ATOM     20  C   UNL     1       1.139   3.675  20.102  0.00  0.00    +0.000 A 
ATOM     21  C   UNL     1       1.278   3.284  18.771  0.00  0.00    +0.000 A 
ATOM     22  C   UNL     1       1.803   4.175  17.837  0.00  0.00    +0.000 A 
ATOM     23  C   UNL     1       2.196   5.454  18.235  0.00  0.00    +0.000 A 
ENDBRANCH  17  18
ENDBRANCH  14  17
ENDBRANCH   2  11
BRANCH   1  25
ATOM     24  N   UNL     1      -1.608  12.260  17.307  0.00  0.00    +0.000 N 
ATOM     25  C   UNL     1      -2.251  11.505  18.251  0.00  0.00    +0.000 C 
ATOM     26  O   UNL     1      -2.916  10.532  17.909  0.00  0.00    +0.000 OA
ATOM     27  H   UNL     1      -1.617  11.895  16.366  0.00  0.00    +0.000 HD
ATOM     28  H   UNL     1      -0.862  12.879  17.590  0.00  0.00    +0.000 HD
ENDBRANCH   1  25
BRANCH   9  29
ATOM     29  C   UNL     1      -2.804  13.100  23.988  0.00  0.00    +0.000 C 
ATOM     30  C   UNL     1      -3.355  13.911  25.189  0.00  0.00    +0.000 C 
ATOM     31  N   UNL     1      -4.187  12.735  25.529  0.00  0.00    +0.000 NA
ATOM     32  C   UNL     1      -4.142  12.328  24.111  0.00  0.00    +0.000 C 
ATOM     33  H   UNL     1      -5.111  12.965  25.892  0.00  0.00    +0.000 HD
ENDBRANCH   9  29
TORSDOF 5
ENDMDL
MODEL 5
REMARK VINA RESULT:      -8.0      2.522      4.164
REMARK  Name = 
REMARK  5 active torsions:
REMARK  status: ('A' for Active; 'I' for Inactive)
REMARK    1  A    between atoms: C_2  and  C_4
REMARK    2  A    between atoms: C_5  and  C_6
REMARK    3  A    between atoms: C_9  and  O_10
REMARK    4  A    between atoms: O_10  and  C_11
REMARK    5  A    between atoms: C_25  and  C_26
REMARK                            x       y       z     vdW  Elec       q    Type
REMARK                         _______ _______ _______ _____ _____    ______ ____
ROOT
ATOM      1  C   UNL     1       0.028  10.540  21.592  0.00  0.00    +0.000 A 
ATOM      2  C   UNL     1       0.506  10.337  20.252  0.00  0.00    +0.000 A 
ATOM      3  N   UNL     1       0.145  11.358  19.452  0.00  0.00    +0.000 NA
ATOM      4  N   UNL     1      -0.488  12.212  20.265  0.00  0.00    +0.000 N 
ATOM      5  C   UNL     1      -0.660  11.739  21.538  0.00  0.00    +0.000 A 
ATOM      6  N   UNL     1      -1.347  12.465  22.453  0.00  0.00    +0.000 N 
ATOM      7  C   UNL     1      -2.138  13.611  22.039  0.00  0.00    +0.000 C 
ATOM      8  C   UNL     1      -1.397  14.393  20.957  0.00  0.00    +0.000 C 
ATOM      9  C   UNL     1      -1.021  13.484  19.768  0.00  0.00    +0.000 C 
ATOM     10  H   UNL     1      -1.391  12.197  23.435  0.00  0.00    +0.000 HD
ENDROOT
BRANCH   2  11
ATOM     11  C   UNL     1       1.242   9.204  19.683  0.00  0.00    +0.000 A 
ATOM     12  C   UNL     1       1.567   8.080  20.453  0.00  0.00    +0.000 A 
ATOM     13  C   UNL     1       2.237   6.995  19.881  0.00  0.00    +0.000 A 
ATOM     14  C   UNL     1       2.570   7.009  18.527  0.00  0.00    +0.000 A 
ATOM     15  C   UNL     1       2.296   8.144  17.762  0.00  0.00    +0.000 A 
ATOM     16  C   UNL     1       1.607   9.220  18.328  0.00  0.00    +0.000 A 
BRANCH  14  17
ATOM     17  O   UNL     1       3.213   5.887  18.057  0.00  0.00    +0.000 OA
BRANCH  17  18
ATOM     18  C   UNL     1       2.844   4.640  18.512  0.00  0.00    +0.000 A 
ATOM     19  C   UNL     1       1.618   4.164  18.044  0.00  0.00    +0.000 A 
ATOM     20  C   UNL     1       1.147   2.919  18.459  0.00  0.00    +0.000 A 
ATOM     21  C   UNL     1       1.901   2.142  19.337  0.00  0.00    +0.000 A 
ATOM     22  C   UNL     1       3.145   2.596  19.773  0.00  0.00    +0.000 A 
ATOM     23  C   UNL     1       3.630   3.830  19.336  0.00  0.00    +0.000 A 
ENDBRANCH  17  18
ENDBRANCH  14  17
ENDBRANCH   2  11
BRANCH   1  25
ATOM     24  N   UNL     1      -0.840   8.894  23.077  0.00  0.00    +0.000 N 
ATOM     25  C   UNL     1       0.221   9.696  22.753  0.00  0.00    +0.000 C 
ATOM     26  O   UNL     1       1.262   9.627  23.401  0.00  0.00    +0.000 OA
ATOM     27  H   UNL     1      -0.663   8.184  23.772  0.00  0.00    +0.000 HD
ATOM     28  H   UNL     1      -1.579   8.752  22.403  0.00  0.00    +0.000 HD
ENDBRANCH   1  25
BRANCH   9  29
ATOM     29  C   UNL     1      -0.040  14.233  18.866  0.00  0.00    +0.000 C 
ATOM     30  C   UNL     1      -0.211  15.761  18.662  0.00  0.00    +0.000 C 
ATOM     31  N   UNL     1       1.264  15.876  18.710  0.00  0.00    +0.000 NA
ATOM     32  C   UNL     1       1.306  14.641  19.518  0.00  0.00    +0.000 C 
ATOM     33  H   UNL     1       1.605  16.717  19.174  0.00  0.00    +0.000 HD
ENDBRANCH   9  29
TORSDOF 5
ENDMDL
MODEL 6
REMARK VINA RESULT:      -7.9      3.014      4.797
REMARK  Name = 
REMARK  5 active torsions:
REMARK  status: ('A' for Active; 'I' for Inactive)
REMARK    1  A    between atoms: C_2  and  C_4
REMARK    2  A    between atoms: C_5  and  C_6
REMARK    3  A    between atoms: C_9  and  O_10
REMARK    4  A    between atoms: O_10  and  C_11
REMARK    5  A    between atoms: C_25  and  C_26
REMARK                            x       y       z     vdW  Elec       q    Type
REMARK                         _______ _______ _______ _____ _____    ______ ____
ROOT
ATOM      1  C   UNL     1       0.014  10.583  21.558  0.00  0.00    +0.000 A 
ATOM      2  C   UNL     1       0.475  10.424  20.206  0.00  0.00    +0.000 A 
ATOM      3  N   UNL     1       0.100  11.468  19.443  0.00  0.00    +0.000 NA
ATOM      4  N   UNL     1      -0.526  12.293  20.290  0.00  0.00    +0.000 N 
ATOM      5  C   UNL     1      -0.679  11.781  21.550  0.00  0.00    +0.000 A 
ATOM      6  N   UNL     1      -1.357  12.475  22.497  0.00  0.00    +0.000 N 
ATOM      7  C   UNL     1      -2.157  13.630  22.128  0.00  0.00    +0.000 C 
ATOM      8  C   UNL     1      -1.433  14.448  21.061  0.00  0.00    +0.000 C 
ATOM      9  C   UNL     1      -1.070  13.578  19.840  0.00  0.00    +0.000 C 
ATOM     10  H   UNL     1      -1.387  12.176  23.470  0.00  0.00    +0.000 HD
ENDROOT
BRANCH   2  11
ATOM     11  C   UNL     1       1.207   9.313  19.592  0.00  0.00    +0.000 A 
ATOM     12  C   UNL     1       1.641   9.366  18.261  0.00  0.00    +0.000 A 
ATOM     13  C   UNL     1       2.370   8.311  17.707  0.00  0.00    +0.000 A 
ATOM     14  C   UNL     1       2.694   7.198  18.481  0.00  0.00    +0.000 A 
ATOM     15  C   UNL     1       2.225   7.110  19.792  0.00  0.00    +0.000 A 
ATOM     16  C   UNL     1       1.515   8.175  20.354  0.00  0.00    +0.000 A 
BRANCH  14  17
ATOM     17  O   UNL     1       3.428   6.221  17.847  0.00  0.00    +0.000 OA
BRANCH  17  18
ATOM     18  C   UNL     1       4.799   6.201  17.968  0.00  0.00    +0.000 A 
ATOM     19  C   UNL     1       5.303   5.428  19.016  0.00  0.00    +0.000 A 
ATOM     20  C   UNL     1       6.678   5.356  19.233  0.00  0.00    +0.000 A 
ATOM     21  C   UNL     1       7.556   6.050  18.402  0.00  0.00    +0.000 A 
ATOM     22  C   UNL     1       7.058   6.790  17.330  0.00  0.00    +0.000 A 
ATOM     23  C   UNL     1       5.684   6.840  17.094  0.00  0.00    +0.000 A 
ENDBRANCH  17  18
ENDBRANCH  14  17
ENDBRANCH   2  11
BRANCH   1  25
ATOM     24  N   UNL     1      -0.813   8.861  22.978  0.00  0.00    +0.000 N 
ATOM     25  C   UNL     1       0.226   9.704  22.690  0.00  0.00    +0.000 C 
ATOM     26  O   UNL     1       1.265   9.642  23.340  0.00  0.00    +0.000 OA
ATOM     27  H   UNL     1      -0.619   8.132  23.649  0.00  0.00    +0.000 HD
ATOM     28  H   UNL     1      -1.545   8.723  22.296  0.00  0.00    +0.000 HD
ENDBRANCH   1  25
BRANCH   9  29
ATOM     29  C   UNL     1      -0.104  14.359  18.949  0.00  0.00    +0.000 C 
ATOM     30  C   UNL     1      -0.324  15.880  18.741  0.00  0.00    +0.000 C 
ATOM     31  N   UNL     1       1.146  16.044  18.807  0.00  0.00    +0.000 NA
ATOM     32  C   UNL     1       1.219  14.812  19.617  0.00  0.00    +0.000 C 
ATOM     33  H   UNL     1       1.452  16.897  19.274  0.00  0.00    +0.000 HD
ENDBRANCH   9  29
TORSDOF 5
ENDMDL
MODEL 7
REMARK VINA RESULT:      -7.8      3.360      3.899
REMARK  Name = 
REMARK  5 active torsions:
REMARK  status: ('A' for Active; 'I' for Inactive)
REMARK    1  A    between atoms: C_2  and  C_4
REMARK    2  A    between atoms: C_5  and  C_6
REMARK    3  A    between atoms: C_9  and  O_10
REMARK    4  A    between atoms: O_10  and  C_11
REMARK    5  A    between atoms: C_25  and  C_26
REMARK                            x       y       z     vdW  Elec       q    Type
REMARK                         _______ _______ _______ _____ _____    ______ ____
ROOT
ATOM      1  C   UNL     1      -0.236  11.969  18.579  0.00  0.00    +0.000 A 
ATOM      2  C   UNL     1       1.022  11.405  18.984  0.00  0.00    +0.000 A 
ATOM      3  N   UNL     1       1.858  12.361  19.433  0.00  0.00    +0.000 NA
ATOM      4  N   UNL     1       1.138  13.488  19.374  0.00  0.00    +0.000 N 
ATOM      5  C   UNL     1      -0.092  13.329  18.796  0.00  0.00    +0.000 A 
ATOM      6  N   UNL     1      -0.904  14.397  18.603  0.00  0.00    +0.000 N 
ATOM      7  C   UNL     1      -0.389  15.747  18.750  0.00  0.00    +0.000 C 
ATOM      8  C   UNL     1       0.567  15.815  19.939  0.00  0.00    +0.000 C 
ATOM      9  C   UNL     1       1.696  14.771  19.809  0.00  0.00    +0.000 C 
ATOM     10  H   UNL     1      -1.867  14.296  18.285  0.00  0.00    +0.000 HD
ENDROOT
BRANCH   2  11
ATOM     11  C   UNL     1       1.488  10.017  18.921  0.00  0.00    +0.000 A 
ATOM     12  C   UNL     1       2.086   9.496  17.765  0.00  0.00    +0.000 A 
ATOM     13  C   UNL     1       2.556   8.181  17.738  0.00  0.00    +0.000 A 
ATOM     14  C   UNL     1       2.456   7.375  18.871  0.00  0.00    +0.000 A 
ATOM     15  C   UNL     1       1.817   7.865  20.011  0.00  0.00    +0.000 A 
ATOM     16  C   UNL     1       1.366   9.188  20.046  0.00  0.00    +0.000 A 
BRANCH  14  17
ATOM     17  O   UNL     1       2.963   6.101  18.747  0.00  0.00    +0.000 OA
BRANCH  17  18
ATOM     18  C   UNL     1       2.234   5.023  19.195  0.00  0.00    +0.000 A 
ATOM     19  C   UNL     1       1.696   4.202  18.202  0.00  0.00    +0.000 A 
ATOM     20  C   UNL     1       0.927   3.093  18.553  0.00  0.00    +0.000 A 
ATOM     21  C   UNL     1       0.697   2.796  19.895  0.00  0.00    +0.000 A 
ATOM     22  C   UNL     1       1.267   3.589  20.889  0.00  0.00    +0.000 A 
ATOM     23  C   UNL     1       2.060   4.684  20.540  0.00  0.00    +0.000 A 
ENDBRANCH  17  18
ENDBRANCH  14  17
ENDBRANCH   2  11
BRANCH   1  25
ATOM     24  N   UNL     1      -1.859  11.730  16.855  0.00  0.00    +0.000 N 
ATOM     25  C   UNL     1      -1.405  11.286  18.067  0.00  0.00    +0.000 C 
ATOM     26  O   UNL     1      -1.953  10.334  18.615  0.00  0.00    +0.000 OA
ATOM     27  H   UNL     1      -2.562  11.160  16.408  0.00  0.00    +0.000 HD
ATOM     28  H   UNL     1      -1.265  12.318  16.287  0.00  0.00    +0.000 HD
ENDBRANCH   1  25
BRANCH   9  29
ATOM     29  C   UNL     1       2.440  14.681  21.142  0.00  0.00    +0.000 C 
ATOM     30  C   UNL     1       3.516  15.744  21.484  0.00  0.00    +0.000 C 
ATOM     31  N   UNL     1       3.017  15.718  22.878  0.00  0.00    +0.000 NA
ATOM     32  C   UNL     1       1.704  15.275  22.370  0.00  0.00    +0.000 C 
ATOM     33  H   UNL     1       3.026  16.625  23.344  0.00  0.00    +0.000 HD
ENDBRANCH   9  29
TORSDOF 5
ENDMDL
MODEL 8
REMARK VINA RESULT:      -7.8      2.960      4.581
REMARK  Name = 
REMARK  5 active torsions:
REMARK  status: ('A' for Active; 'I' for Inactive)
REMARK    1  A    between atoms: C_2  and  C_4
REMARK    2  A    between atoms: C_5  and  C_6
REMARK    3  A    between atoms: C_9  and  O_10
REMARK    4  A    between atoms: O_10  and  C_11
REMARK    5  A    between atoms: C_25  and  C_26
REMARK                            x       y       z     vdW  Elec       q    Type
REMARK                         _______ _______ _______ _____ _____    ______ ____
ROOT
ATOM      1  C   UNL     1      -0.043  10.590  21.536  0.00  0.00    +0.000 A 
ATOM      2  C   UNL     1       0.454  10.432  20.197  0.00  0.00    +0.000 A 
ATOM      3  N   UNL     1       0.068  11.458  19.415  0.00  0.00    +0.000 NA
ATOM      4  N   UNL     1      -0.601  12.273  20.239  0.00  0.00    +0.000 N 
ATOM      5  C   UNL     1      -0.769  11.768  21.500  0.00  0.00    +0.000 A 
ATOM      6  N   UNL     1      -1.488  12.451  22.425  0.00  0.00    +0.000 N 
ATOM      7  C   UNL     1      -2.312  13.579  22.026  0.00  0.00    +0.000 C 
ATOM      8  C   UNL     1      -1.586  14.408  20.969  0.00  0.00    +0.000 C 
ATOM      9  C   UNL     1      -1.170  13.538  19.765  0.00  0.00    +0.000 C 
ATOM     10  H   UNL     1      -1.533  12.160  23.400  0.00  0.00    +0.000 HD
ENDROOT
BRANCH   2  11
ATOM     11  C   UNL     1       1.231   9.336  19.611  0.00  0.00    +0.000 A 
ATOM     12  C   UNL     1       1.547   8.186  20.346  0.00  0.00    +0.000 A 
ATOM     13  C   UNL     1       2.257   7.137  19.757  0.00  0.00    +0.000 A 
ATOM     14  C   UNL     1       2.642   7.213  18.419  0.00  0.00    +0.000 A 
ATOM     15  C   UNL     1       2.379   8.375  17.691  0.00  0.00    +0.000 A 
ATOM     16  C   UNL     1       1.649   9.415  18.274  0.00  0.00    +0.000 A 
BRANCH  14  17
ATOM     17  O   UNL     1       3.323   6.122  17.929  0.00  0.00    +0.000 OA
BRANCH  17  18
ATOM     18  C   UNL     1       4.688   6.034  18.086  0.00  0.00    +0.000 A 
ATOM     19  C   UNL     1       5.452   6.714  17.136  0.00  0.00    +0.000 A 
ATOM     20  C   UNL     1       6.844   6.672  17.197  0.00  0.00    +0.000 A 
ATOM     21  C   UNL     1       7.479   5.957  18.211  0.00  0.00    +0.000 A 
ATOM     22  C   UNL     1       6.720   5.311  19.186  0.00  0.00    +0.000 A 
ATOM     23  C   UNL     1       5.326   5.376  19.142  0.00  0.00    +0.000 A 
ENDBRANCH  17  18
ENDBRANCH  14  17
ENDBRANCH   2  11
BRANCH   1  25
ATOM     24  N   UNL     1      -0.871   8.886  22.977  0.00  0.00    +0.000 N 
ATOM     25  C   UNL     1       0.167   9.728  22.681  0.00  0.00    +0.000 C 
ATOM     26  O   UNL     1       1.203   9.678  23.336  0.00  0.00    +0.000 OA
ATOM     27  H   UNL     1      -0.678   8.167  23.659  0.00  0.00    +0.000 HD
ATOM     28  H   UNL     1      -1.600   8.737  22.294  0.00  0.00    +0.000 HD
ENDBRANCH   1  25
BRANCH   9  29
ATOM     29  C   UNL     1      -0.206  14.338  18.889  0.00  0.00    +0.000 C 
ATOM     30  C   UNL     1      -0.361  15.878  18.800  0.00  0.00    +0.000 C 
ATOM     31  N   UNL     1       1.117  15.971  18.811  0.00  0.00    +0.000 NA
ATOM     32  C   UNL     1       1.165  14.681  19.527  0.00  0.00    +0.000 C 
ATOM     33  H   UNL     1       1.483  16.772  19.323  0.00  0.00    +0.000 HD
ENDBRANCH   9  29
TORSDOF 5
ENDMDL
MODEL 9
REMARK VINA RESULT:      -7.7      2.650      4.400
REMARK  Name = 
REMARK  5 active torsions:
REMARK  status: ('A' for Active; 'I' for Inactive)
REMARK    1  A    between atoms: C_2  and  C_4
REMARK    2  A    between atoms: C_5  and  C_6
REMARK    3  A    between atoms: C_9  and  O_10
REMARK    4  A    between atoms: O_10  and  C_11
REMARK    5  A    between atoms: C_25  and  C_26
REMARK                            x       y       z     vdW  Elec       q    Type
REMARK                         _______ _______ _______ _____ _____    ______ ____
ROOT
ATOM      1  C   UNL     1      -0.088  10.088  20.927  0.00  0.00    +0.000 A 
ATOM      2  C   UNL     1       0.722   9.998  19.743  0.00  0.00    +0.000 A 
ATOM      3  N   UNL     1       0.640  11.128  19.016  0.00  0.00    +0.000 NA
ATOM      4  N   UNL     1      -0.147  11.934  19.739  0.00  0.00    +0.000 N 
ATOM      5  C   UNL     1      -0.678  11.337  20.850  0.00  0.00    +0.000 A 
ATOM      6  N   UNL     1      -1.549  12.009  21.641  0.00  0.00    +0.000 N 
ATOM      7  C   UNL     1      -2.143  13.255  21.187  0.00  0.00    +0.000 C 
ATOM      8  C   UNL     1      -1.102  14.090  20.446  0.00  0.00    +0.000 C 
ATOM      9  C   UNL     1      -0.464  13.293  19.290  0.00  0.00    +0.000 C 
ATOM     10  H   UNL     1      -1.869  11.638  22.534  0.00  0.00    +0.000 HD
ENDROOT
BRANCH   2  11
ATOM     11  C   UNL     1       1.528   8.880  19.244  0.00  0.00    +0.000 A 
ATOM     12  C   UNL     1       2.060   8.881  17.948  0.00  0.00    +0.000 A 
ATOM     13  C   UNL     1       2.856   7.822  17.505  0.00  0.00    +0.000 A 
ATOM     14  C   UNL     1       3.151   6.759  18.357  0.00  0.00    +0.000 A 
ATOM     15  C   UNL     1       2.585   6.722  19.633  0.00  0.00    +0.000 A 
ATOM     16  C   UNL     1       1.806   7.792  20.084  0.00  0.00    +0.000 A 
BRANCH  14  17
ATOM     17  O   UNL     1       3.955   5.774  17.831  0.00  0.00    +0.000 OA
BRANCH  17  18
ATOM     18  C   UNL     1       3.736   4.456  18.160  0.00  0.00    +0.000 A 
ATOM     19  C   UNL     1       2.762   3.798  17.406  0.00  0.00    +0.000 A 
ATOM     20  C   UNL     1       2.454   2.464  17.672  0.00  0.00    +0.000 A 
ATOM     21  C   UNL     1       3.119   1.781  18.689  0.00  0.00    +0.000 A 
ATOM     22  C   UNL     1       4.120   2.423  19.417  0.00  0.00    +0.000 A 
ATOM     23  C   UNL     1       4.450   3.749  19.132  0.00  0.00    +0.000 A 
ENDBRANCH  17  18
ENDBRANCH  14  17
ENDBRANCH   2  11
BRANCH   1  25
ATOM     24  N   UNL     1       0.304   9.439  23.184  0.00  0.00    +0.000 N 
ATOM     25  C   UNL     1      -0.255   9.106  21.979  0.00  0.00    +0.000 C 
ATOM     26  O   UNL     1      -0.891   8.063  21.865  0.00  0.00    +0.000 OA
ATOM     27  H   UNL     1       0.054   8.852  23.966  0.00  0.00    +0.000 HD
ATOM     28  H   UNL     1       0.587  10.394  23.353  0.00  0.00    +0.000 HD
ENDBRANCH   1  25
BRANCH   9  29
ATOM     29  C   UNL     1       0.758  14.056  18.780  0.00  0.00    +0.000 C 
ATOM     30  C   UNL     1       0.758  15.606  18.824  0.00  0.00    +0.000 C 
ATOM     31  N   UNL     1       2.184  15.539  19.219  0.00  0.00    +0.000 NA
ATOM     32  C   UNL     1       1.936  14.194  19.777  0.00  0.00    +0.000 C 
ATOM     33  H   UNL     1       2.467  16.250  19.892  0.00  0.00    +0.000 HD
ENDBRANCH   9  29
TORSDOF 5
ENDMDL
