MODEL 1
REMARK VINA RESULT:      -7.1      0.000      0.000
REMARK  Name = 
REMARK  4 active torsions:
REMARK  status: ('A' for Active; 'I' for Inactive)
REMARK    1  A    between atoms: N_1  and  C_2
REMARK    2  A    between atoms: C_2  and  N_4
REMARK    3  A    between atoms: N_5  and  C_6
REMARK    4  A    between atoms: C_7  and  O_8
REMARK                            x       y       z     vdW  Elec       q    Type
REMARK                         _______ _______ _______ _____ _____    ______ ____
ROOT
ATOM      1  C   UNL     1       5.999   4.433  14.726  0.00  0.00    +0.000 A 
ATOM      2  C   UNL     1       7.182   5.144  14.691  0.00  0.00    +0.000 A 
ATOM      3  N   UNL     1       7.503   5.463  15.980  0.00  0.00    +0.000 N 
ATOM      4  C   UNL     1       6.568   4.953  16.854  0.00  0.00    +0.000 A 
ATOM      5  C   UNL     1       6.497   5.023  18.250  0.00  0.00    +0.000 A 
ATOM      6 BR   UNL     1       7.807   5.944  19.254  0.00  0.00    +0.000 Br
ATOM      7  C   UNL     1       5.430   4.398  18.894  0.00  0.00    +0.000 A 
ATOM      8  C   UNL     1       4.467   3.721  18.149  0.00  0.00    +0.000 A 
ATOM      9 BR   UNL     1       3.033   2.872  19.049  0.00  0.00    +0.000 Br
ATOM     10  C   UNL     1       4.536   3.652  16.752  0.00  0.00    +0.000 A 
ATOM     11  C   UNL     1       5.608   4.284  16.087  0.00  0.00    +0.000 A 
ATOM     12  H   UNL     1       8.324   5.988  16.248  0.00  0.00    +0.000 HD
ENDROOT
BRANCH   1  14
ATOM     13  N   UNL     1       6.020   3.329  12.801  0.00  0.00    +0.000 NA
ATOM     14  N   UNL     1       5.286   3.900  13.638  0.00  0.00    +0.000 NA
BRANCH  13  15
ATOM     15  C   UNL     1       5.328   2.757  11.760  0.00  0.00    +0.000 C 
ATOM     16  S   UNL     1       3.926   3.263  10.994  0.00  0.00    +0.000 S 
BRANCH  15  17
ATOM     17  N   UNL     1       5.853   1.552  11.383  0.00  0.00    +0.000 N 
ATOM     18  H   UNL     1       6.726   1.238  11.785  0.00  0.00    +0.000 HD
ATOM     19  H   UNL     1       5.375   0.966  10.712  0.00  0.00    +0.000 HD
ENDBRANCH  15  17
ENDBRANCH  13  15
ENDBRANCH   1  14
BRANCH   2  20
ATOM     20  O   UNL     1       7.980   5.522  13.701  0.00  0.00    +0.000 OA
ATOM     21  H   UNL     1       7.885   4.837  13.009  0.00  0.00    +0.000 HD
ENDBRANCH   2  20
TORSDOF 4
ENDMDL
MODEL 2
REMARK VINA RESULT:      -6.3      3.501      4.840
REMARK  Name = 
REMARK  4 active torsions:
REMARK  status: ('A' for Active; 'I' for Inactive)
REMARK    1  A    between atoms: N_1  and  C_2
REMARK    2  A    between atoms: C_2  and  N_4
REMARK    3  A    between atoms: N_5  and  C_6
REMARK    4  A    between atoms: C_7  and  O_8
REMARK                            x       y       z     vdW  Elec       q    Type
REMARK                         _______ _______ _______ _____ _____    ______ ____
ROOT
ATOM      1  C   UNL     1       3.931   3.737  17.520  0.00  0.00    +0.000 A 
ATOM      2  C   UNL     1       3.845   2.409  17.887  0.00  0.00    +0.000 A 
ATOM      3  N   UNL     1       3.143   2.354  19.057  0.00  0.00    +0.000 N 
ATOM      4  C   UNL     1       2.749   3.616  19.447  0.00  0.00    +0.000 A 
ATOM      5  C   UNL     1       2.011   4.033  20.561  0.00  0.00    +0.000 A 
ATOM      6 BR   UNL     1       1.392   2.795  21.846  0.00  0.00    +0.000 Br
ATOM      7  C   UNL     1       1.741   5.394  20.707  0.00  0.00    +0.000 A 
ATOM      8  C   UNL     1       2.201   6.302  19.757  0.00  0.00    +0.000 A 
ATOM      9 BR   UNL     1       1.813   8.142  19.975  0.00  0.00    +0.000 Br
ATOM     10  C   UNL     1       2.941   5.885  18.643  0.00  0.00    +0.000 A 
ATOM     11  C   UNL     1       3.226   4.512  18.484  0.00  0.00    +0.000 A 
ATOM     12  H   UNL     1       2.931   1.501  19.554  0.00  0.00    +0.000 HD
ENDROOT
BRANCH   1  14
ATOM     13  N   UNL     1       5.767   3.943  16.291  0.00  0.00    +0.000 NA
ATOM     14  N   UNL     1       4.565   4.275  16.387  0.00  0.00    +0.000 NA
BRANCH  13  15
ATOM     15  C   UNL     1       6.383   4.419  15.158  0.00  0.00    +0.000 C 
ATOM     16  S   UNL     1       6.199   3.954  13.558  0.00  0.00    +0.000 S 
BRANCH  15  17
ATOM     17  N   UNL     1       7.342   5.352  15.436  0.00  0.00    +0.000 N 
ATOM     18  H   UNL     1       7.070   6.307  15.629  0.00  0.00    +0.000 HD
ATOM     19  H   UNL     1       8.320   5.099  15.461  0.00  0.00    +0.000 HD
ENDBRANCH  15  17
ENDBRANCH  13  15
ENDBRANCH   1  14
BRANCH   2  20
ATOM     20  O   UNL     1       4.286   1.288  17.331  0.00  0.00    +0.000 OA
ATOM     21  H   UNL     1       3.550   0.648  17.407  0.00  0.00    +0.000 HD
ENDBRANCH   2  20
TORSDOF 4
ENDMDL
MODEL 3
REMARK VINA RESULT:      -6.1      5.899      7.238
REMARK  Name = 
REMARK  4 active torsions:
REMARK  status: ('A' for Active; 'I' for Inactive)
REMARK    1  A    between atoms: N_1  and  C_2
REMARK    2  A    between atoms: C_2  and  N_4
REMARK    3  A    between atoms: N_5  and  C_6
REMARK    4  A    between atoms: C_7  and  O_8
REMARK                            x       y       z     vdW  Elec       q    Type
REMARK                         _______ _______ _______ _____ _____    ______ ____
ROOT
ATOM      1  C   UNL     1       2.594   7.254  18.916  0.00  0.00    +0.000 A 
ATOM      2  C   UNL     1       2.216   6.722  20.132  0.00  0.00    +0.000 A 
ATOM      3  N   UNL     1       2.756   5.470  20.215  0.00  0.00    +0.000 N 
ATOM      4  C   UNL     1       3.498   5.185  19.089  0.00  0.00    +0.000 A 
ATOM      5  C   UNL     1       4.228   4.041  18.749  0.00  0.00    +0.000 A 
ATOM      6 BR   UNL     1       4.299   2.544  19.900  0.00  0.00    +0.000 Br
ATOM      7  C   UNL     1       4.907   4.024  17.531  0.00  0.00    +0.000 A 
ATOM      8  C   UNL     1       4.851   5.130  16.686  0.00  0.00    +0.000 A 
ATOM      9 BR   UNL     1       5.789   5.084  15.042  0.00  0.00    +0.000 Br
ATOM     10  C   UNL     1       4.118   6.274  17.025  0.00  0.00    +0.000 A 
ATOM     11  C   UNL     1       3.423   6.304  18.253  0.00  0.00    +0.000 A 
ATOM     12  H   UNL     1       2.636   4.850  21.004  0.00  0.00    +0.000 HD
ENDROOT
BRANCH   1  14
ATOM     13  N   UNL     1       1.414   9.127  19.073  0.00  0.00    +0.000 NA
ATOM     14  N   UNL     1       2.271   8.518  18.394  0.00  0.00    +0.000 NA
BRANCH  13  15
ATOM     15  C   UNL     1       1.130  10.386  18.603  0.00  0.00    +0.000 C 
ATOM     16  S   UNL     1      -0.238  11.331  18.817  0.00  0.00    +0.000 S 
BRANCH  15  17
ATOM     17  N   UNL     1       2.103  10.866  17.770  0.00  0.00    +0.000 N 
ATOM     18  H   UNL     1       1.847  11.250  16.871  0.00  0.00    +0.000 HD
ATOM     19  H   UNL     1       3.075  10.849  18.046  0.00  0.00    +0.000 HD
ENDBRANCH  15  17
ENDBRANCH  13  15
ENDBRANCH   1  14
BRANCH   2  20
ATOM     20  O   UNL     1       1.489   7.193  21.138  0.00  0.00    +0.000 OA
ATOM     21  H   UNL     1       0.694   7.587  20.727  0.00  0.00    +0.000 HD
ENDBRANCH   2  20
TORSDOF 4
ENDMDL
MODEL 4
REMARK VINA RESULT:      -5.8      3.489      4.327
REMARK  Name = 
REMARK  4 active torsions:
REMARK  status: ('A' for Active; 'I' for Inactive)
REMARK    1  A    between atoms: N_1  and  C_2
REMARK    2  A    between atoms: C_2  and  N_4
REMARK    3  A    between atoms: N_5  and  C_6
REMARK    4  A    between atoms: C_7  and  O_8
REMARK                            x       y       z     vdW  Elec       q    Type
REMARK                         _______ _______ _______ _____ _____    ______ ____
ROOT
ATOM      1  C   UNL     1       4.546   4.902  16.757  0.00  0.00    +0.000 A 
ATOM      2  C   UNL     1       4.441   3.687  17.406  0.00  0.00    +0.000 A 
ATOM      3  N   UNL     1       3.659   3.880  18.508  0.00  0.00    +0.000 N 
ATOM      4  C   UNL     1       3.233   5.189  18.579  0.00  0.00    +0.000 A 
ATOM      5  C   UNL     1       2.417   5.829  19.519  0.00  0.00    +0.000 A 
ATOM      6 BR   UNL     1       1.715   4.896  21.005  0.00  0.00    +0.000 Br
ATOM      7  C   UNL     1       2.130   7.182  19.339  0.00  0.00    +0.000 A 
ATOM      8  C   UNL     1       2.651   7.864  18.242  0.00  0.00    +0.000 A 
ATOM      9 BR   UNL     1       2.238   9.699  18.016  0.00  0.00    +0.000 Br
ATOM     10  C   UNL     1       3.469   7.225  17.302  0.00  0.00    +0.000 A 
ATOM     11  C   UNL     1       3.771   5.857  17.473  0.00  0.00    +0.000 A 
ATOM     12  H   UNL     1       3.418   3.155  19.169  0.00  0.00    +0.000 HD
ENDROOT
BRANCH   1  14
ATOM     13  N   UNL     1       5.982   4.241  15.200  0.00  0.00    +0.000 NA
ATOM     14  N   UNL     1       5.255   5.186  15.578  0.00  0.00    +0.000 NA
BRANCH  13  15
ATOM     15  C   UNL     1       6.638   4.487  14.018  0.00  0.00    +0.000 C 
ATOM     16  S   UNL     1       6.479   3.744  12.524  0.00  0.00    +0.000 S 
BRANCH  15  17
ATOM     17  N   UNL     1       7.617   5.432  14.150  0.00  0.00    +0.000 N 
ATOM     18  H   UNL     1       7.421   6.394  13.905  0.00  0.00    +0.000 HD
ATOM     19  H   UNL     1       8.533   5.184  14.498  0.00  0.00    +0.000 HD
ENDBRANCH  15  17
ENDBRANCH  13  15
ENDBRANCH   1  14
BRANCH   2  20
ATOM     20  O   UNL     1       4.926   2.480  17.146  0.00  0.00    +0.000 OA
ATOM     21  H   UNL     1       5.884   2.606  16.998  0.00  0.00    +0.000 HD
ENDBRANCH   2  20
TORSDOF 4
ENDMDL
MODEL 5
REMARK VINA RESULT:      -5.7      6.953      8.238
REMARK  Name = 
REMARK  4 active torsions:
REMARK  status: ('A' for Active; 'I' for Inactive)
REMARK    1  A    between atoms: N_1  and  C_2
REMARK    2  A    between atoms: C_2  and  N_4
REMARK    3  A    between atoms: N_5  and  C_6
REMARK    4  A    between atoms: C_7  and  O_8
REMARK                            x       y       z     vdW  Elec       q    Type
REMARK                         _______ _______ _______ _____ _____    ______ ____
ROOT
ATOM      1  C   UNL     1       1.703   8.421  19.337  0.00  0.00    +0.000 A 
ATOM      2  C   UNL     1       2.236   8.909  18.160  0.00  0.00    +0.000 A 
ATOM      3  N   UNL     1       2.999   7.917  17.615  0.00  0.00    +0.000 N 
ATOM      4  C   UNL     1       2.956   6.784  18.399  0.00  0.00    +0.000 A 
ATOM      5  C   UNL     1       3.568   5.537  18.228  0.00  0.00    +0.000 A 
ATOM      6 BR   UNL     1       4.683   5.188  16.743  0.00  0.00    +0.000 Br
ATOM      7  C   UNL     1       3.340   4.548  19.184  0.00  0.00    +0.000 A 
ATOM      8  C   UNL     1       2.518   4.811  20.277  0.00  0.00    +0.000 A 
ATOM      9 BR   UNL     1       2.218   3.448  21.556  0.00  0.00    +0.000 Br
ATOM     10  C   UNL     1       1.906   6.059  20.450  0.00  0.00    +0.000 A 
ATOM     11  C   UNL     1       2.131   7.072  19.492  0.00  0.00    +0.000 A 
ATOM     12  H   UNL     1       3.510   8.003  16.748  0.00  0.00    +0.000 HD
ENDROOT
BRANCH   1  14
ATOM     13  N   UNL     1       0.444  10.187  19.804  0.00  0.00    +0.000 NA
ATOM     14  N   UNL     1       0.857   9.088  20.238  0.00  0.00    +0.000 NA
BRANCH  13  15
ATOM     15  C   UNL     1      -0.427  10.824  20.655  0.00  0.00    +0.000 C 
ATOM     16  S   UNL     1      -0.565  10.728  22.323  0.00  0.00    +0.000 S 
BRANCH  15  17
ATOM     17  N   UNL     1      -1.357  11.572  19.988  0.00  0.00    +0.000 N 
ATOM     18  H   UNL     1      -1.588  12.498  20.323  0.00  0.00    +0.000 HD
ATOM     19  H   UNL     1      -1.812  11.215  19.159  0.00  0.00    +0.000 HD
ENDBRANCH  15  17
ENDBRANCH  13  15
ENDBRANCH   1  14
BRANCH   2  20
ATOM     20  O   UNL     1       2.126  10.074  17.534  0.00  0.00    +0.000 OA
ATOM     21  H   UNL     1       1.878   9.857  16.614  0.00  0.00    +0.000 HD
ENDBRANCH   2  20
TORSDOF 4
ENDMDL
MODEL 6
REMARK VINA RESULT:      -5.7      6.445      7.857
REMARK  Name = 
REMARK  4 active torsions:
REMARK  status: ('A' for Active; 'I' for Inactive)
REMARK    1  A    between atoms: N_1  and  C_2
REMARK    2  A    between atoms: C_2  and  N_4
REMARK    3  A    between atoms: N_5  and  C_6
REMARK    4  A    between atoms: C_7  and  O_8
REMARK                            x       y       z     vdW  Elec       q    Type
REMARK                         _______ _______ _______ _____ _____    ______ ____
ROOT
ATOM      1  C   UNL     1       2.031   7.801  19.389  0.00  0.00    +0.000 A 
ATOM      2  C   UNL     1       2.555   8.258  18.196  0.00  0.00    +0.000 A 
ATOM      3  N   UNL     1       3.221   7.215  17.618  0.00  0.00    +0.000 N 
ATOM      4  C   UNL     1       3.121   6.082  18.397  0.00  0.00    +0.000 A 
ATOM      5  C   UNL     1       3.630   4.794  18.197  0.00  0.00    +0.000 A 
ATOM      6 BR   UNL     1       4.660   4.374  16.670  0.00  0.00    +0.000 Br
ATOM      7  C   UNL     1       3.364   3.818  19.156  0.00  0.00    +0.000 A 
ATOM      8  C   UNL     1       2.604   4.134  20.279  0.00  0.00    +0.000 A 
ATOM      9 BR   UNL     1       2.248   2.786  21.562  0.00  0.00    +0.000 Br
ATOM     10  C   UNL     1       2.095   5.422  20.481  0.00  0.00    +0.000 A 
ATOM     11  C   UNL     1       2.360   6.422  19.522  0.00  0.00    +0.000 A 
ATOM     12  H   UNL     1       3.705   7.269  16.733  0.00  0.00    +0.000 HD
ENDROOT
BRANCH   1  14
ATOM     13  N   UNL     1       0.655   9.488  19.819  0.00  0.00    +0.000 NA
ATOM     14  N   UNL     1       1.271   8.524  20.325  0.00  0.00    +0.000 NA
BRANCH  13  15
ATOM     15  C   UNL     1      -0.134  10.169  20.715  0.00  0.00    +0.000 C 
ATOM     16  S   UNL     1      -0.851  11.679  20.585  0.00  0.00    +0.000 S 
BRANCH  15  17
ATOM     17  N   UNL     1      -0.255   9.514  21.909  0.00  0.00    +0.000 N 
ATOM     18  H   UNL     1       0.144   9.920  22.745  0.00  0.00    +0.000 HD
ATOM     19  H   UNL     1      -0.748   8.634  21.969  0.00  0.00    +0.000 HD
ENDBRANCH  15  17
ENDBRANCH  13  15
ENDBRANCH   1  14
BRANCH   2  20
ATOM     20  O   UNL     1       2.511   9.432  17.581  0.00  0.00    +0.000 OA
ATOM     21  H   UNL     1       1.569   9.695  17.580  0.00  0.00    +0.000 HD
ENDBRANCH   2  20
TORSDOF 4
ENDMDL
MODEL 7
REMARK VINA RESULT:      -5.6      5.841      6.869
REMARK  Name = 
REMARK  4 active torsions:
REMARK  status: ('A' for Active; 'I' for Inactive)
REMARK    1  A    between atoms: N_1  and  C_2
REMARK    2  A    between atoms: C_2  and  N_4
REMARK    3  A    between atoms: N_5  and  C_6
REMARK    4  A    between atoms: C_7  and  O_8
REMARK                            x       y       z     vdW  Elec       q    Type
REMARK                         _______ _______ _______ _____ _____    ______ ____
ROOT
ATOM      1  C   UNL     1       4.100   2.920  20.019  0.00  0.00    +0.000 A 
ATOM      2  C   UNL     1       3.178   3.388  20.934  0.00  0.00    +0.000 A 
ATOM      3  N   UNL     1       2.782   4.627  20.517  0.00  0.00    +0.000 N 
ATOM      4  C   UNL     1       3.408   4.965  19.337  0.00  0.00    +0.000 A 
ATOM      5  C   UNL     1       3.301   6.118  18.551  0.00  0.00    +0.000 A 
ATOM      6 BR   UNL     1       2.172   7.547  19.054  0.00  0.00    +0.000 Br
ATOM      7  C   UNL     1       4.053   6.195  17.379  0.00  0.00    +0.000 A 
ATOM      8  C   UNL     1       4.884   5.139  17.013  0.00  0.00    +0.000 A 
ATOM      9 BR   UNL     1       5.887   5.266  15.412  0.00  0.00    +0.000 Br
ATOM     10  C   UNL     1       4.993   3.986  17.800  0.00  0.00    +0.000 A 
ATOM     11  C   UNL     1       4.242   3.896  18.991  0.00  0.00    +0.000 A 
ATOM     12  H   UNL     1       2.110   5.203  21.004  0.00  0.00    +0.000 HD
ENDROOT
BRANCH   1  14
ATOM     13  N   UNL     1       5.194   1.375  21.176  0.00  0.00    +0.000 NA
ATOM     14  N   UNL     1       4.781   1.691  20.038  0.00  0.00    +0.000 NA
BRANCH  13  15
ATOM     15  C   UNL     1       5.815   0.150  21.217  0.00  0.00    +0.000 C 
ATOM     16  S   UNL     1       6.689  -0.572  22.452  0.00  0.00    +0.000 S 
BRANCH  15  17
ATOM     17  N   UNL     1       5.754  -0.508  20.020  0.00  0.00    +0.000 N 
ATOM     18  H   UNL     1       6.045  -1.475  19.966  0.00  0.00    +0.000 HD
ATOM     19  H   UNL     1       5.413  -0.043  19.190  0.00  0.00    +0.000 HD
ENDBRANCH  15  17
ENDBRANCH  13  15
ENDBRANCH   1  14
BRANCH   2  20
ATOM     20  O   UNL     1       2.661   2.870  22.041  0.00  0.00    +0.000 OA
ATOM     21  H   UNL     1       1.934   3.471  22.300  0.00  0.00    +0.000 HD
ENDBRANCH   2  20
TORSDOF 4
ENDMDL
MODEL 8
REMARK VINA RESULT:      -5.6      6.499      7.792
REMARK  Name = 
REMARK  4 active torsions:
REMARK  status: ('A' for Active; 'I' for Inactive)
REMARK    1  A    between atoms: N_1  and  C_2
REMARK    2  A    between atoms: C_2  and  N_4
REMARK    3  A    between atoms: N_5  and  C_6
REMARK    4  A    between atoms: C_7  and  O_8
REMARK                            x       y       z     vdW  Elec       q    Type
REMARK                         _______ _______ _______ _____ _____    ______ ____
ROOT
ATOM      1  C   UNL     1       2.108   7.742  19.459  0.00  0.00    +0.000 A 
ATOM      2  C   UNL     1       1.532   7.390  20.663  0.00  0.00    +0.000 A 
ATOM      3  N   UNL     1       1.808   6.070  20.877  0.00  0.00    +0.000 N 
ATOM      4  C   UNL     1       2.572   5.561  19.849  0.00  0.00    +0.000 A 
ATOM      5  C   UNL     1       3.091   4.276  19.654  0.00  0.00    +0.000 A 
ATOM      6 BR   UNL     1       2.772   2.890  20.898  0.00  0.00    +0.000 Br
ATOM      7  C   UNL     1       3.853   4.033  18.511  0.00  0.00    +0.000 A 
ATOM      8  C   UNL     1       4.085   5.059  17.598  0.00  0.00    +0.000 A 
ATOM      9 BR   UNL     1       5.131   4.705  16.059  0.00  0.00    +0.000 Br
ATOM     10  C   UNL     1       3.564   6.344  17.791  0.00  0.00    +0.000 A 
ATOM     11  C   UNL     1       2.787   6.603  18.940  0.00  0.00    +0.000 A 
ATOM     12  H   UNL     1       1.504   5.549  21.687  0.00  0.00    +0.000 HD
ENDROOT
BRANCH   1  14
ATOM     13  N   UNL     1       1.148   9.729  19.227  0.00  0.00    +0.000 NA
ATOM     14  N   UNL     1       2.082   8.998  18.830  0.00  0.00    +0.000 NA
BRANCH  13  15
ATOM     15  C   UNL     1       1.145  10.980  18.659  0.00  0.00    +0.000 C 
ATOM     16  S   UNL     1       0.096  12.267  18.894  0.00  0.00    +0.000 S 
BRANCH  15  17
ATOM     17  N   UNL     1       2.111  11.122  17.702  0.00  0.00    +0.000 N 
ATOM     18  H   UNL     1       2.601  10.306  17.361  0.00  0.00    +0.000 HD
ATOM     19  H   UNL     1       2.337  12.032  17.324  0.00  0.00    +0.000 HD
ENDBRANCH  15  17
ENDBRANCH  13  15
ENDBRANCH   1  14
BRANCH   2  20
ATOM     20  O   UNL     1       0.830   8.069  21.561  0.00  0.00    +0.000 OA
ATOM     21  H   UNL     1       1.079   9.007  21.438  0.00  0.00    +0.000 HD
ENDBRANCH   2  20
TORSDOF 4
ENDMDL
MODEL 9
REMARK VINA RESULT:      -5.6     10.585     11.144
REMARK  Name = 
REMARK  4 active torsions:
REMARK  status: ('A' for Active; 'I' for Inactive)
REMARK    1  A    between atoms: N_1  and  C_2
REMARK    2  A    between atoms: C_2  and  N_4
REMARK    3  A    between atoms: N_5  and  C_6
REMARK    4  A    between atoms: C_7  and  O_8
REMARK                            x       y       z     vdW  Elec       q    Type
REMARK                         _______ _______ _______ _____ _____    ______ ____
ROOT
ATOM      1  C   UNL     1      -3.318  10.594  16.424  0.00  0.00    +0.000 A 
ATOM      2  C   UNL     1      -4.291  11.417  16.956  0.00  0.00    +0.000 A 
ATOM      3  N   UNL     1      -3.837  11.851  18.169  0.00  0.00    +0.000 N 
ATOM      4  C   UNL     1      -2.580  11.350  18.426  0.00  0.00    +0.000 A 
ATOM      5  C   UNL     1      -1.736  11.535  19.527  0.00  0.00    +0.000 A 
ATOM      6 BR   UNL     1      -2.259  12.605  20.994  0.00  0.00    +0.000 Br
ATOM      7  C   UNL     1      -0.490  10.908  19.523  0.00  0.00    +0.000 A 
ATOM      8  C   UNL     1      -0.111  10.120  18.439  0.00  0.00    +0.000 A 
ATOM      9 BR   UNL     1       1.590   9.287  18.455  0.00  0.00    +0.000 Br
ATOM     10  C   UNL     1      -0.955   9.932  17.338  0.00  0.00    +0.000 A 
ATOM     11  C   UNL     1      -2.220  10.558  17.330  0.00  0.00    +0.000 A 
ATOM     12  H   UNL     1      -4.352  12.469  18.781  0.00  0.00    +0.000 HD
ENDROOT
BRANCH   1  14
ATOM     13  N   UNL     1      -3.842  10.597  14.268  0.00  0.00    +0.000 NA
ATOM     14  N   UNL     1      -3.347   9.916  15.193  0.00  0.00    +0.000 NA
BRANCH  13  15
ATOM     15  C   UNL     1      -3.826   9.965  13.048  0.00  0.00    +0.000 C 
ATOM     16  S   UNL     1      -5.090   9.598  12.009  0.00  0.00    +0.000 S 
BRANCH  15  17
ATOM     17  N   UNL     1      -2.581   9.510  12.710  0.00  0.00    +0.000 N 
ATOM     18  H   UNL     1      -1.772  10.091  12.886  0.00  0.00    +0.000 HD
ATOM     19  H   UNL     1      -2.458   8.597  12.296  0.00  0.00    +0.000 HD
ENDBRANCH  15  17
ENDBRANCH  13  15
ENDBRANCH   1  14
BRANCH   2  20
ATOM     20  O   UNL     1      -5.476  11.818  16.514  0.00  0.00    +0.000 OA
ATOM     21  H   UNL     1      -6.135  11.334  17.051  0.00  0.00    +0.000 HD
ENDBRANCH   2  20
TORSDOF 4
ENDMDL
