MODEL 1
REMARK VINA RESULT:      -8.8      0.000      0.000
REMARK  Name = 
REMARK  10 active torsions:
REMARK  status: ('A' for Active; 'I' for Inactive)
REMARK    1  A    between atoms: C_1  and  C_2
REMARK    2  A    between atoms: C_2  and  O_3
REMARK    3  A    between atoms: C_2  and  C_4
REMARK    4  A    between atoms: C_2  and  C_28
REMARK    5  A    between atoms: N_6  and  C_7
REMARK    6  A    between atoms: C_10  and  C_11
REMARK    7  A    between atoms: N_13  and  CA_14
REMARK    8  A    between atoms: CA_14  and  CB_15
REMARK    9  A    between atoms: CA_14  and  C_22
REMARK   10  A    between atoms: CB_15  and  CG_16
REMARK                            x       y       z     vdW  Elec       q    Type
REMARK                         _______ _______ _______ _____ _____    ______ ____
ROOT
ATOM      1  C   UNK A   0       1.069   9.500  18.848  0.00  0.00    +0.000 A 
ATOM      2  C   UNK A   0       1.956   9.360  17.783  0.00  0.00    +0.000 A 
ATOM      3  C   UNK A   0       2.868   8.310  17.751  0.00  0.00    +0.000 A 
ATOM      4  C   UNK A   0       2.945   7.404  18.813  0.00  0.00    +0.000 A 
ATOM      5  C   UNK A   0       2.111   7.570  19.920  0.00  0.00    +0.000 A 
ATOM      6  C   UNK A   0       1.187   8.621  19.941  0.00  0.00    +0.000 A 
ATOM      7 CL   UNK A   0       0.151   8.789  21.320  0.00  0.00    +0.000 Cl
ENDROOT
BRANCH   1  10
ATOM      8  C   UNK A   0      -1.079  10.443  17.992  0.00  0.00    +0.000 C 
ATOM      9  O   UNK A   0      -1.294   9.577  17.166  0.00  0.00    +0.000 OA
ATOM     10  N   UNK A   0       0.030  10.469  18.833  0.00  0.00    +0.000 N 
ATOM     11  H   UNK A   0       0.058  11.122  19.612  0.00  0.00    +0.000 HD
BRANCH   8  13
ATOM     12  C   UNK A   0      -2.084  12.042  19.625  0.00  0.00    +0.000 C 
ATOM     13  C   UNK A   0      -2.047  11.610  18.160  0.00  0.00    +0.000 C 
BRANCH  13  14
ATOM     14  C   UNK A   0      -3.452  11.160  17.688  0.00  0.00    +0.000 C 
ATOM     15  F   UNK A   0      -3.748   9.878  17.960  0.00  0.00    +0.000 F 
ATOM     16  F   UNK A   0      -4.415  11.926  18.285  0.00  0.00    +0.000 F 
ATOM     17  F   UNK A   0      -3.685  11.387  16.364  0.00  0.00    +0.000 F 
ENDBRANCH  13  14
BRANCH  13  18
ATOM     18  O   UNK A   0      -1.580  12.695  17.320  0.00  0.00    +0.000 OA
ATOM     19  H   UNK A   0      -0.779  12.406  16.844  0.00  0.00    +0.000 HD
ENDBRANCH  13  18
ENDBRANCH   8  13
ENDBRANCH   1  10
BRANCH   4  20
ATOM     20  C   UNK A   0       3.849   6.218  18.742  0.00  0.00    +0.000 C 
ATOM     21  O   UNK A   0       4.000   5.518  19.731  0.00  0.00    +0.000 OA
ATOM     22  N   PHE A   1       4.412   5.995  17.522  0.00  0.00    +0.000 N 
ATOM     23  H   PHE A   1       4.417   6.676  16.769  0.00  0.00    +0.000 HD
BRANCH  22  24
ATOM     24  CA  PHE A   1       5.248   4.846  17.124  0.00  0.00    +0.000 C 
BRANCH  24  25
ATOM     25  C   PHE A   1       6.304   5.286  16.053  0.00  0.00    +0.000 C 
ATOM     26  O   PHE A   1       7.444   4.750  16.126  0.00  0.00    +0.000 OA
ATOM     27  OXT PHE A   1       5.869   6.176  15.248  0.00  0.00    +0.000 OA
ENDBRANCH  24  25
BRANCH  24  28
ATOM     28  CB  PHE A   1       4.433   3.647  16.623  0.00  0.00    +0.000 C 
BRANCH  28  29
ATOM     29  CG  PHE A   1       3.308   3.179  17.528  0.00  0.00    +0.000 A 
ATOM     30  CD1 PHE A   1       2.031   3.742  17.411  0.00  0.00    +0.000 A 
ATOM     31  CE1 PHE A   1       0.978   3.296  18.213  0.00  0.00    +0.000 A 
ATOM     32  CZ  PHE A   1       1.193   2.282  19.143  0.00  0.00    +0.000 A 
ATOM     33  CE2 PHE A   1       2.463   1.722  19.280  0.00  0.00    +0.000 A 
ATOM     34  CD2 PHE A   1       3.517   2.170  18.477  0.00  0.00    +0.000 A 
ENDBRANCH  28  29
ENDBRANCH  24  28
ENDBRANCH  22  24
ENDBRANCH   4  20
TORSDOF 9
ENDMDL
MODEL 2
REMARK VINA RESULT:      -8.6      1.328      1.781
REMARK  Name = 
REMARK  10 active torsions:
REMARK  status: ('A' for Active; 'I' for Inactive)
REMARK    1  A    between atoms: C_1  and  C_2
REMARK    2  A    between atoms: C_2  and  O_3
REMARK    3  A    between atoms: C_2  and  C_4
REMARK    4  A    between atoms: C_2  and  C_28
REMARK    5  A    between atoms: N_6  and  C_7
REMARK    6  A    between atoms: C_10  and  C_11
REMARK    7  A    between atoms: N_13  and  CA_14
REMARK    8  A    between atoms: CA_14  and  CB_15
REMARK    9  A    between atoms: CA_14  and  C_22
REMARK   10  A    between atoms: CB_15  and  CG_16
REMARK                            x       y       z     vdW  Elec       q    Type
REMARK                         _______ _______ _______ _____ _____    ______ ____
ROOT
ATOM      1  C   UNK A   0       1.149   9.537  18.730  0.00  0.00    +0.000 A 
ATOM      2  C   UNK A   0       2.059   9.298  17.704  0.00  0.00    +0.000 A 
ATOM      3  C   UNK A   0       2.929   8.214  17.763  0.00  0.00    +0.000 A 
ATOM      4  C   UNK A   0       2.938   7.371  18.879  0.00  0.00    +0.000 A 
ATOM      5  C   UNK A   0       2.079   7.637  19.948  0.00  0.00    +0.000 A 
ATOM      6  C   UNK A   0       1.199   8.722  19.877  0.00  0.00    +0.000 A 
ATOM      7 CL   UNK A   0       0.131   9.013  21.210  0.00  0.00    +0.000 Cl
ENDROOT
BRANCH   1  10
ATOM      8  C   UNK A   0       0.303  11.869  19.016  0.00  0.00    +0.000 C 
ATOM      9  O   UNK A   0       1.321  12.331  19.495  0.00  0.00    +0.000 OA
ATOM     10  N   UNK A   0       0.150  10.543  18.624  0.00  0.00    +0.000 N 
ATOM     11  H   UNK A   0      -0.661  10.268  18.075  0.00  0.00    +0.000 HD
BRANCH   8  13
ATOM     12  C   UNK A   0      -0.586  14.197  19.170  0.00  0.00    +0.000 C 
ATOM     13  C   UNK A   0      -0.925  12.751  18.812  0.00  0.00    +0.000 C 
BRANCH  13  14
ATOM     14  C   UNK A   0      -2.070  12.221  19.710  0.00  0.00    +0.000 C 
ATOM     15  F   UNK A   0      -1.662  11.646  20.854  0.00  0.00    +0.000 F 
ATOM     16  F   UNK A   0      -2.908  13.244  20.056  0.00  0.00    +0.000 F 
ATOM     17  F   UNK A   0      -2.916  11.362  19.071  0.00  0.00    +0.000 F 
ENDBRANCH  13  14
BRANCH  13  18
ATOM     18  O   UNK A   0      -1.316  12.648  17.420  0.00  0.00    +0.000 OA
ATOM     19  H   UNK A   0      -0.758  11.978  16.982  0.00  0.00    +0.000 HD
ENDBRANCH  13  18
ENDBRANCH   8  13
ENDBRANCH   1  10
BRANCH   4  20
ATOM     20  C   UNK A   0       3.795   6.150  18.907  0.00  0.00    +0.000 C 
ATOM     21  O   UNK A   0       3.767   5.419  19.886  0.00  0.00    +0.000 OA
ATOM     22  N   PHE A   1       4.526   5.932  17.779  0.00  0.00    +0.000 N 
ATOM     23  H   PHE A   1       4.671   6.630  17.056  0.00  0.00    +0.000 HD
BRANCH  22  24
ATOM     24  CA  PHE A   1       5.366   4.757  17.475  0.00  0.00    +0.000 C 
BRANCH  24  25
ATOM     25  C   PHE A   1       6.584   5.176  16.582  0.00  0.00    +0.000 C 
ATOM     26  O   PHE A   1       7.672   4.571  16.786  0.00  0.00    +0.000 OA
ATOM     27  OXT PHE A   1       6.315   6.121  15.768  0.00  0.00    +0.000 OA
ENDBRANCH  24  25
BRANCH  24  28
ATOM     28  CB  PHE A   1       4.587   3.605  16.828  0.00  0.00    +0.000 C 
BRANCH  28  29
ATOM     29  CG  PHE A   1       3.362   3.120  17.581  0.00  0.00    +0.000 A 
ATOM     30  CD1 PHE A   1       3.474   2.076  18.507  0.00  0.00    +0.000 A 
ATOM     31  CE1 PHE A   1       2.362   1.644  19.232  0.00  0.00    +0.000 A 
ATOM     32  CZ  PHE A   1       1.124   2.251  19.036  0.00  0.00    +0.000 A 
ATOM     33  CE2 PHE A   1       0.995   3.282  18.105  0.00  0.00    +0.000 A 
ATOM     34  CD2 PHE A   1       2.109   3.713  17.379  0.00  0.00    +0.000 A 
ENDBRANCH  28  29
ENDBRANCH  24  28
ENDBRANCH  22  24
ENDBRANCH   4  20
TORSDOF 9
ENDMDL
MODEL 3
REMARK VINA RESULT:      -8.6      1.943      3.602
REMARK  Name = 
REMARK  10 active torsions:
REMARK  status: ('A' for Active; 'I' for Inactive)
REMARK    1  A    between atoms: C_1  and  C_2
REMARK    2  A    between atoms: C_2  and  O_3
REMARK    3  A    between atoms: C_2  and  C_4
REMARK    4  A    between atoms: C_2  and  C_28
REMARK    5  A    between atoms: N_6  and  C_7
REMARK    6  A    between atoms: C_10  and  C_11
REMARK    7  A    between atoms: N_13  and  CA_14
REMARK    8  A    between atoms: CA_14  and  CB_15
REMARK    9  A    between atoms: CA_14  and  C_22
REMARK   10  A    between atoms: CB_15  and  CG_16
REMARK                            x       y       z     vdW  Elec       q    Type
REMARK                         _______ _______ _______ _____ _____    ______ ____
ROOT
ATOM      1  C   UNK A   0       1.438   9.473  19.136  0.00  0.00    +0.000 A 
ATOM      2  C   UNK A   0       2.093   8.978  18.011  0.00  0.00    +0.000 A 
ATOM      3  C   UNK A   0       2.545   7.662  17.973  0.00  0.00    +0.000 A 
ATOM      4  C   UNK A   0       2.395   6.828  19.085  0.00  0.00    +0.000 A 
ATOM      5  C   UNK A   0       1.802   7.330  20.246  0.00  0.00    +0.000 A 
ATOM      6  C   UNK A   0       1.339   8.649  20.273  0.00  0.00    +0.000 A 
ATOM      7 CL   UNK A   0       0.590   9.237  21.721  0.00  0.00    +0.000 Cl
ENDROOT
BRANCH   1  10
ATOM      8  C   UNK A   0      -0.438  11.051  18.660  0.00  0.00    +0.000 C 
ATOM      9  O   UNK A   0      -1.193  10.230  18.176  0.00  0.00    +0.000 OA
ATOM     10  N   UNK A   0       0.834  10.759  19.143  0.00  0.00    +0.000 N 
ATOM     11  H   UNK A   0       1.339  11.454  19.689  0.00  0.00    +0.000 HD
BRANCH   8  13
ATOM     12  C   UNK A   0       0.315  13.343  19.302  0.00  0.00    +0.000 C 
ATOM     13  C   UNK A   0      -0.852  12.515  18.767  0.00  0.00    +0.000 C 
BRANCH  13  14
ATOM     14  C   UNK A   0      -2.073  12.616  19.716  0.00  0.00    +0.000 C 
ATOM     15  F   UNK A   0      -3.247  12.287  19.151  0.00  0.00    +0.000 F 
ATOM     16  F   UNK A   0      -1.902  11.789  20.790  0.00  0.00    +0.000 F 
ATOM     17  F   UNK A   0      -2.205  13.836  20.312  0.00  0.00    +0.000 F 
ENDBRANCH  13  14
BRANCH  13  18
ATOM     18  O   UNK A   0      -1.232  12.964  17.443  0.00  0.00    +0.000 OA
ATOM     19  H   UNK A   0      -0.439  13.296  16.981  0.00  0.00    +0.000 HD
ENDBRANCH  13  18
ENDBRANCH   8  13
ENDBRANCH   1  10
BRANCH   4  20
ATOM     20  C   UNK A   0       2.785   5.389  19.019  0.00  0.00    +0.000 C 
ATOM     21  O   UNK A   0       3.265   4.851  20.005  0.00  0.00    +0.000 OA
ATOM     22  N   PHE A   1       2.522   4.774  17.832  0.00  0.00    +0.000 N 
ATOM     23  H   PHE A   1       2.290   5.271  16.978  0.00  0.00    +0.000 HD
BRANCH  22  24
ATOM     24  CA  PHE A   1       2.691   3.343  17.515  0.00  0.00    +0.000 C 
BRANCH  24  25
ATOM     25  C   PHE A   1       1.815   2.467  18.475  0.00  0.00    +0.000 C 
ATOM     26  O   PHE A   1       0.565   2.608  18.390  0.00  0.00    +0.000 OA
ATOM     27  OXT PHE A   1       2.503   1.730  19.258  0.00  0.00    +0.000 OA
ENDBRANCH  24  25
BRANCH  24  28
ATOM     28  CB  PHE A   1       4.154   2.883  17.541  0.00  0.00    +0.000 C 
BRANCH  28  29
ATOM     29  CG  PHE A   1       5.174   3.868  16.999  0.00  0.00    +0.000 A 
ATOM     30  CD1 PHE A   1       6.115   4.450  17.857  0.00  0.00    +0.000 A 
ATOM     31  CE1 PHE A   1       7.080   5.330  17.365  0.00  0.00    +0.000 A 
ATOM     32  CZ  PHE A   1       7.113   5.639  16.007  0.00  0.00    +0.000 A 
ATOM     33  CE2 PHE A   1       6.173   5.078  15.144  0.00  0.00    +0.000 A 
ATOM     34  CD2 PHE A   1       5.205   4.198  15.638  0.00  0.00    +0.000 A 
ENDBRANCH  28  29
ENDBRANCH  24  28
ENDBRANCH  22  24
ENDBRANCH   4  20
TORSDOF 9
ENDMDL
MODEL 4
REMARK VINA RESULT:      -8.6      2.014      3.267
REMARK  Name = 
REMARK  10 active torsions:
REMARK  status: ('A' for Active; 'I' for Inactive)
REMARK    1  A    between atoms: C_1  and  C_2
REMARK    2  A    between atoms: C_2  and  O_3
REMARK    3  A    between atoms: C_2  and  C_4
REMARK    4  A    between atoms: C_2  and  C_28
REMARK    5  A    between atoms: N_6  and  C_7
REMARK    6  A    between atoms: C_10  and  C_11
REMARK    7  A    between atoms: N_13  and  CA_14
REMARK    8  A    between atoms: CA_14  and  CB_15
REMARK    9  A    between atoms: CA_14  and  C_22
REMARK   10  A    between atoms: CB_15  and  CG_16
REMARK                            x       y       z     vdW  Elec       q    Type
REMARK                         _______ _______ _______ _____ _____    ______ ____
ROOT
ATOM      1  C   UNK A   0       1.209   9.395  18.804  0.00  0.00    +0.000 A 
ATOM      2  C   UNK A   0       2.040   9.311  17.690  0.00  0.00    +0.000 A 
ATOM      3  C   UNK A   0       2.909   8.236  17.529  0.00  0.00    +0.000 A 
ATOM      4  C   UNK A   0       2.998   7.244  18.510  0.00  0.00    +0.000 A 
ATOM      5  C   UNK A   0       2.222   7.348  19.666  0.00  0.00    +0.000 A 
ATOM      6  C   UNK A   0       1.342   8.426  19.816  0.00  0.00    +0.000 A 
ATOM      7 CL   UNK A   0       0.377   8.517  21.253  0.00  0.00    +0.000 Cl
ENDROOT
BRANCH   1  10
ATOM      8  C   UNK A   0      -0.927  10.492  18.119  0.00  0.00    +0.000 C 
ATOM      9  O   UNK A   0      -1.204   9.715  17.225  0.00  0.00    +0.000 OA
ATOM     10  N   UNK A   0       0.209  10.398  18.917  0.00  0.00    +0.000 N 
ATOM     11  H   UNK A   0       0.290  10.974  19.752  0.00  0.00    +0.000 HD
BRANCH   8  13
ATOM     12  C   UNK A   0      -1.830  11.951  19.931  0.00  0.00    +0.000 C 
ATOM     13  C   UNK A   0      -1.842  11.672  18.430  0.00  0.00    +0.000 C 
BRANCH  13  14
ATOM     14  C   UNK A   0      -3.274  11.328  17.950  0.00  0.00    +0.000 C 
ATOM     15  F   UNK A   0      -3.654  10.062  18.188  0.00  0.00    +0.000 F 
ATOM     16  F   UNK A   0      -4.184  12.140  18.568  0.00  0.00    +0.000 F 
ATOM     17  F   UNK A   0      -3.492  11.606  16.632  0.00  0.00    +0.000 F 
ENDBRANCH  13  14
BRANCH  13  18
ATOM     18  O   UNK A   0      -1.349  12.819  17.694  0.00  0.00    +0.000 OA
ATOM     19  H   UNK A   0      -1.842  12.895  16.855  0.00  0.00    +0.000 HD
ENDBRANCH  13  18
ENDBRANCH   8  13
ENDBRANCH   1  10
BRANCH   4  20
ATOM     20  C   UNK A   0       3.851   6.037  18.301  0.00  0.00    +0.000 C 
ATOM     21  O   UNK A   0       3.407   4.933  18.579  0.00  0.00    +0.000 OA
ATOM     22  N   PHE A   1       5.076   6.283  17.760  0.00  0.00    +0.000 N 
ATOM     23  H   PHE A   1       5.491   7.207  17.700  0.00  0.00    +0.000 HD
BRANCH  22  24
ATOM     24  CA  PHE A   1       6.079   5.287  17.338  0.00  0.00    +0.000 C 
BRANCH  24  25
ATOM     25  C   PHE A   1       7.022   4.923  18.536  0.00  0.00    +0.000 C 
ATOM     26  O   PHE A   1       6.653   5.296  19.683  0.00  0.00    +0.000 OA
ATOM     27  OXT PHE A   1       8.083   4.309  18.178  0.00  0.00    +0.000 OA
ENDBRANCH  24  25
BRANCH  24  28
ATOM     28  CB  PHE A   1       6.897   5.728  16.117  0.00  0.00    +0.000 C 
BRANCH  28  29
ATOM     29  CG  PHE A   1       6.601   5.003  14.817  0.00  0.00    +0.000 A 
ATOM     30  CD1 PHE A   1       7.511   5.065  13.754  0.00  0.00    +0.000 A 
ATOM     31  CE1 PHE A   1       7.268   4.373  12.566  0.00  0.00    +0.000 A 
ATOM     32  CZ  PHE A   1       6.110   3.612  12.428  0.00  0.00    +0.000 A 
ATOM     33  CE2 PHE A   1       5.188   3.553  13.473  0.00  0.00    +0.000 A 
ATOM     34  CD2 PHE A   1       5.432   4.247  14.662  0.00  0.00    +0.000 A 
ENDBRANCH  28  29
ENDBRANCH  24  28
ENDBRANCH  22  24
ENDBRANCH   4  20
TORSDOF 9
ENDMDL
MODEL 5
REMARK VINA RESULT:      -8.6      1.963      3.504
REMARK  Name = 
REMARK  10 active torsions:
REMARK  status: ('A' for Active; 'I' for Inactive)
REMARK    1  A    between atoms: C_1  and  C_2
REMARK    2  A    between atoms: C_2  and  O_3
REMARK    3  A    between atoms: C_2  and  C_4
REMARK    4  A    between atoms: C_2  and  C_28
REMARK    5  A    between atoms: N_6  and  C_7
REMARK    6  A    between atoms: C_10  and  C_11
REMARK    7  A    between atoms: N_13  and  CA_14
REMARK    8  A    between atoms: CA_14  and  CB_15
REMARK    9  A    between atoms: CA_14  and  C_22
REMARK   10  A    between atoms: CB_15  and  CG_16
REMARK                            x       y       z     vdW  Elec       q    Type
REMARK                         _______ _______ _______ _____ _____    ______ ____
ROOT
ATOM      1  C   UNK A   0       1.417   9.460  19.233  0.00  0.00    +0.000 A 
ATOM      2  C   UNK A   0       2.061   8.973  18.099  0.00  0.00    +0.000 A 
ATOM      3  C   UNK A   0       2.511   7.658  18.046  0.00  0.00    +0.000 A 
ATOM      4  C   UNK A   0       2.369   6.814  19.153  0.00  0.00    +0.000 A 
ATOM      5  C   UNK A   0       1.787   7.308  20.323  0.00  0.00    +0.000 A 
ATOM      6  C   UNK A   0       1.327   8.628  20.365  0.00  0.00    +0.000 A 
ATOM      7 CL   UNK A   0       0.591   9.205  21.824  0.00  0.00    +0.000 Cl
ENDROOT
BRANCH   1  10
ATOM      8  C   UNK A   0      -0.415  11.068  18.690  0.00  0.00    +0.000 C 
ATOM      9  O   UNK A   0      -1.130  10.275  18.107  0.00  0.00    +0.000 OA
ATOM     10  N   UNK A   0       0.815  10.747  19.256  0.00  0.00    +0.000 N 
ATOM     11  H   UNK A   0       1.276  11.412  19.874  0.00  0.00    +0.000 HD
BRANCH   8  13
ATOM     12  C   UNK A   0       0.322  13.342  19.408  0.00  0.00    +0.000 C 
ATOM     13  C   UNK A   0      -0.836  12.527  18.836  0.00  0.00    +0.000 C 
BRANCH  13  14
ATOM     14  C   UNK A   0      -2.067  12.596  19.773  0.00  0.00    +0.000 C 
ATOM     15  F   UNK A   0      -1.973  11.834  20.875  0.00  0.00    +0.000 F 
ATOM     16  F   UNK A   0      -2.266  13.882  20.192  0.00  0.00    +0.000 F 
ATOM     17  F   UNK A   0      -3.247  12.312  19.150  0.00  0.00    +0.000 F 
ENDBRANCH  13  14
BRANCH  13  18
ATOM     18  O   UNK A   0      -1.201  13.014  17.521  0.00  0.00    +0.000 OA
ATOM     19  H   UNK A   0      -1.020  13.972  17.475  0.00  0.00    +0.000 HD
ENDBRANCH  13  18
ENDBRANCH   8  13
ENDBRANCH   1  10
BRANCH   4  20
ATOM     20  C   UNK A   0       2.756   5.375  19.072  0.00  0.00    +0.000 C 
ATOM     21  O   UNK A   0       3.236   4.826  20.052  0.00  0.00    +0.000 OA
ATOM     22  N   PHE A   1       2.492   4.773  17.879  0.00  0.00    +0.000 N 
ATOM     23  H   PHE A   1       2.259   5.279  17.030  0.00  0.00    +0.000 HD
BRANCH  22  24
ATOM     24  CA  PHE A   1       2.657   3.345  17.547  0.00  0.00    +0.000 C 
BRANCH  24  25
ATOM     25  C   PHE A   1       1.767   2.462  18.488  0.00  0.00    +0.000 C 
ATOM     26  O   PHE A   1       0.519   2.617  18.399  0.00  0.00    +0.000 OA
ATOM     27  OXT PHE A   1       2.444   1.706  19.263  0.00  0.00    +0.000 OA
ENDBRANCH  24  25
BRANCH  24  28
ATOM     28  CB  PHE A   1       4.118   2.878  17.584  0.00  0.00    +0.000 C 
BRANCH  28  29
ATOM     29  CG  PHE A   1       5.150   3.873  17.084  0.00  0.00    +0.000 A 
ATOM     30  CD1 PHE A   1       5.173   4.244  15.734  0.00  0.00    +0.000 A 
ATOM     31  CE1 PHE A   1       6.094   5.185  15.269  0.00  0.00    +0.000 A 
ATOM     32  CZ  PHE A   1       7.005   5.762  16.151  0.00  0.00    +0.000 A 
ATOM     33  CE2 PHE A   1       7.003   5.389  17.495  0.00  0.00    +0.000 A 
ATOM     34  CD2 PHE A   1       6.081   4.447  17.959  0.00  0.00    +0.000 A 
ENDBRANCH  28  29
ENDBRANCH  24  28
ENDBRANCH  22  24
ENDBRANCH   4  20
TORSDOF 9
ENDMDL
MODEL 6
REMARK VINA RESULT:      -8.4      0.404      1.180
REMARK  Name = 
REMARK  10 active torsions:
REMARK  status: ('A' for Active; 'I' for Inactive)
REMARK    1  A    between atoms: C_1  and  C_2
REMARK    2  A    between atoms: C_2  and  O_3
REMARK    3  A    between atoms: C_2  and  C_4
REMARK    4  A    between atoms: C_2  and  C_28
REMARK    5  A    between atoms: N_6  and  C_7
REMARK    6  A    between atoms: C_10  and  C_11
REMARK    7  A    between atoms: N_13  and  CA_14
REMARK    8  A    between atoms: CA_14  and  CB_15
REMARK    9  A    between atoms: CA_14  and  C_22
REMARK   10  A    between atoms: CB_15  and  CG_16
REMARK                            x       y       z     vdW  Elec       q    Type
REMARK                         _______ _______ _______ _____ _____    ______ ____
ROOT
ATOM      1  C   UNK A   0       0.981   9.642  18.800  0.00  0.00    +0.000 A 
ATOM      2  C   UNK A   0       1.865   9.439  17.743  0.00  0.00    +0.000 A 
ATOM      3  C   UNK A   0       2.768   8.380  17.764  0.00  0.00    +0.000 A 
ATOM      4  C   UNK A   0       2.836   7.528  18.870  0.00  0.00    +0.000 A 
ATOM      5  C   UNK A   0       2.004   7.758  19.968  0.00  0.00    +0.000 A 
ATOM      6  C   UNK A   0       1.091   8.818  19.936  0.00  0.00    +0.000 A 
ATOM      7 CL   UNK A   0       0.057   9.065  21.304  0.00  0.00    +0.000 Cl
ENDROOT
BRANCH   1  10
ATOM      8  C   UNK A   0      -1.185  10.536  17.936  0.00  0.00    +0.000 C 
ATOM      9  O   UNK A   0      -1.436   9.606  17.194  0.00  0.00    +0.000 OA
ATOM     10  N   UNK A   0      -0.049  10.619  18.735  0.00  0.00    +0.000 N 
ATOM     11  H   UNK A   0       0.012  11.336  19.455  0.00  0.00    +0.000 HD
BRANCH   8  13
ATOM     12  C   UNK A   0      -2.380  12.068  19.504  0.00  0.00    +0.000 C 
ATOM     13  C   UNK A   0      -2.135  11.725  18.035  0.00  0.00    +0.000 C 
BRANCH  13  14
ATOM     14  C   UNK A   0      -3.465  11.356  17.332  0.00  0.00    +0.000 C 
ATOM     15  F   UNK A   0      -4.495  12.167  17.625  0.00  0.00    +0.000 F 
ATOM     16  F   UNK A   0      -3.304  11.391  15.975  0.00  0.00    +0.000 F 
ATOM     17  F   UNK A   0      -3.857  10.066  17.541  0.00  0.00    +0.000 F 
ENDBRANCH  13  14
BRANCH  13  18
ATOM     18  O   UNK A   0      -1.519  12.841  17.347  0.00  0.00    +0.000 OA
ATOM     19  H   UNK A   0      -0.591  12.921  17.638  0.00  0.00    +0.000 HD
ENDBRANCH  13  18
ENDBRANCH   8  13
ENDBRANCH   1  10
BRANCH   4  20
ATOM     20  C   UNK A   0       3.728   6.332  18.859  0.00  0.00    +0.000 C 
ATOM     21  O   UNK A   0       3.800   5.627  19.855  0.00  0.00    +0.000 OA
ATOM     22  N   PHE A   1       4.374   6.104  17.682  0.00  0.00    +0.000 N 
ATOM     23  H   PHE A   1       4.439   6.787  16.933  0.00  0.00    +0.000 HD
BRANCH  22  24
ATOM     24  CA  PHE A   1       5.221   4.946  17.340  0.00  0.00    +0.000 C 
BRANCH  24  25
ATOM     25  C   PHE A   1       6.408   5.393  16.419  0.00  0.00    +0.000 C 
ATOM     26  O   PHE A   1       6.999   4.484  15.774  0.00  0.00    +0.000 OA
ATOM     27  OXT PHE A   1       6.646   6.646  16.471  0.00  0.00    +0.000 OA
ENDBRANCH  24  25
BRANCH  24  28
ATOM     28  CB  PHE A   1       4.441   3.790  16.700  0.00  0.00    +0.000 C 
BRANCH  28  29
ATOM     29  CG  PHE A   1       3.348   3.170  17.550  0.00  0.00    +0.000 A 
ATOM     30  CD1 PHE A   1       3.659   2.160  18.469  0.00  0.00    +0.000 A 
ATOM     31  CE1 PHE A   1       2.669   1.606  19.282  0.00  0.00    +0.000 A 
ATOM     32  CZ  PHE A   1       1.354   2.055  19.182  0.00  0.00    +0.000 A 
ATOM     33  CE2 PHE A   1       1.027   3.049  18.260  0.00  0.00    +0.000 A 
ATOM     34  CD2 PHE A   1       2.019   3.603  17.446  0.00  0.00    +0.000 A 
ENDBRANCH  28  29
ENDBRANCH  24  28
ENDBRANCH  22  24
ENDBRANCH   4  20
TORSDOF 9
ENDMDL
MODEL 7
REMARK VINA RESULT:      -8.3      1.991      3.354
REMARK  Name = 
REMARK  10 active torsions:
REMARK  status: ('A' for Active; 'I' for Inactive)
REMARK    1  A    between atoms: C_1  and  C_2
REMARK    2  A    between atoms: C_2  and  O_3
REMARK    3  A    between atoms: C_2  and  C_4
REMARK    4  A    between atoms: C_2  and  C_28
REMARK    5  A    between atoms: N_6  and  C_7
REMARK    6  A    between atoms: C_10  and  C_11
REMARK    7  A    between atoms: N_13  and  CA_14
REMARK    8  A    between atoms: CA_14  and  CB_15
REMARK    9  A    between atoms: CA_14  and  C_22
REMARK   10  A    between atoms: CB_15  and  CG_16
REMARK                            x       y       z     vdW  Elec       q    Type
REMARK                         _______ _______ _______ _____ _____    ______ ____
ROOT
ATOM      1  C   UNK A   0       1.192   9.371  18.912  0.00  0.00    +0.000 A 
ATOM      2  C   UNK A   0       1.892   9.271  17.712  0.00  0.00    +0.000 A 
ATOM      3  C   UNK A   0       2.702   8.170  17.451  0.00  0.00    +0.000 A 
ATOM      4  C   UNK A   0       2.866   7.166  18.411  0.00  0.00    +0.000 A 
ATOM      5  C   UNK A   0       2.225   7.285  19.646  0.00  0.00    +0.000 A 
ATOM      6  C   UNK A   0       1.404   8.388  19.898  0.00  0.00    +0.000 A 
ATOM      7 CL   UNK A   0       0.605   8.496  21.432  0.00  0.00    +0.000 Cl
ENDROOT
BRANCH   1  10
ATOM      8  C   UNK A   0      -0.878  10.652  18.354  0.00  0.00    +0.000 C 
ATOM      9  O   UNK A   0      -1.186  10.002  17.373  0.00  0.00    +0.000 OA
ATOM     10  N   UNK A   0       0.244  10.404  19.140  0.00  0.00    +0.000 N 
ATOM     11  H   UNK A   0       0.345  10.872  20.038  0.00  0.00    +0.000 HD
BRANCH   8  13
ATOM     12  C   UNK A   0      -1.621  12.008  20.314  0.00  0.00    +0.000 C 
ATOM     13  C   UNK A   0      -1.734  11.832  18.801  0.00  0.00    +0.000 C 
BRANCH  13  14
ATOM     14  C   UNK A   0      -3.203  11.562  18.392  0.00  0.00    +0.000 C 
ATOM     15  F   UNK A   0      -3.609  10.294  18.573  0.00  0.00    +0.000 F 
ATOM     16  F   UNK A   0      -4.047  12.357  19.117  0.00  0.00    +0.000 F 
ATOM     17  F   UNK A   0      -3.493  11.930  17.111  0.00  0.00    +0.000 F 
ENDBRANCH  13  14
BRANCH  13  18
ATOM     18  O   UNK A   0      -1.251  13.013  18.112  0.00  0.00    +0.000 OA
ATOM     19  H   UNK A   0      -1.845  13.761  18.310  0.00  0.00    +0.000 HD
ENDBRANCH  13  18
ENDBRANCH   8  13
ENDBRANCH   1  10
BRANCH   4  20
ATOM     20  C   UNK A   0       3.651   5.935  18.101  0.00  0.00    +0.000 C 
ATOM     21  O   UNK A   0       3.120   4.840  18.216  0.00  0.00    +0.000 OA
ATOM     22  N   PHE A   1       4.922   6.155  17.664  0.00  0.00    +0.000 N 
ATOM     23  H   PHE A   1       5.398   7.047  17.742  0.00  0.00    +0.000 HD
BRANCH  22  24
ATOM     24  CA  PHE A   1       5.883   5.146  17.179  0.00  0.00    +0.000 C 
BRANCH  24  25
ATOM     25  C   PHE A   1       6.721   4.574  18.373  0.00  0.00    +0.000 C 
ATOM     26  O   PHE A   1       7.974   4.548  18.227  0.00  0.00    +0.000 OA
ATOM     27  OXT PHE A   1       6.004   4.172  19.349  0.00  0.00    +0.000 OA
ENDBRANCH  24  25
BRANCH  24  28
ATOM     28  CB  PHE A   1       6.804   5.671  16.070  0.00  0.00    +0.000 C 
BRANCH  28  29
ATOM     29  CG  PHE A   1       6.678   4.991  14.719  0.00  0.00    +0.000 A 
ATOM     30  CD1 PHE A   1       5.594   4.143  14.457  0.00  0.00    +0.000 A 
ATOM     31  CE1 PHE A   1       5.447   3.540  13.206  0.00  0.00    +0.000 A 
ATOM     32  CZ  PHE A   1       6.385   3.776  12.204  0.00  0.00    +0.000 A 
ATOM     33  CE2 PHE A   1       7.477   4.606  12.457  0.00  0.00    +0.000 A 
ATOM     34  CD2 PHE A   1       7.624   5.210  13.709  0.00  0.00    +0.000 A 
ENDBRANCH  28  29
ENDBRANCH  24  28
ENDBRANCH  22  24
ENDBRANCH   4  20
TORSDOF 9
ENDMDL
MODEL 8
REMARK VINA RESULT:      -8.3      2.280      3.856
REMARK  Name = 
REMARK  10 active torsions:
REMARK  status: ('A' for Active; 'I' for Inactive)
REMARK    1  A    between atoms: C_1  and  C_2
REMARK    2  A    between atoms: C_2  and  O_3
REMARK    3  A    between atoms: C_2  and  C_4
REMARK    4  A    between atoms: C_2  and  C_28
REMARK    5  A    between atoms: N_6  and  C_7
REMARK    6  A    between atoms: C_10  and  C_11
REMARK    7  A    between atoms: N_13  and  CA_14
REMARK    8  A    between atoms: CA_14  and  CB_15
REMARK    9  A    between atoms: CA_14  and  C_22
REMARK   10  A    between atoms: CB_15  and  CG_16
REMARK                            x       y       z     vdW  Elec       q    Type
REMARK                         _______ _______ _______ _____ _____    ______ ____
ROOT
ATOM      1  C   UNK A   0       1.111   9.815  18.808  0.00  0.00    +0.000 A 
ATOM      2  C   UNK A   0       1.848   9.310  17.740  0.00  0.00    +0.000 A 
ATOM      3  C   UNK A   0       2.431   8.049  17.811  0.00  0.00    +0.000 A 
ATOM      4  C   UNK A   0       2.328   7.284  18.977  0.00  0.00    +0.000 A 
ATOM      5  C   UNK A   0       1.650   7.804  20.082  0.00  0.00    +0.000 A 
ATOM      6  C   UNK A   0       1.057   9.068  20.000  0.00  0.00    +0.000 A 
ATOM      7 CL   UNK A   0       0.205   9.677  21.381  0.00  0.00    +0.000 Cl
ENDROOT
BRANCH   1  10
ATOM      8  C   UNK A   0       0.896  12.299  18.953  0.00  0.00    +0.000 C 
ATOM      9  O   UNK A   0       2.045  12.521  19.286  0.00  0.00    +0.000 OA
ATOM     10  N   UNK A   0       0.381  11.030  18.704  0.00  0.00    +0.000 N 
ATOM     11  H   UNK A   0      -0.531  10.932  18.264  0.00  0.00    +0.000 HD
BRANCH   8  13
ATOM     12  C   UNK A   0       0.654  14.775  18.751  0.00  0.00    +0.000 C 
ATOM     13  C   UNK A   0      -0.096  13.445  18.786  0.00  0.00    +0.000 C 
BRANCH  13  14
ATOM     14  C   UNK A   0      -1.095  13.413  19.970  0.00  0.00    +0.000 C 
ATOM     15  F   UNK A   0      -0.549  13.077  21.151  0.00  0.00    +0.000 F 
ATOM     16  F   UNK A   0      -1.670  14.642  20.132  0.00  0.00    +0.000 F 
ATOM     17  F   UNK A   0      -2.179  12.616  19.751  0.00  0.00    +0.000 F 
ENDBRANCH  13  14
BRANCH  13  18
ATOM     18  O   UNK A   0      -0.813  13.231  17.544  0.00  0.00    +0.000 OA
ATOM     19  H   UNK A   0      -0.364  13.721  16.830  0.00  0.00    +0.000 HD
ENDBRANCH  13  18
ENDBRANCH   8  13
ENDBRANCH   1  10
BRANCH   4  20
ATOM     20  C   UNK A   0       2.862   5.891  19.027  0.00  0.00    +0.000 C 
ATOM     21  O   UNK A   0       3.522   5.536  19.992  0.00  0.00    +0.000 OA
ATOM     22  N   PHE A   1       2.516   5.103  17.972  0.00  0.00    +0.000 N 
ATOM     23  H   PHE A   1       2.122   5.458  17.107  0.00  0.00    +0.000 HD
BRANCH  22  24
ATOM     24  CA  PHE A   1       2.798   3.664  17.806  0.00  0.00    +0.000 C 
BRANCH  24  25
ATOM     25  C   PHE A   1       1.861   2.816  18.733  0.00  0.00    +0.000 C 
ATOM     26  O   PHE A   1       0.653   2.719  18.383  0.00  0.00    +0.000 OA
ATOM     27  OXT PHE A   1       2.452   2.351  19.764  0.00  0.00    +0.000 OA
ENDBRANCH  24  25
BRANCH  24  28
ATOM     28  CB  PHE A   1       4.270   3.302  18.044  0.00  0.00    +0.000 C 
BRANCH  28  29
ATOM     29  CG  PHE A   1       5.276   3.948  17.110  0.00  0.00    +0.000 A 
ATOM     30  CD1 PHE A   1       5.137   3.811  15.723  0.00  0.00    +0.000 A 
ATOM     31  CE1 PHE A   1       6.036   4.430  14.852  0.00  0.00    +0.000 A 
ATOM     32  CZ  PHE A   1       7.086   5.192  15.359  0.00  0.00    +0.000 A 
ATOM     33  CE2 PHE A   1       7.244   5.324  16.739  0.00  0.00    +0.000 A 
ATOM     34  CD2 PHE A   1       6.345   4.703  17.610  0.00  0.00    +0.000 A 
ENDBRANCH  28  29
ENDBRANCH  24  28
ENDBRANCH  22  24
ENDBRANCH   4  20
TORSDOF 9
ENDMDL
MODEL 9
REMARK VINA RESULT:      -8.3      1.974      3.320
REMARK  Name = 
REMARK  10 active torsions:
REMARK  status: ('A' for Active; 'I' for Inactive)
REMARK    1  A    between atoms: C_1  and  C_2
REMARK    2  A    between atoms: C_2  and  O_3
REMARK    3  A    between atoms: C_2  and  C_4
REMARK    4  A    between atoms: C_2  and  C_28
REMARK    5  A    between atoms: N_6  and  C_7
REMARK    6  A    between atoms: C_10  and  C_11
REMARK    7  A    between atoms: N_13  and  CA_14
REMARK    8  A    between atoms: CA_14  and  CB_15
REMARK    9  A    between atoms: CA_14  and  C_22
REMARK   10  A    between atoms: CB_15  and  CG_16
REMARK                            x       y       z     vdW  Elec       q    Type
REMARK                         _______ _______ _______ _____ _____    ______ ____
ROOT
ATOM      1  C   UNK A   0       1.197   9.444  19.566  0.00  0.00    +0.000 A 
ATOM      2  C   UNK A   0       1.914   8.807  18.555  0.00  0.00    +0.000 A 
ATOM      3  C   UNK A   0       2.368   7.503  18.718  0.00  0.00    +0.000 A 
ATOM      4  C   UNK A   0       2.156   6.823  19.921  0.00  0.00    +0.000 A 
ATOM      5  C   UNK A   0       1.500   7.471  20.970  0.00  0.00    +0.000 A 
ATOM      6  C   UNK A   0       1.035   8.778  20.796  0.00  0.00    +0.000 A 
ATOM      7 CL   UNK A   0       0.206   9.548  22.108  0.00  0.00    +0.000 Cl
ENDROOT
BRANCH   1  10
ATOM      8  C   UNK A   0      -0.653  10.928  18.787  0.00  0.00    +0.000 C 
ATOM      9  O   UNK A   0      -1.383  10.044  18.382  0.00  0.00    +0.000 OA
ATOM     10  N   UNK A   0       0.593  10.714  19.367  0.00  0.00    +0.000 N 
ATOM     11  H   UNK A   0       1.070  11.480  19.838  0.00  0.00    +0.000 HD
BRANCH   8  13
ATOM     12  C   UNK A   0       0.146  13.292  18.857  0.00  0.00    +0.000 C 
ATOM     13  C   UNK A   0      -1.073  12.391  18.673  0.00  0.00    +0.000 C 
BRANCH  13  14
ATOM     14  C   UNK A   0      -2.139  12.686  19.757  0.00  0.00    +0.000 C 
ATOM     15  F   UNK A   0      -1.962  12.020  20.910  0.00  0.00    +0.000 F 
ATOM     16  F   UNK A   0      -2.140  14.019  20.063  0.00  0.00    +0.000 F 
ATOM     17  F   UNK A   0      -3.421  12.489  19.335  0.00  0.00    +0.000 F 
ENDBRANCH  13  14
BRANCH  13  18
ATOM     18  O   UNK A   0      -1.655  12.581  17.359  0.00  0.00    +0.000 OA
ATOM     19  H   UNK A   0      -1.796  13.535  17.209  0.00  0.00    +0.000 HD
ENDBRANCH  13  18
ENDBRANCH   8  13
ENDBRANCH   1  10
BRANCH   4  20
ATOM     20  C   UNK A   0       2.550   5.391  20.070  0.00  0.00    +0.000 C 
ATOM     21  O   UNK A   0       2.244   4.786  21.087  0.00  0.00    +0.000 OA
ATOM     22  N   PHE A   1       3.204   4.859  19.000  0.00  0.00    +0.000 N 
ATOM     23  H   PHE A   1       3.601   5.413  18.248  0.00  0.00    +0.000 HD
BRANCH  22  24
ATOM     24  CA  PHE A   1       3.610   3.452  18.815  0.00  0.00    +0.000 C 
BRANCH  24  25
ATOM     25  C   PHE A   1       4.921   3.154  19.621  0.00  0.00    +0.000 C 
ATOM     26  O   PHE A   1       5.840   4.014  19.548  0.00  0.00    +0.000 OA
ATOM     27  OXT PHE A   1       4.895   2.035  20.234  0.00  0.00    +0.000 OA
ENDBRANCH  24  25
BRANCH  24  28
ATOM     28  CB  PHE A   1       3.775   3.057  17.342  0.00  0.00    +0.000 C 
BRANCH  28  29
ATOM     29  CG  PHE A   1       4.686   3.941  16.511  0.00  0.00    +0.000 A 
ATOM     30  CD1 PHE A   1       5.665   3.367  15.689  0.00  0.00    +0.000 A 
ATOM     31  CE1 PHE A   1       6.487   4.167  14.893  0.00  0.00    +0.000 A 
ATOM     32  CZ  PHE A   1       6.340   5.552  14.913  0.00  0.00    +0.000 A 
ATOM     33  CE2 PHE A   1       5.380   6.138  15.738  0.00  0.00    +0.000 A 
ATOM     34  CD2 PHE A   1       4.558   5.336  16.535  0.00  0.00    +0.000 A 
ENDBRANCH  28  29
ENDBRANCH  24  28
ENDBRANCH  22  24
ENDBRANCH   4  20
TORSDOF 9
ENDMDL
