MODEL 1
REMARK VINA RESULT:      -9.7      0.000      0.000
REMARK  Name = 
REMARK  4 active torsions:
REMARK  status: ('A' for Active; 'I' for Inactive)
REMARK    1  A    between atoms: C_5  and  C_6
REMARK    2  A    between atoms: C_9  and  C_10
REMARK    3  A    between atoms: C_15  and  O_16
REMARK    4  A    between atoms: O_16  and  C_17
REMARK                            x       y       z     vdW  Elec       q    Type
REMARK                         _______ _______ _______ _____ _____    ______ ____
ROOT
ATOM      1  C   UNL     1       3.387   6.389  17.753  0.00  0.00    +0.000 A 
ATOM      2  C   UNL     1       4.526   6.965  17.134  0.00  0.00    +0.000 A 
ATOM      3  C   UNL     1       5.463   6.215  16.419  0.00  0.00    +0.000 A 
ATOM      4  C   UNL     1       5.323   4.842  16.343  0.00  0.00    +0.000 A 
ATOM      5  C   UNL     1       4.242   4.231  16.969  0.00  0.00    +0.000 A 
ATOM      6  C   UNL     1       3.243   4.986  17.629  0.00  0.00    +0.000 A 
ENDROOT
BRANCH   1  10
ATOM      7  C   UNL     1       1.072   9.209  20.020  0.00  0.00    +0.000 A 
ATOM      8  C   UNL     1       1.222   9.388  18.650  0.00  0.00    +0.000 A 
ATOM      9  C   UNL     1       1.908   8.425  17.904  0.00  0.00    +0.000 A 
ATOM     10  C   UNL     1       2.478   7.293  18.509  0.00  0.00    +0.000 A 
ATOM     11  C   UNL     1       2.228   7.180  19.874  0.00  0.00    +0.000 A 
ATOM     12  N   UNL     1       1.551   8.096  20.629  0.00  0.00    +0.000 NA
BRANCH   7  17
ATOM     13  N   UNL     1      -1.377  13.056  23.245  0.00  0.00    +0.000 N 
ATOM     14  C   UNL     1      -0.762  12.105  22.458  0.00  0.00    +0.000 A 
ATOM     15  N   UNL     1      -0.417  10.952  23.033  0.00  0.00    +0.000 NA
ATOM     16  C   UNL     1       0.186  10.039  22.235  0.00  0.00    +0.000 A 
ATOM     17  C   UNL     1       0.469  10.220  20.894  0.00  0.00    +0.000 A 
ATOM     18  C   UNL     1       0.095  11.473  20.436  0.00  0.00    +0.000 A 
ATOM     19  N   UNL     1      -0.513  12.424  21.188  0.00  0.00    +0.000 NA
ATOM     20  H   UNL     1      -1.120  12.913  24.211  0.00  0.00    +0.000 HD
ATOM     21  H   UNL     1      -1.214  13.972  22.850  0.00  0.00    +0.000 HD
ENDBRANCH   7  17
ENDBRANCH   1  10
BRANCH   6  22
ATOM     22  O   UNL     1       2.149   4.353  18.202  0.00  0.00    +0.000 OA
BRANCH  22  23
ATOM     23  C   UNL     1       2.370   3.631  19.372  0.00  0.00    +0.000 A 
ATOM     24  C   UNL     1       1.415   3.704  20.357  0.00  0.00    +0.000 A 
ATOM     25  C   UNL     1       1.748   3.073  21.530  0.00  0.00    +0.000 A 
ATOM     26  N   UNL     1       2.911   2.423  21.720  0.00  0.00    +0.000 NA
ATOM     27  C   UNL     1       3.745   2.367  20.677  0.00  0.00    +0.000 A 
ATOM     28  N   UNL     1       4.974   1.770  20.863  0.00  0.00    +0.000 N 
ATOM     29  N   UNL     1       3.520   2.943  19.497  0.00  0.00    +0.000 NA
ATOM     30  H   UNL     1       5.222   1.799  21.842  0.00  0.00    +0.000 HD
ATOM     31  H   UNL     1       5.635   2.162  20.207  0.00  0.00    +0.000 HD
ENDBRANCH  22  23
ENDBRANCH   6  22
TORSDOF 4
ENDMDL
MODEL 2
REMARK VINA RESULT:      -9.3      1.261      1.749
REMARK  Name = 
REMARK  4 active torsions:
REMARK  status: ('A' for Active; 'I' for Inactive)
REMARK    1  A    between atoms: C_5  and  C_6
REMARK    2  A    between atoms: C_9  and  C_10
REMARK    3  A    between atoms: C_15  and  O_16
REMARK    4  A    between atoms: O_16  and  C_17
REMARK                            x       y       z     vdW  Elec       q    Type
REMARK                         _______ _______ _______ _____ _____    ______ ____
ROOT
ATOM      1  C   UNL     1       4.667   5.989  17.289  0.00  0.00    +0.000 A 
ATOM      2  C   UNL     1       5.929   6.634  17.217  0.00  0.00    +0.000 A 
ATOM      3  C   UNL     1       7.033   6.071  16.571  0.00  0.00    +0.000 A 
ATOM      4  C   UNL     1       6.930   4.810  16.016  0.00  0.00    +0.000 A 
ATOM      5  C   UNL     1       5.722   4.125  16.099  0.00  0.00    +0.000 A 
ATOM      6  C   UNL     1       4.574   4.714  16.681  0.00  0.00    +0.000 A 
ENDROOT
BRANCH   1  10
ATOM      7  C   UNL     1       1.793   8.213  19.578  0.00  0.00    +0.000 A 
ATOM      8  C   UNL     1       2.081   8.601  18.275  0.00  0.00    +0.000 A 
ATOM      9  C   UNL     1       2.956   7.827  17.507  0.00  0.00    +0.000 A 
ATOM     10  C   UNL     1       3.577   6.681  18.030  0.00  0.00    +0.000 A 
ATOM     11  C   UNL     1       3.184   6.350  19.323  0.00  0.00    +0.000 A 
ATOM     12  N   UNL     1       2.322   7.076  20.095  0.00  0.00    +0.000 NA
BRANCH   7  17
ATOM     13  N   UNL     1      -1.156  11.387  23.104  0.00  0.00    +0.000 N 
ATOM     14  C   UNL     1      -0.440  10.598  22.228  0.00  0.00    +0.000 A 
ATOM     15  N   UNL     1      -0.704  10.719  20.926  0.00  0.00    +0.000 NA
ATOM     16  C   UNL     1       0.014   9.931  20.091  0.00  0.00    +0.000 A 
ATOM     17  C   UNL     1       0.979   9.024  20.489  0.00  0.00    +0.000 A 
ATOM     18  C   UNL     1       1.124   8.972  21.866  0.00  0.00    +0.000 A 
ATOM     19  N   UNL     1       0.435   9.738  22.748  0.00  0.00    +0.000 NA
ATOM     20  H   UNL     1      -2.040  11.641  22.686  0.00  0.00    +0.000 HD
ATOM     21  H   UNL     1      -1.181  10.940  24.011  0.00  0.00    +0.000 HD
ENDBRANCH   7  17
ENDBRANCH   1  10
BRANCH   6  22
ATOM     22  O   UNL     1       3.368   4.027  16.703  0.00  0.00    +0.000 OA
BRANCH  22  23
ATOM     23  C   UNL     1       3.054   3.328  17.867  0.00  0.00    +0.000 A 
ATOM     24  C   UNL     1       1.727   3.204  18.199  0.00  0.00    +0.000 A 
ATOM     25  C   UNL     1       1.490   2.615  19.416  0.00  0.00    +0.000 A 
ATOM     26  N   UNL     1       2.467   2.180  20.234  0.00  0.00    +0.000 NA
ATOM     27  C   UNL     1       3.721   2.302  19.788  0.00  0.00    +0.000 A 
ATOM     28  N   UNL     1       4.745   1.931  20.633  0.00  0.00    +0.000 N 
ATOM     29  N   UNL     1       4.061   2.856  18.626  0.00  0.00    +0.000 NA
ATOM     30  H   UNL     1       4.431   1.980  21.591  0.00  0.00    +0.000 HD
ATOM     31  H   UNL     1       5.578   2.451  20.392  0.00  0.00    +0.000 HD
ENDBRANCH  22  23
ENDBRANCH   6  22
TORSDOF 4
ENDMDL
MODEL 3
REMARK VINA RESULT:      -9.3      3.428      8.605
REMARK  Name = 
REMARK  4 active torsions:
REMARK  status: ('A' for Active; 'I' for Inactive)
REMARK    1  A    between atoms: C_5  and  C_6
REMARK    2  A    between atoms: C_9  and  C_10
REMARK    3  A    between atoms: C_15  and  O_16
REMARK    4  A    between atoms: O_16  and  C_17
REMARK                            x       y       z     vdW  Elec       q    Type
REMARK                         _______ _______ _______ _____ _____    ______ ____
ROOT
ATOM      1  C   UNL     1       0.815  11.053  18.882  0.00  0.00    +0.000 A 
ATOM      2  C   UNL     1       1.846  12.022  18.779  0.00  0.00    +0.000 A 
ATOM      3  C   UNL     1       1.591  13.387  18.629  0.00  0.00    +0.000 A 
ATOM      4  C   UNL     1       0.286  13.831  18.521  0.00  0.00    +0.000 A 
ATOM      5  C   UNL     1      -0.754  12.909  18.577  0.00  0.00    +0.000 A 
ATOM      6  C   UNL     1      -0.514  11.533  18.808  0.00  0.00    +0.000 A 
ENDROOT
BRANCH   1  10
ATOM      7  C   UNL     1       2.330   7.060  19.347  0.00  0.00    +0.000 A 
ATOM      8  C   UNL     1       1.730   7.696  20.428  0.00  0.00    +0.000 A 
ATOM      9  C   UNL     1       1.166   8.964  20.249  0.00  0.00    +0.000 A 
ATOM     10  C   UNL     1       1.218   9.626  19.012  0.00  0.00    +0.000 A 
ATOM     11  C   UNL     1       1.794   8.884  17.984  0.00  0.00    +0.000 A 
ATOM     12  N   UNL     1       2.340   7.639  18.121  0.00  0.00    +0.000 NA
BRANCH   7  17
ATOM     13  N   UNL     1       4.931   2.129  19.696  0.00  0.00    +0.000 N 
ATOM     14  C   UNL     1       4.299   3.352  19.618  0.00  0.00    +0.000 A 
ATOM     15  N   UNL     1       5.012   4.393  19.183  0.00  0.00    +0.000 NA
ATOM     16  C   UNL     1       4.364   5.580  19.118  0.00  0.00    +0.000 A 
ATOM     17  C   UNL     1       3.043   5.785  19.471  0.00  0.00    +0.000 A 
ATOM     18  C   UNL     1       2.434   4.633  19.941  0.00  0.00    +0.000 A 
ATOM     19  N   UNL     1       3.032   3.418  20.025  0.00  0.00    +0.000 NA
ATOM     20  H   UNL     1       5.926   2.268  19.801  0.00  0.00    +0.000 HD
ATOM     21  H   UNL     1       4.466   1.557  20.387  0.00  0.00    +0.000 HD
ENDBRANCH   7  17
ENDBRANCH   1  10
BRANCH   6  22
ATOM     22  O   UNL     1      -1.575  10.643  18.910  0.00  0.00    +0.000 OA
BRANCH  22  23
ATOM     23  C   UNL     1      -2.450  10.568  17.830  0.00  0.00    +0.000 A 
ATOM     24  C   UNL     1      -2.006   9.942  16.690  0.00  0.00    +0.000 A 
ATOM     25  C   UNL     1      -2.866  10.010  15.623  0.00  0.00    +0.000 A 
ATOM     26  N   UNL     1      -4.059  10.631  15.668  0.00  0.00    +0.000 NA
ATOM     27  C   UNL     1      -4.416  11.160  16.843  0.00  0.00    +0.000 A 
ATOM     28  N   UNL     1      -5.601  11.863  16.901  0.00  0.00    +0.000 N 
ATOM     29  N   UNL     1      -3.660  11.150  17.939  0.00  0.00    +0.000 NA
ATOM     30  H   UNL     1      -5.841  12.203  15.980  0.00  0.00    +0.000 HD
ATOM     31  H   UNL     1      -5.544  12.546  17.645  0.00  0.00    +0.000 HD
ENDBRANCH  22  23
ENDBRANCH   6  22
TORSDOF 4
ENDMDL
MODEL 4
REMARK VINA RESULT:      -9.1      2.332      3.995
REMARK  Name = 
REMARK  4 active torsions:
REMARK  status: ('A' for Active; 'I' for Inactive)
REMARK    1  A    between atoms: C_5  and  C_6
REMARK    2  A    between atoms: C_9  and  C_10
REMARK    3  A    between atoms: C_15  and  O_16
REMARK    4  A    between atoms: O_16  and  C_17
REMARK                            x       y       z     vdW  Elec       q    Type
REMARK                         _______ _______ _______ _____ _____    ______ ____
ROOT
ATOM      1  C   UNL     1       2.347   5.429  19.787  0.00  0.00    +0.000 A 
ATOM      2  C   UNL     1       1.732   4.667  20.814  0.00  0.00    +0.000 A 
ATOM      3  C   UNL     1       1.891   3.285  20.932  0.00  0.00    +0.000 A 
ATOM      4  C   UNL     1       2.633   2.600  19.989  0.00  0.00    +0.000 A 
ATOM      5  C   UNL     1       3.222   3.302  18.943  0.00  0.00    +0.000 A 
ATOM      6  C   UNL     1       3.135   4.712  18.855  0.00  0.00    +0.000 A 
ENDROOT
BRANCH   1  10
ATOM      7  C   UNL     1       1.211   9.566  19.584  0.00  0.00    +0.000 A 
ATOM      8  C   UNL     1       1.101   8.883  20.790  0.00  0.00    +0.000 A 
ATOM      9  C   UNL     1       1.548   7.561  20.871  0.00  0.00    +0.000 A 
ATOM     10  C   UNL     1       2.077   6.893  19.755  0.00  0.00    +0.000 A 
ATOM     11  C   UNL     1       2.192   7.679  18.612  0.00  0.00    +0.000 A 
ATOM     12  N   UNL     1       1.778   8.976  18.503  0.00  0.00    +0.000 NA
BRANCH   7  17
ATOM     13  N   UNL     1      -0.707  14.743  18.730  0.00  0.00    +0.000 N 
ATOM     14  C   UNL     1      -0.246  13.461  18.945  0.00  0.00    +0.000 A 
ATOM     15  N   UNL     1      -0.882  12.462  18.331  0.00  0.00    +0.000 NA
ATOM     16  C   UNL     1      -0.408  11.215  18.562  0.00  0.00    +0.000 A 
ATOM     17  C   UNL     1       0.665  10.912  19.380  0.00  0.00    +0.000 A 
ATOM     18  C   UNL     1       1.207  12.035  19.984  0.00  0.00    +0.000 A 
ATOM     19  N   UNL     1       0.774  13.306  19.788  0.00  0.00    +0.000 NA
ATOM     20  H   UNL     1      -1.683  14.713  18.473  0.00  0.00    +0.000 HD
ATOM     21  H   UNL     1      -0.450  15.325  19.516  0.00  0.00    +0.000 HD
ENDBRANCH   7  17
ENDBRANCH   1  10
BRANCH   6  22
ATOM     22  O   UNL     1       3.775   5.392  17.828  0.00  0.00    +0.000 OA
BRANCH  22  23
ATOM     23  C   UNL     1       5.158   5.252  17.736  0.00  0.00    +0.000 A 
ATOM     24  C   UNL     1       5.672   4.738  16.570  0.00  0.00    +0.000 A 
ATOM     25  C   UNL     1       7.025   4.508  16.588  0.00  0.00    +0.000 A 
ATOM     26  N   UNL     1       7.808   4.765  17.653  0.00  0.00    +0.000 NA
ATOM     27  C   UNL     1       7.214   5.314  18.717  0.00  0.00    +0.000 A 
ATOM     28  N   UNL     1       7.976   5.522  19.847  0.00  0.00    +0.000 N 
ATOM     29  N   UNL     1       5.911   5.578  18.804  0.00  0.00    +0.000 NA
ATOM     30  H   UNL     1       8.764   4.892  19.846  0.00  0.00    +0.000 HD
ATOM     31  H   UNL     1       7.374   5.509  20.659  0.00  0.00    +0.000 HD
ENDBRANCH  22  23
ENDBRANCH   6  22
TORSDOF 4
ENDMDL
MODEL 5
REMARK VINA RESULT:      -9.1      0.716      1.276
REMARK  Name = 
REMARK  4 active torsions:
REMARK  status: ('A' for Active; 'I' for Inactive)
REMARK    1  A    between atoms: C_5  and  C_6
REMARK    2  A    between atoms: C_9  and  C_10
REMARK    3  A    between atoms: C_15  and  O_16
REMARK    4  A    between atoms: O_16  and  C_17
REMARK                            x       y       z     vdW  Elec       q    Type
REMARK                         _______ _______ _______ _____ _____    ______ ____
ROOT
ATOM      1  C   UNL     1       3.656   6.293  17.503  0.00  0.00    +0.000 A 
ATOM      2  C   UNL     1       4.709   6.952  16.816  0.00  0.00    +0.000 A 
ATOM      3  C   UNL     1       5.669   6.269  16.066  0.00  0.00    +0.000 A 
ATOM      4  C   UNL     1       5.644   4.888  16.019  0.00  0.00    +0.000 A 
ATOM      5  C   UNL     1       4.652   4.200  16.710  0.00  0.00    +0.000 A 
ATOM      6  C   UNL     1       3.627   4.881  17.409  0.00  0.00    +0.000 A 
ENDROOT
BRANCH   1  10
ATOM      7  C   UNL     1       1.233   8.932  19.872  0.00  0.00    +0.000 A 
ATOM      8  C   UNL     1       1.388   9.179  18.514  0.00  0.00    +0.000 A 
ATOM      9  C   UNL     1       2.111   8.272  17.731  0.00  0.00    +0.000 A 
ATOM     10  C   UNL     1       2.712   7.133  18.290  0.00  0.00    +0.000 A 
ATOM     11  C   UNL     1       2.455   6.950  19.646  0.00  0.00    +0.000 A 
ATOM     12  N   UNL     1       1.742   7.808  20.435  0.00  0.00    +0.000 NA
BRANCH   7  17
ATOM     13  N   UNL     1      -1.375  12.523  23.265  0.00  0.00    +0.000 N 
ATOM     14  C   UNL     1      -0.719  11.638  22.435  0.00  0.00    +0.000 A 
ATOM     15  N   UNL     1      -0.155  10.565  22.993  0.00  0.00    +0.000 NA
ATOM     16  C   UNL     1       0.482   9.715  22.154  0.00  0.00    +0.000 A 
ATOM     17  C   UNL     1       0.590   9.883  20.785  0.00  0.00    +0.000 A 
ATOM     18  C   UNL     1      -0.005  11.054  20.344  0.00  0.00    +0.000 A 
ATOM     19  N   UNL     1      -0.657  11.939  21.138  0.00  0.00    +0.000 NA
ATOM     20  H   UNL     1      -0.997  12.454  24.199  0.00  0.00    +0.000 HD
ATOM     21  H   UNL     1      -1.386  13.437  22.833  0.00  0.00    +0.000 HD
ENDBRANCH   7  17
ENDBRANCH   1  10
BRANCH   6  22
ATOM     22  O   UNL     1       2.620   4.170  18.047  0.00  0.00    +0.000 OA
BRANCH  22  23
ATOM     23  C   UNL     1       2.948   3.535  19.243  0.00  0.00    +0.000 A 
ATOM     24  C   UNL     1       4.184   2.943  19.334  0.00  0.00    +0.000 A 
ATOM     25  C   UNL     1       4.398   2.230  20.487  0.00  0.00    +0.000 A 
ATOM     26  N   UNL     1       3.484   2.112  21.468  0.00  0.00    +0.000 NA
ATOM     27  C   UNL     1       2.335   2.773  21.301  0.00  0.00    +0.000 A 
ATOM     28  N   UNL     1       1.353   2.613  22.255  0.00  0.00    +0.000 N 
ATOM     29  N   UNL     1       2.026   3.493  20.223  0.00  0.00    +0.000 NA
ATOM     30  H   UNL     1       1.488   1.737  22.739  0.00  0.00    +0.000 HD
ATOM     31  H   UNL     1       0.449   2.772  21.830  0.00  0.00    +0.000 HD
ENDBRANCH  22  23
ENDBRANCH   6  22
TORSDOF 4
ENDMDL
MODEL 6
REMARK VINA RESULT:      -9.1      2.534      4.259
REMARK  Name = 
REMARK  4 active torsions:
REMARK  status: ('A' for Active; 'I' for Inactive)
REMARK    1  A    between atoms: C_5  and  C_6
REMARK    2  A    between atoms: C_9  and  C_10
REMARK    3  A    between atoms: C_15  and  O_16
REMARK    4  A    between atoms: O_16  and  C_17
REMARK                            x       y       z     vdW  Elec       q    Type
REMARK                         _______ _______ _______ _____ _____    ______ ____
ROOT
ATOM      1  C   UNL     1       2.383   5.317  19.859  0.00  0.00    +0.000 A 
ATOM      2  C   UNL     1       1.269   4.450  20.005  0.00  0.00    +0.000 A 
ATOM      3  C   UNL     1       1.390   3.060  20.051  0.00  0.00    +0.000 A 
ATOM      4  C   UNL     1       2.634   2.477  19.898  0.00  0.00    +0.000 A 
ATOM      5  C   UNL     1       3.749   3.288  19.714  0.00  0.00    +0.000 A 
ATOM      6  C   UNL     1       3.652   4.700  19.743  0.00  0.00    +0.000 A 
ENDROOT
BRANCH   1  10
ATOM      7  C   UNL     1       1.272   9.453  19.539  0.00  0.00    +0.000 A 
ATOM      8  C   UNL     1       1.059   8.777  20.734  0.00  0.00    +0.000 A 
ATOM      9  C   UNL     1       1.496   7.454  20.859  0.00  0.00    +0.000 A 
ATOM     10  C   UNL     1       2.119   6.780  19.796  0.00  0.00    +0.000 A 
ATOM     11  C   UNL     1       2.331   7.561  18.663  0.00  0.00    +0.000 A 
ATOM     12  N   UNL     1       1.930   8.858  18.514  0.00  0.00    +0.000 NA
BRANCH   7  17
ATOM     13  N   UNL     1      -0.749  14.600  18.741  0.00  0.00    +0.000 N 
ATOM     14  C   UNL     1      -0.247  13.328  18.925  0.00  0.00    +0.000 A 
ATOM     15  N   UNL     1       1.010  13.096  18.540  0.00  0.00    +0.000 NA
ATOM     16  C   UNL     1       1.474  11.839  18.732  0.00  0.00    +0.000 A 
ATOM     17  C   UNL     1       0.748  10.799  19.282  0.00  0.00    +0.000 A 
ATOM     18  C   UNL     1      -0.550  11.166  19.600  0.00  0.00    +0.000 A 
ATOM     19  N   UNL     1      -1.067  12.409  19.432  0.00  0.00    +0.000 NA
ATOM     20  H   UNL     1      -0.251  15.055  17.990  0.00  0.00    +0.000 HD
ATOM     21  H   UNL     1      -1.756  14.553  18.671  0.00  0.00    +0.000 HD
ENDBRANCH   7  17
ENDBRANCH   1  10
BRANCH   6  22
ATOM     22  O   UNL     1       4.789   5.484  19.608  0.00  0.00    +0.000 OA
BRANCH  22  23
ATOM     23  C   UNL     1       5.575   5.277  18.477  0.00  0.00    +0.000 A 
ATOM     24  C   UNL     1       6.820   4.724  18.657  0.00  0.00    +0.000 A 
ATOM     25  C   UNL     1       7.592   4.660  17.524  0.00  0.00    +0.000 A 
ATOM     26  N   UNL     1       7.179   5.094  16.318  0.00  0.00    +0.000 NA
ATOM     27  C   UNL     1       5.931   5.565  16.245  0.00  0.00    +0.000 A 
ATOM     28  N   UNL     1       5.505   6.082  15.040  0.00  0.00    +0.000 N 
ATOM     29  N   UNL     1       5.099   5.670  17.280  0.00  0.00    +0.000 NA
ATOM     30  H   UNL     1       6.302   6.381  14.497  0.00  0.00    +0.000 HD
ATOM     31  H   UNL     1       4.780   6.766  15.210  0.00  0.00    +0.000 HD
ENDBRANCH  22  23
ENDBRANCH   6  22
TORSDOF 4
ENDMDL
MODEL 7
REMARK VINA RESULT:      -9.1      0.834      1.408
REMARK  Name = 
REMARK  4 active torsions:
REMARK  status: ('A' for Active; 'I' for Inactive)
REMARK    1  A    between atoms: C_5  and  C_6
REMARK    2  A    between atoms: C_9  and  C_10
REMARK    3  A    between atoms: C_15  and  O_16
REMARK    4  A    between atoms: O_16  and  C_17
REMARK                            x       y       z     vdW  Elec       q    Type
REMARK                         _______ _______ _______ _____ _____    ______ ____
ROOT
ATOM      1  C   UNL     1       3.516   6.236  17.594  0.00  0.00    +0.000 A 
ATOM      2  C   UNL     1       4.656   6.622  16.843  0.00  0.00    +0.000 A 
ATOM      3  C   UNL     1       5.414   5.717  16.096  0.00  0.00    +0.000 A 
ATOM      4  C   UNL     1       5.090   4.374  16.117  0.00  0.00    +0.000 A 
ATOM      5  C   UNL     1       4.003   3.946  16.873  0.00  0.00    +0.000 A 
ATOM      6  C   UNL     1       3.179   4.862  17.570  0.00  0.00    +0.000 A 
ENDROOT
BRANCH   1  10
ATOM      7  C   UNL     1       1.147   9.102  19.744  0.00  0.00    +0.000 A 
ATOM      8  C   UNL     1       1.672   8.005  20.416  0.00  0.00    +0.000 A 
ATOM      9  C   UNL     1       2.509   7.119  19.731  0.00  0.00    +0.000 A 
ATOM     10  C   UNL     1       2.808   7.292  18.370  0.00  0.00    +0.000 A 
ATOM     11  C   UNL     1       2.276   8.446  17.804  0.00  0.00    +0.000 A 
ATOM     12  N   UNL     1       1.467   9.339  18.448  0.00  0.00    +0.000 NA
BRANCH   7  17
ATOM     13  N   UNL     1      -2.422  12.675  22.133  0.00  0.00    +0.000 N 
ATOM     14  C   UNL     1      -1.551  11.787  21.537  0.00  0.00    +0.000 A 
ATOM     15  N   UNL     1      -1.540  11.730  20.204  0.00  0.00    +0.000 NA
ATOM     16  C   UNL     1      -0.676  10.849  19.647  0.00  0.00    +0.000 A 
ATOM     17  C   UNL     1       0.174  10.016  20.352  0.00  0.00    +0.000 A 
ATOM     18  C   UNL     1       0.031  10.149  21.723  0.00  0.00    +0.000 A 
ATOM     19  N   UNL     1      -0.814  11.015  22.335  0.00  0.00    +0.000 NA
ATOM     20  H   UNL     1      -3.197  12.858  21.512  0.00  0.00    +0.000 HD
ATOM     21  H   UNL     1      -2.639  12.352  23.066  0.00  0.00    +0.000 HD
ENDBRANCH   7  17
ENDBRANCH   1  10
BRANCH   6  22
ATOM     22  O   UNL     1       2.070   4.412  18.274  0.00  0.00    +0.000 OA
BRANCH  22  23
ATOM     23  C   UNL     1       2.306   3.674  19.432  0.00  0.00    +0.000 A 
ATOM     24  C   UNL     1       1.370   3.742  20.435  0.00  0.00    +0.000 A 
ATOM     25  C   UNL     1       1.719   3.094  21.594  0.00  0.00    +0.000 A 
ATOM     26  N   UNL     1       2.880   2.432  21.754  0.00  0.00    +0.000 NA
ATOM     27  C   UNL     1       3.695   2.383  20.696  0.00  0.00    +0.000 A 
ATOM     28  N   UNL     1       4.921   1.774  20.852  0.00  0.00    +0.000 N 
ATOM     29  N   UNL     1       3.453   2.975  19.527  0.00  0.00    +0.000 NA
ATOM     30  H   UNL     1       5.187   1.789  21.826  0.00  0.00    +0.000 HD
ATOM     31  H   UNL     1       5.574   2.169  20.189  0.00  0.00    +0.000 HD
ENDBRANCH  22  23
ENDBRANCH   6  22
TORSDOF 4
ENDMDL
MODEL 8
REMARK VINA RESULT:      -9.0      2.232      3.941
REMARK  Name = 
REMARK  4 active torsions:
REMARK  status: ('A' for Active; 'I' for Inactive)
REMARK    1  A    between atoms: C_5  and  C_6
REMARK    2  A    between atoms: C_9  and  C_10
REMARK    3  A    between atoms: C_15  and  O_16
REMARK    4  A    between atoms: O_16  and  C_17
REMARK                            x       y       z     vdW  Elec       q    Type
REMARK                         _______ _______ _______ _____ _____    ______ ____
ROOT
ATOM      1  C   UNL     1       2.058   5.435  20.151  0.00  0.00    +0.000 A 
ATOM      2  C   UNL     1       0.925   4.595  20.308  0.00  0.00    +0.000 A 
ATOM      3  C   UNL     1       1.011   3.201  20.329  0.00  0.00    +0.000 A 
ATOM      4  C   UNL     1       2.236   2.589  20.138  0.00  0.00    +0.000 A 
ATOM      5  C   UNL     1       3.367   3.375  19.942  0.00  0.00    +0.000 A 
ATOM      6  C   UNL     1       3.308   4.788  19.996  0.00  0.00    +0.000 A 
ENDROOT
BRANCH   1  10
ATOM      7  C   UNL     1       1.052   9.604  19.915  0.00  0.00    +0.000 A 
ATOM      8  C   UNL     1       0.815   8.907  21.094  0.00  0.00    +0.000 A 
ATOM      9  C   UNL     1       1.219   7.572  21.193  0.00  0.00    +0.000 A 
ATOM     10  C   UNL     1       1.830   6.905  20.118  0.00  0.00    +0.000 A 
ATOM     11  C   UNL     1       2.068   7.704  19.003  0.00  0.00    +0.000 A 
ATOM     12  N   UNL     1       1.699   9.013  18.879  0.00  0.00    +0.000 NA
BRANCH   7  17
ATOM     13  N   UNL     1      -0.983  14.738  19.075  0.00  0.00    +0.000 N 
ATOM     14  C   UNL     1      -0.468  13.475  19.281  0.00  0.00    +0.000 A 
ATOM     15  N   UNL     1       0.416  13.319  20.268  0.00  0.00    +0.000 NA
ATOM     16  C   UNL     1       0.905  12.069  20.446  0.00  0.00    +0.000 A 
ATOM     17  C   UNL     1       0.562  10.967  19.684  0.00  0.00    +0.000 A 
ATOM     18  C   UNL     1      -0.331  11.277  18.672  0.00  0.00    +0.000 A 
ATOM     19  N   UNL     1      -0.855  12.508  18.450  0.00  0.00    +0.000 NA
ATOM     20  H   UNL     1      -0.334  15.429  19.421  0.00  0.00    +0.000 HD
ATOM     21  H   UNL     1      -1.283  14.822  18.112  0.00  0.00    +0.000 HD
ENDBRANCH   7  17
ENDBRANCH   1  10
BRANCH   6  22
ATOM     22  O   UNL     1       4.461   5.545  19.848  0.00  0.00    +0.000 OA
BRANCH  22  23
ATOM     23  C   UNL     1       5.200   5.359  18.682  0.00  0.00    +0.000 A 
ATOM     24  C   UNL     1       4.561   5.557  17.482  0.00  0.00    +0.000 A 
ATOM     25  C   UNL     1       5.304   5.238  16.373  0.00  0.00    +0.000 A 
ATOM     26  N   UNL     1       6.565   4.771  16.433  0.00  0.00    +0.000 NA
ATOM     27  C   UNL     1       7.110   4.667  17.649  0.00  0.00    +0.000 A 
ATOM     28  N   UNL     1       8.373   4.125  17.746  0.00  0.00    +0.000 N 
ATOM     29  N   UNL     1       6.479   4.949  18.787  0.00  0.00    +0.000 NA
ATOM     30  H   UNL     1       8.555   3.539  16.944  0.00  0.00    +0.000 HD
ATOM     31  H   UNL     1       8.484   3.705  18.660  0.00  0.00    +0.000 HD
ENDBRANCH  22  23
ENDBRANCH   6  22
TORSDOF 4
ENDMDL
MODEL 9
REMARK VINA RESULT:      -9.0      2.422      3.966
REMARK  Name = 
REMARK  4 active torsions:
REMARK  status: ('A' for Active; 'I' for Inactive)
REMARK    1  A    between atoms: C_5  and  C_6
REMARK    2  A    between atoms: C_9  and  C_10
REMARK    3  A    between atoms: C_15  and  O_16
REMARK    4  A    between atoms: O_16  and  C_17
REMARK                            x       y       z     vdW  Elec       q    Type
REMARK                         _______ _______ _______ _____ _____    ______ ____
ROOT
ATOM      1  C   UNL     1       2.188   4.900  18.852  0.00  0.00    +0.000 A 
ATOM      2  C   UNL     1       1.386   3.861  19.391  0.00  0.00    +0.000 A 
ATOM      3  C   UNL     1       1.451   2.541  18.941  0.00  0.00    +0.000 A 
ATOM      4  C   UNL     1       2.288   2.218  17.890  0.00  0.00    +0.000 A 
ATOM      5  C   UNL     1       3.064   3.214  17.306  0.00  0.00    +0.000 A 
ATOM      6  C   UNL     1       3.067   4.539  17.803  0.00  0.00    +0.000 A 
ENDROOT
BRANCH   1  10
ATOM      7  C   UNL     1       1.293   8.834  20.326  0.00  0.00    +0.000 A 
ATOM      8  C   UNL     1       1.200   7.743  21.182  0.00  0.00    +0.000 A 
ATOM      9  C   UNL     1       1.570   6.476  20.720  0.00  0.00    +0.000 A 
ATOM     10  C   UNL     1       2.005   6.272  19.401  0.00  0.00    +0.000 A 
ATOM     11  C   UNL     1       2.111   7.433  18.641  0.00  0.00    +0.000 A 
ATOM     12  N   UNL     1       1.771   8.686  19.065  0.00  0.00    +0.000 NA
BRANCH   7  17
ATOM     13  N   UNL     1      -0.389  13.938  21.850  0.00  0.00    +0.000 N 
ATOM     14  C   UNL     1       0.018  12.678  21.463  0.00  0.00    +0.000 A 
ATOM     15  N   UNL     1       0.561  12.548  20.251  0.00  0.00    +0.000 NA
ATOM     16  C   UNL     1       0.950  11.300  19.898  0.00  0.00    +0.000 A 
ATOM     17  C   UNL     1       0.820  10.174  20.689  0.00  0.00    +0.000 A 
ATOM     18  C   UNL     1       0.206  10.444  21.902  0.00  0.00    +0.000 A 
ATOM     19  N   UNL     1      -0.201  11.672  22.308  0.00  0.00    +0.000 NA
ATOM     20  H   UNL     1      -0.591  14.495  21.033  0.00  0.00    +0.000 HD
ATOM     21  H   UNL     1      -1.118  13.852  22.546  0.00  0.00    +0.000 HD
ENDBRANCH   7  17
ENDBRANCH   1  10
BRANCH   6  22
ATOM     22  O   UNL     1       3.890   5.501  17.233  0.00  0.00    +0.000 OA
BRANCH  22  23
ATOM     23  C   UNL     1       5.215   5.145  16.992  0.00  0.00    +0.000 A 
ATOM     24  C   UNL     1       5.980   4.767  18.068  0.00  0.00    +0.000 A 
ATOM     25  C   UNL     1       7.305   4.548  17.785  0.00  0.00    +0.000 A 
ATOM     26  N   UNL     1       7.834   4.682  16.554  0.00  0.00    +0.000 NA
ATOM     27  C   UNL     1       6.989   5.002  15.569  0.00  0.00    +0.000 A 
ATOM     28  N   UNL     1       7.513   5.216  14.313  0.00  0.00    +0.000 N 
ATOM     29  N   UNL     1       5.688   5.235  15.734  0.00  0.00    +0.000 NA
ATOM     30  H   UNL     1       8.486   5.474  14.389  0.00  0.00    +0.000 HD
ATOM     31  H   UNL     1       6.907   5.845  13.803  0.00  0.00    +0.000 HD
ENDBRANCH  22  23
ENDBRANCH   6  22
TORSDOF 4
ENDMDL
