MODEL 1
REMARK VINA RESULT:      -7.2      0.000      0.000
REMARK  Name = 
REMARK  6 active torsions:
REMARK  status: ('A' for Active; 'I' for Inactive)
REMARK    1  A    between atoms: C_1  and  C_2
REMARK    2  A    between atoms: C_8  and  O_9
REMARK    3  A    between atoms: O_9  and  C_10
REMARK    4  A    between atoms: C_10  and  C_12
REMARK    5  A    between atoms: C_21  and  C_22
REMARK    6  A    between atoms: N_30  and  C_31
REMARK                            x       y       z     vdW  Elec       q    Type
REMARK                         _______ _______ _______ _____ _____    ______ ____
ROOT
ATOM      1  C   UNL     1      -1.622  10.049  18.512  0.00  0.00    +0.000 C 
ATOM      2  C   UNL     1      -0.870  11.239  19.329  0.00  0.00    +0.000 C 
ATOM      3  C   UNL     1      -0.546  11.800  20.749  0.00  0.00    +0.000 C 
ATOM      4  C   UNL     1       0.993  11.819  21.240  0.00  0.00    +0.000 C 
ATOM      5  C   UNL     1       1.896  12.626  20.320  0.00  0.00    +0.000 A 
ATOM      6  C   UNL     1       2.971  13.394  20.806  0.00  0.00    +0.000 A 
ATOM      7  C   UNL     1       3.452  14.490  20.078  0.00  0.00    +0.000 A 
ATOM      8  C   UNL     1       2.874  14.800  18.849  0.00  0.00    +0.000 A 
ATOM      9  C   UNL     1       2.004  13.873  18.255  0.00  0.00    +0.000 A 
ATOM     10  C   UNL     1       1.499  12.745  18.994  0.00  0.00    +0.000 A 
ATOM     11  C   UNL     1       0.370  11.746  18.505  0.00  0.00    +0.000 C 
ATOM     12  C   UNL     1      -0.688  12.883  17.981  0.00  0.00    +0.000 C 
ATOM     13  C   UNL     1      -1.360  13.708  19.285  0.00  0.00    +0.000 C 
ATOM     14  N   UNL     1      -0.881  13.245  20.614  0.00  0.00    +0.000 NA
ATOM     15  C   UNL     1      -1.469  13.781  21.816  0.00  0.00    +0.000 C 
ENDROOT
BRANCH  11  16
ATOM     16  C   UNL     1       0.990  10.165  18.771  0.00  0.00    +0.000 A 
ATOM     17  C   UNL     1       0.972   9.457  20.072  0.00  0.00    +0.000 A 
ATOM     18  C   UNL     1       1.515   8.217  20.396  0.00  0.00    +0.000 A 
ATOM     19  C   UNL     1       2.215   7.577  19.416  0.00  0.00    +0.000 A 
ATOM     20  C   UNL     1       2.335   8.204  18.163  0.00  0.00    +0.000 A 
ATOM     21  C   UNL     1       1.747   9.465  17.829  0.00  0.00    +0.000 A 
ENDBRANCH  11  16
BRANCH   8  22
ATOM     22  O   UNL     1       3.225  16.071  18.292  0.00  0.00    +0.000 OA
BRANCH  22  23
ATOM     23  C   UNL     1       2.714  17.243  18.873  0.00  0.00    +0.000 C 
ATOM     24  O   UNL     1       3.280  17.935  19.702  0.00  0.00    +0.000 OA
BRANCH  23  25
ATOM     25  C   UNL     1       1.325  17.598  18.384  0.00  0.00    +0.000 A 
ATOM     26  C   UNL     1       1.080  18.262  17.161  0.00  0.00    +0.000 A 
ATOM     27  C   UNL     1      -0.233  18.578  16.779  0.00  0.00    +0.000 A 
ATOM     28  C   UNL     1      -1.315  18.250  17.604  0.00  0.00    +0.000 A 
ATOM     29  C   UNL     1      -1.078  17.622  18.818  0.00  0.00    +0.000 A 
ATOM     30 CL   UNL     1      -2.410  17.227  19.829  0.00  0.00    +0.000 Cl
ATOM     31  C   UNL     1       0.228  17.288  19.198  0.00  0.00    +0.000 A 
ENDBRANCH  23  25
ENDBRANCH  22  23
ENDBRANCH   8  22
TORSDOF 4
ENDMDL
MODEL 2
REMARK VINA RESULT:      -7.0      4.314      7.946
REMARK  Name = 
REMARK  6 active torsions:
REMARK  status: ('A' for Active; 'I' for Inactive)
REMARK    1  A    between atoms: C_1  and  C_2
REMARK    2  A    between atoms: C_8  and  O_9
REMARK    3  A    between atoms: O_9  and  C_10
REMARK    4  A    between atoms: C_10  and  C_12
REMARK    5  A    between atoms: C_21  and  C_22
REMARK    6  A    between atoms: N_30  and  C_31
REMARK                            x       y       z     vdW  Elec       q    Type
REMARK                         _______ _______ _______ _____ _____    ______ ____
ROOT
ATOM      1  C   UNL     1      -4.486  15.668  20.856  0.00  0.00    +0.000 C 
ATOM      2  C   UNL     1      -3.362  14.829  21.683  0.00  0.00    +0.000 C 
ATOM      3  C   UNL     1      -2.830  14.477  23.108  0.00  0.00    +0.000 C 
ATOM      4  C   UNL     1      -2.938  12.947  23.617  0.00  0.00    +0.000 C 
ATOM      5  C   UNL     1      -2.207  11.971  22.708  0.00  0.00    +0.000 A 
ATOM      6  C   UNL     1      -1.530  10.842  23.207  0.00  0.00    +0.000 A 
ATOM      7  C   UNL     1      -0.477  10.264  22.486  0.00  0.00    +0.000 A 
ATOM      8  C   UNL     1      -0.120  10.800  21.251  0.00  0.00    +0.000 A 
ATOM      9  C   UNL     1      -0.972  11.737  20.646  0.00  0.00    +0.000 A 
ATOM     10  C   UNL     1      -2.056  12.342  21.377  0.00  0.00    +0.000 A 
ATOM     11  C   UNL     1      -2.958  13.543  20.874  0.00  0.00    +0.000 C 
ATOM     12  C   UNL     1      -1.738  14.498  20.340  0.00  0.00    +0.000 C 
ATOM     13  C   UNL     1      -0.861  15.115  21.637  0.00  0.00    +0.000 C 
ATOM     14  N   UNL     1      -1.362  14.691  22.970  0.00  0.00    +0.000 NA
ATOM     15  C   UNL     1      -0.781  15.246  24.167  0.00  0.00    +0.000 C 
ENDROOT
BRANCH  11  16
ATOM     16  C   UNL     1      -4.585  13.058  21.146  0.00  0.00    +0.000 A 
ATOM     17  C   UNL     1      -5.339  13.290  22.399  0.00  0.00    +0.000 A 
ATOM     18  C   UNL     1      -6.623  12.869  22.733  0.00  0.00    +0.000 A 
ATOM     19  C   UNL     1      -7.269  12.084  21.824  0.00  0.00    +0.000 A 
ATOM     20  C   UNL     1      -6.604  11.763  20.627  0.00  0.00    +0.000 A 
ATOM     21  C   UNL     1      -5.296  12.225  20.278  0.00  0.00    +0.000 A 
ENDBRANCH  11  16
BRANCH   8  22
ATOM     22  O   UNL     1       1.117  10.340  20.699  0.00  0.00    +0.000 OA
BRANCH  22  23
ATOM     23  C   UNL     1       1.117   9.683  19.458  0.00  0.00    +0.000 C 
ATOM     24  O   UNL     1       0.721  10.147  18.404  0.00  0.00    +0.000 OA
BRANCH  23  25
ATOM     25  C   UNL     1       1.658   8.269  19.529  0.00  0.00    +0.000 A 
ATOM     26  C   UNL     1       1.414   7.400  20.616  0.00  0.00    +0.000 A 
ATOM     27  C   UNL     1       1.963   6.108  20.626  0.00  0.00    +0.000 A 
ATOM     28  C   UNL     1       2.765   5.667  19.567  0.00  0.00    +0.000 A 
ATOM     29  C   UNL     1       3.029   6.525  18.510  0.00  0.00    +0.000 A 
ATOM     30 CL   UNL     1       4.018   5.977  17.216  0.00  0.00    +0.000 Cl
ATOM     31  C   UNL     1       2.470   7.808  18.485  0.00  0.00    +0.000 A 
ENDBRANCH  23  25
ENDBRANCH  22  23
ENDBRANCH   8  22
TORSDOF 4
ENDMDL
MODEL 3
REMARK VINA RESULT:      -7.0      4.224      7.764
REMARK  Name = 
REMARK  6 active torsions:
REMARK  status: ('A' for Active; 'I' for Inactive)
REMARK    1  A    between atoms: C_1  and  C_2
REMARK    2  A    between atoms: C_8  and  O_9
REMARK    3  A    between atoms: O_9  and  C_10
REMARK    4  A    between atoms: C_10  and  C_12
REMARK    5  A    between atoms: C_21  and  C_22
REMARK    6  A    between atoms: N_30  and  C_31
REMARK                            x       y       z     vdW  Elec       q    Type
REMARK                         _______ _______ _______ _____ _____    ______ ____
ROOT
ATOM      1  C   UNL     1      -4.456  15.828  21.074  0.00  0.00    +0.000 C 
ATOM      2  C   UNL     1      -3.303  14.968  21.837  0.00  0.00    +0.000 C 
ATOM      3  C   UNL     1      -2.704  14.597  23.230  0.00  0.00    +0.000 C 
ATOM      4  C   UNL     1      -2.806  13.065  23.731  0.00  0.00    +0.000 C 
ATOM      5  C   UNL     1      -2.134  12.088  22.779  0.00  0.00    +0.000 A 
ATOM      6  C   UNL     1      -1.447  10.946  23.235  0.00  0.00    +0.000 A 
ATOM      7  C   UNL     1      -0.439  10.362  22.457  0.00  0.00    +0.000 A 
ATOM      8  C   UNL     1      -0.138  10.904  21.210  0.00  0.00    +0.000 A 
ATOM      9  C   UNL     1      -1.008  11.856  20.656  0.00  0.00    +0.000 A 
ATOM     10  C   UNL     1      -2.045  12.468  21.446  0.00  0.00    +0.000 A 
ATOM     11  C   UNL     1      -2.957  13.684  20.998  0.00  0.00    +0.000 C 
ATOM     12  C   UNL     1      -1.753  14.628  20.410  0.00  0.00    +0.000 C 
ATOM     13  C   UNL     1      -0.804  15.224  21.666  0.00  0.00    +0.000 C 
ATOM     14  N   UNL     1      -1.243  14.794  23.020  0.00  0.00    +0.000 NA
ATOM     15  C   UNL     1      -0.594  15.333  24.190  0.00  0.00    +0.000 C 
ENDROOT
BRANCH  11  16
ATOM     16  C   UNL     1      -4.574  13.216  21.348  0.00  0.00    +0.000 A 
ATOM     17  C   UNL     1      -5.225  13.348  22.671  0.00  0.00    +0.000 A 
ATOM     18  C   UNL     1      -6.493  12.929  23.063  0.00  0.00    +0.000 A 
ATOM     19  C   UNL     1      -7.230  12.250  22.138  0.00  0.00    +0.000 A 
ATOM     20  C   UNL     1      -6.666  12.028  20.868  0.00  0.00    +0.000 A 
ATOM     21  C   UNL     1      -5.374  12.488  20.464  0.00  0.00    +0.000 A 
ENDBRANCH  11  16
BRANCH   8  22
ATOM     22  O   UNL     1       1.064  10.433  20.593  0.00  0.00    +0.000 OA
BRANCH  22  23
ATOM     23  C   UNL     1       1.026   9.983  19.263  0.00  0.00    +0.000 C 
ATOM     24  O   UNL     1       0.446  10.527  18.340  0.00  0.00    +0.000 OA
BRANCH  23  25
ATOM     25  C   UNL     1       1.785   8.689  19.047  0.00  0.00    +0.000 A 
ATOM     26  C   UNL     1       2.568   8.432  17.899  0.00  0.00    +0.000 A 
ATOM     27  C   UNL     1       3.230   7.202  17.756  0.00  0.00    +0.000 A 
ATOM     28  C   UNL     1       3.117   6.213  18.739  0.00  0.00    +0.000 A 
ATOM     29  C   UNL     1       2.329   6.450  19.856  0.00  0.00    +0.000 A 
ATOM     30 CL   UNL     1       2.191   5.229  21.057  0.00  0.00    +0.000 Cl
ATOM     31  C   UNL     1       1.680   7.681  20.014  0.00  0.00    +0.000 A 
ENDBRANCH  23  25
ENDBRANCH  22  23
ENDBRANCH   8  22
TORSDOF 4
ENDMDL
MODEL 4
REMARK VINA RESULT:      -7.0      3.893      7.732
REMARK  Name = 
REMARK  6 active torsions:
REMARK  status: ('A' for Active; 'I' for Inactive)
REMARK    1  A    between atoms: C_1  and  C_2
REMARK    2  A    between atoms: C_8  and  O_9
REMARK    3  A    between atoms: O_9  and  C_10
REMARK    4  A    between atoms: C_10  and  C_12
REMARK    5  A    between atoms: C_21  and  C_22
REMARK    6  A    between atoms: N_30  and  C_31
REMARK                            x       y       z     vdW  Elec       q    Type
REMARK                         _______ _______ _______ _____ _____    ______ ____
ROOT
ATOM      1  C   UNL     1      -3.674  15.760  21.678  0.00  0.00    +0.000 C 
ATOM      2  C   UNL     1      -2.370  14.787  21.727  0.00  0.00    +0.000 C 
ATOM      3  C   UNL     1      -1.112  14.386  22.560  0.00  0.00    +0.000 C 
ATOM      4  C   UNL     1      -1.036  12.894  23.174  0.00  0.00    +0.000 C 
ATOM      5  C   UNL     1      -1.121  11.813  22.109  0.00  0.00    +0.000 A 
ATOM      6  C   UNL     1      -0.397  10.609  22.199  0.00  0.00    +0.000 A 
ATOM      7  C   UNL     1      -0.076   9.881  21.046  0.00  0.00    +0.000 A 
ATOM      8  C   UNL     1      -0.504  10.343  19.804  0.00  0.00    +0.000 A 
ATOM      9  C   UNL     1      -1.449  11.380  19.755  0.00  0.00    +0.000 A 
ATOM     10  C   UNL     1      -1.785  12.139  20.932  0.00  0.00    +0.000 A 
ATOM     11  C   UNL     1      -2.681  13.445  20.969  0.00  0.00    +0.000 C 
ATOM     12  C   UNL     1      -1.961  14.215  19.713  0.00  0.00    +0.000 C 
ATOM     13  C   UNL     1      -0.416  14.724  20.141  0.00  0.00    +0.000 C 
ATOM     14  N   UNL     1      -0.028  14.393  21.538  0.00  0.00    +0.000 NA
ATOM     15  C   UNL     1       1.219  14.882  22.073  0.00  0.00    +0.000 C 
ENDROOT
BRANCH  11  16
ATOM     16  C   UNL     1      -3.834  13.194  22.219  0.00  0.00    +0.000 A 
ATOM     17  C   UNL     1      -3.503  12.794  23.607  0.00  0.00    +0.000 A 
ATOM     18  C   UNL     1      -4.367  12.496  24.655  0.00  0.00    +0.000 A 
ATOM     19  C   UNL     1      -5.702  12.507  24.376  0.00  0.00    +0.000 A 
ATOM     20  C   UNL     1      -6.106  12.820  23.065  0.00  0.00    +0.000 A 
ATOM     21  C   UNL     1      -5.212  13.155  22.000  0.00  0.00    +0.000 A 
ENDBRANCH  11  16
BRANCH   8  22
ATOM     22  O   UNL     1       0.078   9.709  18.662  0.00  0.00    +0.000 OA
BRANCH  22  23
ATOM     23  C   UNL     1       1.465   9.797  18.455  0.00  0.00    +0.000 C 
ATOM     24  O   UNL     1       2.087  10.815  18.210  0.00  0.00    +0.000 OA
BRANCH  23  25
ATOM     25  C   UNL     1       2.169   8.459  18.542  0.00  0.00    +0.000 A 
ATOM     26  C   UNL     1       1.992   7.559  19.618  0.00  0.00    +0.000 A 
ATOM     27  C   UNL     1       2.693   6.343  19.644  0.00  0.00    +0.000 A 
ATOM     28  C   UNL     1       3.580   6.008  18.615  0.00  0.00    +0.000 A 
ATOM     29  C   UNL     1       3.777   6.899  17.570  0.00  0.00    +0.000 A 
ATOM     30 CL   UNL     1       4.873   6.484  16.312  0.00  0.00    +0.000 Cl
ATOM     31  C   UNL     1       3.069   8.106  17.528  0.00  0.00    +0.000 A 
ENDBRANCH  23  25
ENDBRANCH  22  23
ENDBRANCH   8  22
TORSDOF 4
ENDMDL
MODEL 5
REMARK VINA RESULT:      -6.9      3.747      7.691
REMARK  Name = 
REMARK  6 active torsions:
REMARK  status: ('A' for Active; 'I' for Inactive)
REMARK    1  A    between atoms: C_1  and  C_2
REMARK    2  A    between atoms: C_8  and  O_9
REMARK    3  A    between atoms: O_9  and  C_10
REMARK    4  A    between atoms: C_10  and  C_12
REMARK    5  A    between atoms: C_21  and  C_22
REMARK    6  A    between atoms: N_30  and  C_31
REMARK                            x       y       z     vdW  Elec       q    Type
REMARK                         _______ _______ _______ _____ _____    ______ ____
ROOT
ATOM      1  C   UNL     1      -2.348  15.786  20.486  0.00  0.00    +0.000 C 
ATOM      2  C   UNL     1      -1.227  14.624  20.685  0.00  0.00    +0.000 C 
ATOM      3  C   UNL     1      -0.140  14.056  21.651  0.00  0.00    +0.000 C 
ATOM      4  C   UNL     1      -0.364  12.588  22.288  0.00  0.00    +0.000 C 
ATOM      5  C   UNL     1      -0.508  11.503  21.232  0.00  0.00    +0.000 A 
ATOM      6  C   UNL     1       0.003  10.204  21.413  0.00  0.00    +0.000 A 
ATOM      7  C   UNL     1       0.324   9.403  20.310  0.00  0.00    +0.000 A 
ATOM      8  C   UNL     1       0.105   9.891  19.024  0.00  0.00    +0.000 A 
ATOM      9  C   UNL     1      -0.655  11.060  18.863  0.00  0.00    +0.000 A 
ATOM     10  C   UNL     1      -0.987  11.895  19.988  0.00  0.00    +0.000 A 
ATOM     11  C   UNL     1      -1.665  13.326  19.913  0.00  0.00    +0.000 C 
ATOM     12  C   UNL     1      -0.707  13.938  18.733  0.00  0.00    +0.000 C 
ATOM     13  C   UNL     1       0.847  14.213  19.317  0.00  0.00    +0.000 C 
ATOM     14  N   UNL     1       1.031  13.865  20.751  0.00  0.00    +0.000 NA
ATOM     15  C   UNL     1       2.277  14.169  21.410  0.00  0.00    +0.000 C 
ENDROOT
BRANCH  11  16
ATOM     16  C   UNL     1      -2.966  13.292  21.037  0.00  0.00    +0.000 A 
ATOM     17  C   UNL     1      -2.811  13.247  22.509  0.00  0.00    +0.000 A 
ATOM     18  C   UNL     1      -3.798  13.141  23.485  0.00  0.00    +0.000 A 
ATOM     19  C   UNL     1      -5.082  12.996  23.049  0.00  0.00    +0.000 A 
ATOM     20  C   UNL     1      -5.316  12.970  21.662  0.00  0.00    +0.000 A 
ATOM     21  C   UNL     1      -4.300  13.110  20.666  0.00  0.00    +0.000 A 
ENDBRANCH  11  16
BRANCH   8  22
ATOM     22  O   UNL     1       0.694   9.142  17.957  0.00  0.00    +0.000 OA
BRANCH  22  23
ATOM     23  C   UNL     1       2.087   9.177  17.777  0.00  0.00    +0.000 C 
ATOM     24  O   UNL     1       2.760  10.178  17.608  0.00  0.00    +0.000 OA
BRANCH  23  25
ATOM     25  C   UNL     1       2.727   7.804  17.787  0.00  0.00    +0.000 A 
ATOM     26  C   UNL     1       4.047   7.560  17.347  0.00  0.00    +0.000 A 
ATOM     27  C   UNL     1       4.570   6.258  17.365  0.00  0.00    +0.000 A 
ATOM     28  C   UNL     1       3.792   5.183  17.811  0.00  0.00    +0.000 A 
ATOM     29  C   UNL     1       2.486   5.412  18.220  0.00  0.00    +0.000 A 
ATOM     30 CL   UNL     1       1.535   4.087  18.760  0.00  0.00    +0.000 Cl
ATOM     31  C   UNL     1       1.964   6.711  18.220  0.00  0.00    +0.000 A 
ENDBRANCH  23  25
ENDBRANCH  22  23
ENDBRANCH   8  22
TORSDOF 4
ENDMDL
MODEL 6
REMARK VINA RESULT:      -6.9      2.682      3.743
REMARK  Name = 
REMARK  6 active torsions:
REMARK  status: ('A' for Active; 'I' for Inactive)
REMARK    1  A    between atoms: C_1  and  C_2
REMARK    2  A    between atoms: C_8  and  O_9
REMARK    3  A    between atoms: O_9  and  C_10
REMARK    4  A    between atoms: C_10  and  C_12
REMARK    5  A    between atoms: C_21  and  C_22
REMARK    6  A    between atoms: N_30  and  C_31
REMARK                            x       y       z     vdW  Elec       q    Type
REMARK                         _______ _______ _______ _____ _____    ______ ____
ROOT
ATOM      1  C   UNL     1      -1.683   9.738  18.295  0.00  0.00    +0.000 C 
ATOM      2  C   UNL     1      -1.114  10.895  19.289  0.00  0.00    +0.000 C 
ATOM      3  C   UNL     1      -0.953  11.325  20.781  0.00  0.00    +0.000 C 
ATOM      4  C   UNL     1       0.536  11.429  21.399  0.00  0.00    +0.000 C 
ATOM      5  C   UNL     1       1.419  12.411  20.645  0.00  0.00    +0.000 A 
ATOM      6  C   UNL     1       2.375  13.216  21.295  0.00  0.00    +0.000 A 
ATOM      7  C   UNL     1       2.797  14.424  20.725  0.00  0.00    +0.000 A 
ATOM      8  C   UNL     1       2.284  14.813  19.490  0.00  0.00    +0.000 A 
ATOM      9  C   UNL     1       1.555  13.881  18.734  0.00  0.00    +0.000 A 
ATOM     10  C   UNL     1       1.111  12.637  19.309  0.00  0.00    +0.000 A 
ATOM     11  C   UNL     1       0.127  11.600  18.628  0.00  0.00    +0.000 C 
ATOM     12  C   UNL     1      -0.997  12.686  18.136  0.00  0.00    +0.000 C 
ATOM     13  C   UNL     1      -1.843  13.300  19.455  0.00  0.00    +0.000 C 
ATOM     14  N   UNL     1      -1.419  12.740  20.766  0.00  0.00    +0.000 NA
ATOM     15  C   UNL     1      -2.144  13.085  21.963  0.00  0.00    +0.000 C 
ENDROOT
BRANCH  11  16
ATOM     16  C   UNL     1       0.879  10.062  18.783  0.00  0.00    +0.000 A 
ATOM     17  C   UNL     1       0.963   9.284  20.041  0.00  0.00    +0.000 A 
ATOM     18  C   UNL     1       1.614   8.077  20.276  0.00  0.00    +0.000 A 
ATOM     19  C   UNL     1       2.327   7.550  19.240  0.00  0.00    +0.000 A 
ATOM     20  C   UNL     1       2.352   8.253  18.021  0.00  0.00    +0.000 A 
ATOM     21  C   UNL     1       1.655   9.479  17.779  0.00  0.00    +0.000 A 
ENDBRANCH  11  16
BRANCH   8  22
ATOM     22  O   UNL     1       2.546  16.163  19.096  0.00  0.00    +0.000 OA
BRANCH  22  23
ATOM     23  C   UNL     1       3.379  16.410  17.992  0.00  0.00    +0.000 C 
ATOM     24  O   UNL     1       3.016  16.813  16.901  0.00  0.00    +0.000 OA
BRANCH  23  25
ATOM     25  C   UNL     1       4.838  16.105  18.262  0.00  0.00    +0.000 A 
ATOM     26  C   UNL     1       5.690  16.971  18.984  0.00  0.00    +0.000 A 
ATOM     27  C   UNL     1       7.039  16.634  19.180  0.00  0.00    +0.000 A 
ATOM     28  C   UNL     1       7.560  15.445  18.658  0.00  0.00    +0.000 A 
ATOM     29  C   UNL     1       6.734  14.604  17.926  0.00  0.00    +0.000 A 
ATOM     30 CL   UNL     1       7.383  13.148  17.283  0.00  0.00    +0.000 Cl
ATOM     31  C   UNL     1       5.384  14.925  17.741  0.00  0.00    +0.000 A 
ENDBRANCH  23  25
ENDBRANCH  22  23
ENDBRANCH   8  22
TORSDOF 4
ENDMDL
MODEL 7
REMARK VINA RESULT:      -6.8      4.456      8.557
REMARK  Name = 
REMARK  6 active torsions:
REMARK  status: ('A' for Active; 'I' for Inactive)
REMARK    1  A    between atoms: C_1  and  C_2
REMARK    2  A    between atoms: C_8  and  O_9
REMARK    3  A    between atoms: O_9  and  C_10
REMARK    4  A    between atoms: C_10  and  C_12
REMARK    5  A    between atoms: C_21  and  C_22
REMARK    6  A    between atoms: N_30  and  C_31
REMARK                            x       y       z     vdW  Elec       q    Type
REMARK                         _______ _______ _______ _____ _____    ______ ____
ROOT
ATOM      1  C   UNL     1      -0.673  14.271  18.101  0.00  0.00    +0.000 C 
ATOM      2  C   UNL     1       0.060  13.434  19.289  0.00  0.00    +0.000 C 
ATOM      3  C   UNL     1       0.471  13.456  20.795  0.00  0.00    +0.000 C 
ATOM      4  C   UNL     1      -0.214  12.391  21.798  0.00  0.00    +0.000 C 
ATOM      5  C   UNL     1       0.028  10.949  21.381  0.00  0.00    +0.000 A 
ATOM      6  C   UNL     1       0.222   9.917  22.318  0.00  0.00    +0.000 A 
ATOM      7  C   UNL     1       0.926   8.757  21.969  0.00  0.00    +0.000 A 
ATOM      8  C   UNL     1       1.411   8.618  20.671  0.00  0.00    +0.000 A 
ATOM      9  C   UNL     1       0.976   9.516  19.684  0.00  0.00    +0.000 A 
ATOM     10  C   UNL     1       0.255  10.714  20.030  0.00  0.00    +0.000 A 
ATOM     11  C   UNL     1      -0.117  11.892  19.038  0.00  0.00    +0.000 C 
ATOM     12  C   UNL     1       1.357  12.034  18.336  0.00  0.00    +0.000 C 
ATOM     13  C   UNL     1       2.464  12.697  19.417  0.00  0.00    +0.000 C 
ATOM     14  N   UNL     1       1.895  13.022  20.751  0.00  0.00    +0.000 NA
ATOM     15  C   UNL     1       2.702  13.710  21.728  0.00  0.00    +0.000 C 
ENDROOT
BRANCH  11  16
ATOM     16  C   UNL     1      -1.789  12.207  19.285  0.00  0.00    +0.000 A 
ATOM     17  C   UNL     1      -2.350  12.933  20.447  0.00  0.00    +0.000 A 
ATOM     18  C   UNL     1      -3.685  13.166  20.766  0.00  0.00    +0.000 A 
ATOM     19  C   UNL     1      -4.620  12.609  19.945  0.00  0.00    +0.000 A 
ATOM     20  C   UNL     1      -4.177  11.852  18.846  0.00  0.00    +0.000 A 
ATOM     21  C   UNL     1      -2.803  11.642  18.508  0.00  0.00    +0.000 A 
ENDBRANCH  11  16
BRANCH   8  22
ATOM     22  O   UNL     1       2.338   7.550  20.457  0.00  0.00    +0.000 OA
BRANCH  22  23
ATOM     23  C   UNL     1       2.291   6.826  19.254  0.00  0.00    +0.000 C 
ATOM     24  O   UNL     1       2.461   7.284  18.138  0.00  0.00    +0.000 OA
BRANCH  23  25
ATOM     25  C   UNL     1       1.979   5.357  19.451  0.00  0.00    +0.000 A 
ATOM     26  C   UNL     1       1.318   4.851  20.593  0.00  0.00    +0.000 A 
ATOM     27  C   UNL     1       1.078   3.474  20.720  0.00  0.00    +0.000 A 
ATOM     28  C   UNL     1       1.496   2.583  19.725  0.00  0.00    +0.000 A 
ATOM     29  C   UNL     1       2.168   3.071  18.613  0.00  0.00    +0.000 A 
ATOM     30 CL   UNL     1       2.682   1.970  17.398  0.00  0.00    +0.000 Cl
ATOM     31  C   UNL     1       2.395   4.445  18.472  0.00  0.00    +0.000 A 
ENDBRANCH  23  25
ENDBRANCH  22  23
ENDBRANCH   8  22
TORSDOF 4
ENDMDL
MODEL 8
REMARK VINA RESULT:      -6.7      4.155      8.250
REMARK  Name = 
REMARK  6 active torsions:
REMARK  status: ('A' for Active; 'I' for Inactive)
REMARK    1  A    between atoms: C_1  and  C_2
REMARK    2  A    between atoms: C_8  and  O_9
REMARK    3  A    between atoms: O_9  and  C_10
REMARK    4  A    between atoms: C_10  and  C_12
REMARK    5  A    between atoms: C_21  and  C_22
REMARK    6  A    between atoms: N_30  and  C_31
REMARK                            x       y       z     vdW  Elec       q    Type
REMARK                         _______ _______ _______ _____ _____    ______ ____
ROOT
ATOM      1  C   UNL     1      -0.643  14.845  18.621  0.00  0.00    +0.000 C 
ATOM      2  C   UNL     1       0.165  13.819  19.592  0.00  0.00    +0.000 C 
ATOM      3  C   UNL     1       0.739  13.612  21.029  0.00  0.00    +0.000 C 
ATOM      4  C   UNL     1       0.107  12.448  21.953  0.00  0.00    +0.000 C 
ATOM      5  C   UNL     1       0.216  11.069  21.321  0.00  0.00    +0.000 A 
ATOM      6  C   UNL     1       0.449   9.908  22.083  0.00  0.00    +0.000 A 
ATOM      7  C   UNL     1       1.041   8.779  21.501  0.00  0.00    +0.000 A 
ATOM      8  C   UNL     1       1.372   8.802  20.148  0.00  0.00    +0.000 A 
ATOM      9  C   UNL     1       0.885   9.847  19.348  0.00  0.00    +0.000 A 
ATOM     10  C   UNL     1       0.279  11.016  19.934  0.00  0.00    +0.000 A 
ATOM     11  C   UNL     1      -0.129  12.336  19.159  0.00  0.00    +0.000 C 
ATOM     12  C   UNL     1       1.265  12.510  18.315  0.00  0.00    +0.000 C 
ATOM     13  C   UNL     1       2.521  12.967  19.338  0.00  0.00    +0.000 C 
ATOM     14  N   UNL     1       2.122  13.126  20.762  0.00  0.00    +0.000 NA
ATOM     15  C   UNL     1       3.070  13.635  21.721  0.00  0.00    +0.000 C 
ENDROOT
BRANCH  11  16
ATOM     16  C   UNL     1      -1.743  12.686  19.640  0.00  0.00    +0.000 A 
ATOM     17  C   UNL     1      -2.116  13.500  20.819  0.00  0.00    +0.000 A 
ATOM     18  C   UNL     1      -3.385  13.770  21.323  0.00  0.00    +0.000 A 
ATOM     19  C   UNL     1      -4.436  13.164  20.701  0.00  0.00    +0.000 A 
ATOM     20  C   UNL     1      -4.169  12.325  19.604  0.00  0.00    +0.000 A 
ATOM     21  C   UNL     1      -2.864  12.077  19.073  0.00  0.00    +0.000 A 
ENDBRANCH  11  16
BRANCH   8  22
ATOM     22  O   UNL     1       2.205   7.735  19.686  0.00  0.00    +0.000 OA
BRANCH  22  23
ATOM     23  C   UNL     1       2.494   7.629  18.315  0.00  0.00    +0.000 C 
ATOM     24  O   UNL     1       2.469   8.540  17.507  0.00  0.00    +0.000 OA
BRANCH  23  25
ATOM     25  C   UNL     1       2.839   6.218  17.884  0.00  0.00    +0.000 A 
ATOM     26  C   UNL     1       1.955   5.125  18.030  0.00  0.00    +0.000 A 
ATOM     27  C   UNL     1       2.348   3.839  17.627  0.00  0.00    +0.000 A 
ATOM     28  C   UNL     1       3.619   3.620  17.083  0.00  0.00    +0.000 A 
ATOM     29  C   UNL     1       4.500   4.684  16.961  0.00  0.00    +0.000 A 
ATOM     30 CL   UNL     1       6.061   4.406  16.298  0.00  0.00    +0.000 Cl
ATOM     31  C   UNL     1       4.109   5.973  17.346  0.00  0.00    +0.000 A 
ENDBRANCH  23  25
ENDBRANCH  22  23
ENDBRANCH   8  22
TORSDOF 4
ENDMDL
MODEL 9
REMARK VINA RESULT:      -6.7      4.097      8.139
REMARK  Name = 
REMARK  6 active torsions:
REMARK  status: ('A' for Active; 'I' for Inactive)
REMARK    1  A    between atoms: C_1  and  C_2
REMARK    2  A    between atoms: C_8  and  O_9
REMARK    3  A    between atoms: O_9  and  C_10
REMARK    4  A    between atoms: C_10  and  C_12
REMARK    5  A    between atoms: C_21  and  C_22
REMARK    6  A    between atoms: N_30  and  C_31
REMARK                            x       y       z     vdW  Elec       q    Type
REMARK                         _______ _______ _______ _____ _____    ______ ____
ROOT
ATOM      1  C   UNL     1      -0.750  14.862  18.575  0.00  0.00    +0.000 C 
ATOM      2  C   UNL     1       0.091  13.844  19.526  0.00  0.00    +0.000 C 
ATOM      3  C   UNL     1       0.706  13.644  20.947  0.00  0.00    +0.000 C 
ATOM      4  C   UNL     1       0.107  12.479  21.892  0.00  0.00    +0.000 C 
ATOM      5  C   UNL     1       0.207  11.099  21.260  0.00  0.00    +0.000 A 
ATOM      6  C   UNL     1       0.469   9.942  22.018  0.00  0.00    +0.000 A 
ATOM      7  C   UNL     1       1.051   8.815  21.423  0.00  0.00    +0.000 A 
ATOM      8  C   UNL     1       1.344   8.836  20.062  0.00  0.00    +0.000 A 
ATOM      9  C   UNL     1       0.828   9.876  19.273  0.00  0.00    +0.000 A 
ATOM     10  C   UNL     1       0.232  11.042  19.872  0.00  0.00    +0.000 A 
ATOM     11  C   UNL     1      -0.206  12.358  19.105  0.00  0.00    +0.000 C 
ATOM     12  C   UNL     1       1.163  12.538  18.223  0.00  0.00    +0.000 C 
ATOM     13  C   UNL     1       2.444  13.005  19.209  0.00  0.00    +0.000 C 
ATOM     14  N   UNL     1       2.084  13.166  20.643  0.00  0.00    +0.000 NA
ATOM     15  C   UNL     1       3.056  13.683  21.574  0.00  0.00    +0.000 C 
ENDROOT
BRANCH  11  16
ATOM     16  C   UNL     1      -1.807  12.700  19.630  0.00  0.00    +0.000 A 
ATOM     17  C   UNL     1      -2.153  13.533  20.805  0.00  0.00    +0.000 A 
ATOM     18  C   UNL     1      -3.408  13.798  21.344  0.00  0.00    +0.000 A 
ATOM     19  C   UNL     1      -4.472  13.169  20.767  0.00  0.00    +0.000 A 
ATOM     20  C   UNL     1      -4.230  12.311  19.679  0.00  0.00    +0.000 A 
ATOM     21  C   UNL     1      -2.939  12.068  19.111  0.00  0.00    +0.000 A 
ENDBRANCH  11  16
BRANCH   8  22
ATOM     22  O   UNL     1       2.170   7.773  19.580  0.00  0.00    +0.000 OA
BRANCH  22  23
ATOM     23  C   UNL     1       2.584   7.774  18.237  0.00  0.00    +0.000 C 
ATOM     24  O   UNL     1       2.451   8.695  17.450  0.00  0.00    +0.000 OA
BRANCH  23  25
ATOM     25  C   UNL     1       3.225   6.471  17.807  0.00  0.00    +0.000 A 
ATOM     26  C   UNL     1       4.467   6.403  17.136  0.00  0.00    +0.000 A 
ATOM     27  C   UNL     1       4.993   5.160  16.748  0.00  0.00    +0.000 A 
ATOM     28  C   UNL     1       4.295   3.976  17.010  0.00  0.00    +0.000 A 
ATOM     29  C   UNL     1       3.063   4.040  17.646  0.00  0.00    +0.000 A 
ATOM     30 CL   UNL     1       2.209   2.582  17.960  0.00  0.00    +0.000 Cl
ATOM     31  C   UNL     1       2.540   5.274  18.051  0.00  0.00    +0.000 A 
ENDBRANCH  23  25
ENDBRANCH  22  23
ENDBRANCH   8  22
TORSDOF 4
ENDMDL
