MODEL 1
REMARK VINA RESULT:      -7.2      0.000      0.000
REMARK  Name = 
REMARK  6 active torsions:
REMARK  status: ('A' for Active; 'I' for Inactive)
REMARK    1  A    between atoms: C_1  and  O_2
REMARK    2  A    between atoms: O_2  and  C_3
REMARK    3  A    between atoms: N_5  and  C_6
REMARK    4  A    between atoms: C_6  and  C_7
REMARK    5  A    between atoms: C_11  and  N_12
REMARK    6  A    between atoms: C_13  and  C_14
REMARK                            x       y       z     vdW  Elec       q    Type
REMARK                         _______ _______ _______ _____ _____    ______ ____
ROOT
ATOM      1  C   UNL     1       5.743   5.223  16.616  0.00  0.00    +0.000 A 
ATOM      2  C   UNL     1       5.503   6.601  16.567  0.00  0.00    +0.000 A 
ATOM      3  C   UNL     1       4.381   7.139  17.188  0.00  0.00    +0.000 A 
ATOM      4  C   UNL     1       3.492   6.312  17.877  0.00  0.00    +0.000 A 
ATOM      5  C   UNL     1       3.717   4.937  17.964  0.00  0.00    +0.000 A 
ATOM      6  C   UNL     1       4.852   4.401  17.334  0.00  0.00    +0.000 A 
ENDROOT
BRANCH   5   7
ATOM      7  N   UNL     1       2.856   4.048  18.653  0.00  0.00    +0.000 N 
ATOM      8  C   UNL     1       1.592   3.643  18.259  0.00  0.00    +0.000 C 
ATOM      9  C   UNL     1       0.940   2.679  19.221  0.00  0.00    +0.000 C 
ATOM     10  O   UNL     1       1.002   3.965  17.234  0.00  0.00    +0.000 OA
ATOM     11  H   UNL     1       3.215   3.668  19.520  0.00  0.00    +0.000 HD
ENDBRANCH   5   7
BRANCH   1  12
ATOM     12  C   UNL     1       6.933   4.640  15.893  0.00  0.00    +0.000 C 
BRANCH  12  15
ATOM     13  C   UNL     1       5.996   3.588  12.736  0.00  0.00    +0.000 A 
ATOM     14  N   UNL     1       5.765   3.550  14.008  0.00  0.00    +0.000 NA
ATOM     15  N   UNL     1       6.699   4.432  14.485  0.00  0.00    +0.000 N 
ATOM     16  C   UNL     1       7.463   4.945  13.466  0.00  0.00    +0.000 A 
ATOM     17  O   UNL     1       8.404   5.717  13.540  0.00  0.00    +0.000 OA
ATOM     18  O   UNL     1       6.987   4.400  12.308  0.00  0.00    +0.000 OA
BRANCH  13  20
ATOM     19  C   UNL     1       5.992   1.651  11.425  0.00  0.00    +0.000 C 
ATOM     20  O   UNL     1       5.385   2.900  11.753  0.00  0.00    +0.000 OA
ENDBRANCH  13  20
ENDBRANCH  12  15
ENDBRANCH   1  12
TORSDOF 4
ENDMDL
MODEL 2
REMARK VINA RESULT:      -7.2      1.842      6.690
REMARK  Name = 
REMARK  6 active torsions:
REMARK  status: ('A' for Active; 'I' for Inactive)
REMARK    1  A    between atoms: C_1  and  O_2
REMARK    2  A    between atoms: O_2  and  C_3
REMARK    3  A    between atoms: N_5  and  C_6
REMARK    4  A    between atoms: C_6  and  C_7
REMARK    5  A    between atoms: C_11  and  N_12
REMARK    6  A    between atoms: C_13  and  C_14
REMARK                            x       y       z     vdW  Elec       q    Type
REMARK                         _______ _______ _______ _____ _____    ______ ____
ROOT
ATOM      1  C   UNL     1       4.586   5.775  17.726  0.00  0.00    +0.000 A 
ATOM      2  C   UNL     1       5.309   5.372  18.854  0.00  0.00    +0.000 A 
ATOM      3  C   UNL     1       6.652   5.027  18.740  0.00  0.00    +0.000 A 
ATOM      4  C   UNL     1       7.293   5.095  17.502  0.00  0.00    +0.000 A 
ATOM      5  C   UNL     1       6.606   5.517  16.362  0.00  0.00    +0.000 A 
ATOM      6  C   UNL     1       5.250   5.862  16.486  0.00  0.00    +0.000 A 
ENDROOT
BRANCH   5   7
ATOM      7  N   UNL     1       7.203   5.612  15.082  0.00  0.00    +0.000 N 
ATOM      8  C   UNL     1       7.031   4.743  14.018  0.00  0.00    +0.000 C 
ATOM      9  C   UNL     1       7.809   5.137  12.785  0.00  0.00    +0.000 C 
ATOM     10  O   UNL     1       6.314   3.749  13.988  0.00  0.00    +0.000 OA
ATOM     11  H   UNL     1       7.812   6.407  14.937  0.00  0.00    +0.000 HD
ENDBRANCH   5   7
BRANCH   1  12
ATOM     12  C   UNL     1       3.115   6.093  17.848  0.00  0.00    +0.000 C 
BRANCH  12  15
ATOM     13  C   UNL     1       1.421   3.834  19.842  0.00  0.00    +0.000 A 
ATOM     14  N   UNL     1       1.935   5.016  19.732  0.00  0.00    +0.000 NA
ATOM     15  N   UNL     1       2.346   5.018  18.425  0.00  0.00    +0.000 N 
ATOM     16  C   UNL     1       2.072   3.818  17.816  0.00  0.00    +0.000 A 
ATOM     17  O   UNL     1       2.340   3.467  16.679  0.00  0.00    +0.000 OA
ATOM     18  O   UNL     1       1.445   3.042  18.748  0.00  0.00    +0.000 OA
BRANCH  13  20
ATOM     19  C   UNL     1       1.787   2.595  21.791  0.00  0.00    +0.000 C 
ATOM     20  O   UNL     1       0.866   3.259  20.926  0.00  0.00    +0.000 OA
ENDBRANCH  13  20
ENDBRANCH  12  15
ENDBRANCH   1  12
TORSDOF 4
ENDMDL
MODEL 3
REMARK VINA RESULT:      -7.2      4.216      5.361
REMARK  Name = 
REMARK  6 active torsions:
REMARK  status: ('A' for Active; 'I' for Inactive)
REMARK    1  A    between atoms: C_1  and  O_2
REMARK    2  A    between atoms: O_2  and  C_3
REMARK    3  A    between atoms: N_5  and  C_6
REMARK    4  A    between atoms: C_6  and  C_7
REMARK    5  A    between atoms: C_11  and  N_12
REMARK    6  A    between atoms: C_13  and  C_14
REMARK                            x       y       z     vdW  Elec       q    Type
REMARK                         _______ _______ _______ _____ _____    ______ ____
ROOT
ATOM      1  C   UNL     1       4.325   4.469  18.685  0.00  0.00    +0.000 A 
ATOM      2  C   UNL     1       3.444   3.730  17.888  0.00  0.00    +0.000 A 
ATOM      3  C   UNL     1       2.070   3.919  18.002  0.00  0.00    +0.000 A 
ATOM      4  C   UNL     1       1.560   4.857  18.901  0.00  0.00    +0.000 A 
ATOM      5  C   UNL     1       2.415   5.627  19.692  0.00  0.00    +0.000 A 
ATOM      6  C   UNL     1       3.800   5.429  19.573  0.00  0.00    +0.000 A 
ENDROOT
BRANCH   5   7
ATOM      7  N   UNL     1       1.958   6.597  20.617  0.00  0.00    +0.000 N 
ATOM      8  C   UNL     1       1.688   7.930  20.357  0.00  0.00    +0.000 C 
ATOM      9  C   UNL     1       1.207   8.695  21.567  0.00  0.00    +0.000 C 
ATOM     10  O   UNL     1       1.777   8.503  19.277  0.00  0.00    +0.000 OA
ATOM     11  H   UNL     1       1.808   6.270  21.563  0.00  0.00    +0.000 HD
ENDBRANCH   5   7
BRANCH   1  12
ATOM     12  C   UNL     1       5.811   4.218  18.596  0.00  0.00    +0.000 C 
BRANCH  12  15
ATOM     13  C   UNL     1       7.450   7.145  17.759  0.00  0.00    +0.000 A 
ATOM     14  N   UNL     1       6.500   6.312  17.479  0.00  0.00    +0.000 NA
ATOM     15  N   UNL     1       6.591   5.430  18.524  0.00  0.00    +0.000 N 
ATOM     16  C   UNL     1       7.613   5.772  19.376  0.00  0.00    +0.000 A 
ATOM     17  O   UNL     1       7.995   5.184  20.374  0.00  0.00    +0.000 OA
ATOM     18  O   UNL     1       8.169   6.915  18.879  0.00  0.00    +0.000 OA
BRANCH  13  20
ATOM     19  C   UNL     1       8.175   9.366  17.859  0.00  0.00    +0.000 C 
ATOM     20  O   UNL     1       7.845   8.228  17.063  0.00  0.00    +0.000 OA
ENDBRANCH  13  20
ENDBRANCH  12  15
ENDBRANCH   1  12
TORSDOF 4
ENDMDL
MODEL 4
REMARK VINA RESULT:      -7.2      1.781      6.834
REMARK  Name = 
REMARK  6 active torsions:
REMARK  status: ('A' for Active; 'I' for Inactive)
REMARK    1  A    between atoms: C_1  and  O_2
REMARK    2  A    between atoms: O_2  and  C_3
REMARK    3  A    between atoms: N_5  and  C_6
REMARK    4  A    between atoms: C_6  and  C_7
REMARK    5  A    between atoms: C_11  and  N_12
REMARK    6  A    between atoms: C_13  and  C_14
REMARK                            x       y       z     vdW  Elec       q    Type
REMARK                         _______ _______ _______ _____ _____    ______ ____
ROOT
ATOM      1  C   UNL     1       4.793   5.692  17.510  0.00  0.00    +0.000 A 
ATOM      2  C   UNL     1       5.909   5.691  18.354  0.00  0.00    +0.000 A 
ATOM      3  C   UNL     1       7.092   5.080  17.951  0.00  0.00    +0.000 A 
ATOM      4  C   UNL     1       7.180   4.475  16.696  0.00  0.00    +0.000 A 
ATOM      5  C   UNL     1       6.091   4.480  15.822  0.00  0.00    +0.000 A 
ATOM      6  C   UNL     1       4.900   5.098  16.237  0.00  0.00    +0.000 A 
ENDROOT
BRANCH   5   7
ATOM      7  N   UNL     1       6.121   3.889  14.536  0.00  0.00    +0.000 N 
ATOM      8  C   UNL     1       6.805   4.351  13.425  0.00  0.00    +0.000 C 
ATOM      9  C   UNL     1       6.634   3.479  12.204  0.00  0.00    +0.000 C 
ATOM     10  O   UNL     1       7.523   5.343  13.362  0.00  0.00    +0.000 OA
ATOM     11  H   UNL     1       5.591   3.033  14.430  0.00  0.00    +0.000 HD
ENDBRANCH   5   7
BRANCH   1  12
ATOM     12  C   UNL     1       3.496   6.308  17.977  0.00  0.00    +0.000 C 
BRANCH  12  15
ATOM     13  C   UNL     1       2.132   4.369  20.495  0.00  0.00    +0.000 A 
ATOM     14  N   UNL     1       2.922   5.345  20.179  0.00  0.00    +0.000 NA
ATOM     15  N   UNL     1       2.723   5.435  18.826  0.00  0.00    +0.000 N 
ATOM     16  C   UNL     1       1.830   4.486  18.391  0.00  0.00    +0.000 A 
ATOM     17  O   UNL     1       1.463   4.259  17.251  0.00  0.00    +0.000 OA
ATOM     18  O   UNL     1       1.427   3.794  19.497  0.00  0.00    +0.000 OA
BRANCH  13  20
ATOM     19  C   UNL     1       1.901   2.394  21.723  0.00  0.00    +0.000 C 
ATOM     20  O   UNL     1       1.922   3.820  21.706  0.00  0.00    +0.000 OA
ENDBRANCH  13  20
ENDBRANCH  12  15
ENDBRANCH   1  12
TORSDOF 4
ENDMDL
MODEL 5
REMARK VINA RESULT:      -7.0      3.188      4.781
REMARK  Name = 
REMARK  6 active torsions:
REMARK  status: ('A' for Active; 'I' for Inactive)
REMARK    1  A    between atoms: C_1  and  O_2
REMARK    2  A    between atoms: O_2  and  C_3
REMARK    3  A    between atoms: N_5  and  C_6
REMARK    4  A    between atoms: C_6  and  C_7
REMARK    5  A    between atoms: C_11  and  N_12
REMARK    6  A    between atoms: C_13  and  C_14
REMARK                            x       y       z     vdW  Elec       q    Type
REMARK                         _______ _______ _______ _____ _____    ______ ____
ROOT
ATOM      1  C   UNL     1       4.419   4.430  18.579  0.00  0.00    +0.000 A 
ATOM      2  C   UNL     1       3.586   3.709  17.716  0.00  0.00    +0.000 A 
ATOM      3  C   UNL     1       2.205   3.867  17.780  0.00  0.00    +0.000 A 
ATOM      4  C   UNL     1       1.640   4.757  18.695  0.00  0.00    +0.000 A 
ATOM      5  C   UNL     1       2.446   5.509  19.553  0.00  0.00    +0.000 A 
ATOM      6  C   UNL     1       3.839   5.342  19.483  0.00  0.00    +0.000 A 
ENDROOT
BRANCH   5   7
ATOM      7  N   UNL     1       1.932   6.431  20.497  0.00  0.00    +0.000 N 
ATOM      8  C   UNL     1       1.702   7.781  20.299  0.00  0.00    +0.000 C 
ATOM      9  C   UNL     1       1.139   8.482  21.512  0.00  0.00    +0.000 C 
ATOM     10  O   UNL     1       1.882   8.416  19.265  0.00  0.00    +0.000 OA
ATOM     11  H   UNL     1       1.704   6.051  21.407  0.00  0.00    +0.000 HD
ENDBRANCH   5   7
BRANCH   1  12
ATOM     12  C   UNL     1       5.912   4.210  18.542  0.00  0.00    +0.000 C 
BRANCH  12  15
ATOM     13  C   UNL     1       7.394   7.035  17.208  0.00  0.00    +0.000 A 
ATOM     14  N   UNL     1       6.902   6.456  18.256  0.00  0.00    +0.000 NA
ATOM     15  N   UNL     1       6.615   5.207  17.771  0.00  0.00    +0.000 N 
ATOM     16  C   UNL     1       6.934   5.105  16.439  0.00  0.00    +0.000 A 
ATOM     17  O   UNL     1       6.770   4.155  15.692  0.00  0.00    +0.000 OA
ATOM     18  O   UNL     1       7.465   6.308  16.072  0.00  0.00    +0.000 OA
BRANCH  13  20
ATOM     19  C   UNL     1       8.364   8.874  18.279  0.00  0.00    +0.000 C 
ATOM     20  O   UNL     1       7.840   8.299  17.082  0.00  0.00    +0.000 OA
ENDBRANCH  13  20
ENDBRANCH  12  15
ENDBRANCH   1  12
TORSDOF 4
ENDMDL
MODEL 6
REMARK VINA RESULT:      -7.0      1.901      2.320
REMARK  Name = 
REMARK  6 active torsions:
REMARK  status: ('A' for Active; 'I' for Inactive)
REMARK    1  A    between atoms: C_1  and  O_2
REMARK    2  A    between atoms: O_2  and  C_3
REMARK    3  A    between atoms: N_5  and  C_6
REMARK    4  A    between atoms: C_6  and  C_7
REMARK    5  A    between atoms: C_11  and  N_12
REMARK    6  A    between atoms: C_13  and  C_14
REMARK                            x       y       z     vdW  Elec       q    Type
REMARK                         _______ _______ _______ _____ _____    ______ ____
ROOT
ATOM      1  C   UNL     1       4.724   6.483  18.000  0.00  0.00    +0.000 A 
ATOM      2  C   UNL     1       3.794   7.445  17.588  0.00  0.00    +0.000 A 
ATOM      3  C   UNL     1       2.504   7.440  18.110  0.00  0.00    +0.000 A 
ATOM      4  C   UNL     1       2.132   6.487  19.059  0.00  0.00    +0.000 A 
ATOM      5  C   UNL     1       3.044   5.531  19.508  0.00  0.00    +0.000 A 
ATOM      6  C   UNL     1       4.344   5.540  18.976  0.00  0.00    +0.000 A 
ENDROOT
BRANCH   5   7
ATOM      7  N   UNL     1       2.728   4.543  20.473  0.00  0.00    +0.000 N 
ATOM      8  C   UNL     1       1.727   3.591  20.389  0.00  0.00    +0.000 C 
ATOM      9  C   UNL     1       1.659   2.679  21.590  0.00  0.00    +0.000 C 
ATOM     10  O   UNL     1       0.950   3.419  19.456  0.00  0.00    +0.000 OA
ATOM     11  H   UNL     1       3.305   4.537  21.304  0.00  0.00    +0.000 HD
ENDBRANCH   5   7
BRANCH   1  12
ATOM     12  C   UNL     1       6.104   6.460  17.387  0.00  0.00    +0.000 C 
BRANCH  12  15
ATOM     13  C   UNL     1       5.713   4.512  14.558  0.00  0.00    +0.000 A 
ATOM     14  N   UNL     1       5.309   5.536  15.238  0.00  0.00    +0.000 NA
ATOM     15  N   UNL     1       6.215   5.558  16.266  0.00  0.00    +0.000 N 
ATOM     16  C   UNL     1       7.113   4.525  16.161  0.00  0.00    +0.000 A 
ATOM     17  O   UNL     1       8.016   4.226  16.924  0.00  0.00    +0.000 OA
ATOM     18  O   UNL     1       6.791   3.844  15.022  0.00  0.00    +0.000 OA
BRANCH  13  20
ATOM     19  C   UNL     1       6.134   3.417  12.535  0.00  0.00    +0.000 C 
ATOM     20  O   UNL     1       5.186   3.993  13.433  0.00  0.00    +0.000 OA
ENDBRANCH  13  20
ENDBRANCH  12  15
ENDBRANCH   1  12
TORSDOF 4
ENDMDL
MODEL 7
REMARK VINA RESULT:      -7.0      3.156      4.738
REMARK  Name = 
REMARK  6 active torsions:
REMARK  status: ('A' for Active; 'I' for Inactive)
REMARK    1  A    between atoms: C_1  and  O_2
REMARK    2  A    between atoms: O_2  and  C_3
REMARK    3  A    between atoms: N_5  and  C_6
REMARK    4  A    between atoms: C_6  and  C_7
REMARK    5  A    between atoms: C_11  and  N_12
REMARK    6  A    between atoms: C_13  and  C_14
REMARK                            x       y       z     vdW  Elec       q    Type
REMARK                         _______ _______ _______ _____ _____    ______ ____
ROOT
ATOM      1  C   UNL     1       3.485   3.689  19.577  0.00  0.00    +0.000 A 
ATOM      2  C   UNL     1       2.474   2.741  19.383  0.00  0.00    +0.000 A 
ATOM      3  C   UNL     1       1.165   3.027  19.758  0.00  0.00    +0.000 A 
ATOM      4  C   UNL     1       0.847   4.266  20.316  0.00  0.00    +0.000 A 
ATOM      5  C   UNL     1       1.829   5.241  20.499  0.00  0.00    +0.000 A 
ATOM      6  C   UNL     1       3.148   4.945  20.119  0.00  0.00    +0.000 A 
ENDROOT
BRANCH   5   7
ATOM      7  N   UNL     1       1.566   6.518  21.053  0.00  0.00    +0.000 N 
ATOM      8  C   UNL     1       1.690   7.741  20.417  0.00  0.00    +0.000 C 
ATOM      9  C   UNL     1       1.322   8.916  21.291  0.00  0.00    +0.000 C 
ATOM     10  O   UNL     1       2.029   7.937  19.255  0.00  0.00    +0.000 OA
ATOM     11  H   UNL     1       1.246   6.525  22.013  0.00  0.00    +0.000 HD
ENDBRANCH   5   7
BRANCH   1  12
ATOM     12  C   UNL     1       4.913   3.351  19.219  0.00  0.00    +0.000 C 
BRANCH  12  15
ATOM     13  C   UNL     1       6.175   5.327  16.678  0.00  0.00    +0.000 A 
ATOM     14  N   UNL     1       5.328   4.413  17.027  0.00  0.00    +0.000 NA
ATOM     15  N   UNL     1       5.540   4.342  18.379  0.00  0.00    +0.000 N 
ATOM     16  C   UNL     1       6.527   5.212  18.774  0.00  0.00    +0.000 A 
ATOM     17  O   UNL     1       6.992   5.373  19.890  0.00  0.00    +0.000 OA
ATOM     18  O   UNL     1       6.934   5.874  17.652  0.00  0.00    +0.000 OA
BRANCH  13  20
ATOM     19  C   UNL     1       6.640   4.816  14.444  0.00  0.00    +0.000 C 
ATOM     20  O   UNL     1       6.427   5.809  15.447  0.00  0.00    +0.000 OA
ENDBRANCH  13  20
ENDBRANCH  12  15
ENDBRANCH   1  12
TORSDOF 4
ENDMDL
MODEL 8
REMARK VINA RESULT:      -6.9      2.413      3.312
REMARK  Name = 
REMARK  6 active torsions:
REMARK  status: ('A' for Active; 'I' for Inactive)
REMARK    1  A    between atoms: C_1  and  O_2
REMARK    2  A    between atoms: O_2  and  C_3
REMARK    3  A    between atoms: N_5  and  C_6
REMARK    4  A    between atoms: C_6  and  C_7
REMARK    5  A    between atoms: C_11  and  N_12
REMARK    6  A    between atoms: C_13  and  C_14
REMARK                            x       y       z     vdW  Elec       q    Type
REMARK                         _______ _______ _______ _____ _____    ______ ____
ROOT
ATOM      1  C   UNL     1       4.154   4.437  18.196  0.00  0.00    +0.000 A 
ATOM      2  C   UNL     1       3.211   3.578  17.618  0.00  0.00    +0.000 A 
ATOM      3  C   UNL     1       1.876   3.642  18.004  0.00  0.00    +0.000 A 
ATOM      4  C   UNL     1       1.463   4.571  18.959  0.00  0.00    +0.000 A 
ATOM      5  C   UNL     1       2.374   5.457  19.537  0.00  0.00    +0.000 A 
ATOM      6  C   UNL     1       3.721   5.386  19.144  0.00  0.00    +0.000 A 
ENDROOT
BRANCH   5   7
ATOM      7  N   UNL     1       2.014   6.424  20.506  0.00  0.00    +0.000 N 
ATOM      8  C   UNL     1       1.765   7.768  20.286  0.00  0.00    +0.000 C 
ATOM      9  C   UNL     1       1.395   8.527  21.538  0.00  0.00    +0.000 C 
ATOM     10  O   UNL     1       1.792   8.356  19.210  0.00  0.00    +0.000 OA
ATOM     11  H   UNL     1       1.923   6.086  21.456  0.00  0.00    +0.000 HD
ENDBRANCH   5   7
BRANCH   1  12
ATOM     12  C   UNL     1       5.610   4.324  17.814  0.00  0.00    +0.000 C 
BRANCH  12  15
ATOM     13  C   UNL     1       6.371   4.253  14.442  0.00  0.00    +0.000 A 
ATOM     14  N   UNL     1       6.063   3.578  15.502  0.00  0.00    +0.000 NA
ATOM     15  N   UNL     1       5.853   4.578  16.415  0.00  0.00    +0.000 N 
ATOM     16  C   UNL     1       6.066   5.815  15.855  0.00  0.00    +0.000 A 
ATOM     17  O   UNL     1       6.009   6.908  16.392  0.00  0.00    +0.000 OA
ATOM     18  O   UNL     1       6.391   5.599  14.547  0.00  0.00    +0.000 OA
BRANCH  13  20
ATOM     19  C   UNL     1       5.592   3.414  12.403  0.00  0.00    +0.000 C 
ATOM     20  O   UNL     1       6.699   3.791  13.221  0.00  0.00    +0.000 OA
ENDBRANCH  13  20
ENDBRANCH  12  15
ENDBRANCH   1  12
TORSDOF 4
ENDMDL
MODEL 9
REMARK VINA RESULT:      -6.8      2.211      6.999
REMARK  Name = 
REMARK  6 active torsions:
REMARK  status: ('A' for Active; 'I' for Inactive)
REMARK    1  A    between atoms: C_1  and  O_2
REMARK    2  A    between atoms: O_2  and  C_3
REMARK    3  A    between atoms: N_5  and  C_6
REMARK    4  A    between atoms: C_6  and  C_7
REMARK    5  A    between atoms: C_11  and  N_12
REMARK    6  A    between atoms: C_13  and  C_14
REMARK                            x       y       z     vdW  Elec       q    Type
REMARK                         _______ _______ _______ _____ _____    ______ ____
ROOT
ATOM      1  C   UNL     1       4.716   5.992  17.743  0.00  0.00    +0.000 A 
ATOM      2  C   UNL     1       5.417   5.534  18.864  0.00  0.00    +0.000 A 
ATOM      3  C   UNL     1       6.730   5.091  18.737  0.00  0.00    +0.000 A 
ATOM      4  C   UNL     1       7.363   5.112  17.493  0.00  0.00    +0.000 A 
ATOM      5  C   UNL     1       6.698   5.586  16.360  0.00  0.00    +0.000 A 
ATOM      6  C   UNL     1       5.373   6.030  16.496  0.00  0.00    +0.000 A 
ENDROOT
BRANCH   5   7
ATOM      7  N   UNL     1       7.289   5.638  15.075  0.00  0.00    +0.000 N 
ATOM      8  C   UNL     1       7.055   4.776  14.017  0.00  0.00    +0.000 C 
ATOM      9  C   UNL     1       7.844   5.115  12.776  0.00  0.00    +0.000 C 
ATOM     10  O   UNL     1       6.278   3.827  13.998  0.00  0.00    +0.000 OA
ATOM     11  H   UNL     1       7.945   6.393  14.920  0.00  0.00    +0.000 HD
ENDBRANCH   5   7
BRANCH   1  12
ATOM     12  C   UNL     1       3.274   6.418  17.878  0.00  0.00    +0.000 C 
BRANCH  12  15
ATOM     13  C   UNL     1       1.548   4.322  20.019  0.00  0.00    +0.000 A 
ATOM     14  N   UNL     1       2.255   4.434  18.941  0.00  0.00    +0.000 NA
ATOM     15  N   UNL     1       2.586   5.763  18.964  0.00  0.00    +0.000 N 
ATOM     16  C   UNL     1       2.040   6.393  20.056  0.00  0.00    +0.000 A 
ATOM     17  O   UNL     1       2.098   7.573  20.357  0.00  0.00    +0.000 OA
ATOM     18  O   UNL     1       1.368   5.436  20.762  0.00  0.00    +0.000 OA
BRANCH  13  20
ATOM     19  C   UNL     1       1.591   2.620  21.622  0.00  0.00    +0.000 C 
ATOM     20  O   UNL     1       0.936   3.228  20.510  0.00  0.00    +0.000 OA
ENDBRANCH  13  20
ENDBRANCH  12  15
ENDBRANCH   1  12
TORSDOF 4
ENDMDL
