MODEL 1
REMARK VINA RESULT:      -8.2      0.000      0.000
REMARK  Name = 
REMARK  5 active torsions:
REMARK  status: ('A' for Active; 'I' for Inactive)
REMARK    1  A    between atoms: C_1  and  N_2
REMARK    2  A    between atoms: N_2  and  C_3
REMARK    3  A    between atoms: C_3  and  C_4
REMARK    4  A    between atoms: C_6  and  C_7
REMARK    5  A    between atoms: C_15  and  C_17
REMARK                            x       y       z     vdW  Elec       q    Type
REMARK                         _______ _______ _______ _____ _____    ______ ____
ROOT
ATOM      1  C   UNL     1       4.786   6.582  17.689  0.00  0.00    +0.000 A 
ATOM      2  N   UNL     1       4.392   5.476  18.277  0.00  0.00    +0.000 NA
ATOM      3  C   UNL     1       3.040   5.681  18.424  0.00  0.00    +0.000 A 
ATOM      4  N   UNL     1       2.620   6.877  17.975  0.00  0.00    +0.000 NA
ATOM      5  O   UNL     1       3.780   7.475  17.485  0.00  0.00    +0.000 OA
ENDROOT
BRANCH   3   6
ATOM      6  C   UNL     1       2.166   4.655  18.976  0.00  0.00    +0.000 A 
ATOM      7  C   UNL     1       1.954   4.581  20.362  0.00  0.00    +0.000 A 
ATOM      8  C   UNL     1       1.138   3.586  20.904  0.00  0.00    +0.000 A 
ATOM      9  C   UNL     1       0.526   2.657  20.067  0.00  0.00    +0.000 A 
ATOM     10  C   UNL     1       0.725   2.721  18.689  0.00  0.00    +0.000 A 
ATOM     11  C   UNL     1       1.539   3.716  18.145  0.00  0.00    +0.000 A 
ENDBRANCH   3   6
BRANCH   1  12
ATOM     12  C   UNL     1       6.130   6.943  17.185  0.00  0.00    +0.000 C 
BRANCH  12  14
ATOM     13  C   UNL     1       7.926   6.347  18.906  0.00  0.00    +0.000 C 
ATOM     14  N   UNL     1       7.231   6.083  17.651  0.00  0.00    +0.000 N 
ATOM     15  C   UNL     1       7.614   4.917  16.961  0.00  0.00    +0.000 C 
ATOM     16  O   UNL     1       8.406   4.128  17.478  0.00  0.00    +0.000 OA
BRANCH  15  17
ATOM     17  C   UNL     1       7.038   4.646  15.654  0.00  0.00    +0.000 A 
ATOM     18  C   UNL     1       5.979   3.830  15.299  0.00  0.00    +0.000 A 
ATOM     19  C   UNL     1       5.845   3.914  13.892  0.00  0.00    +0.000 A 
ATOM     20  C   UNL     1       6.851   4.744  13.463  0.00  0.00    +0.000 A 
ATOM     21  O   UNL     1       7.579   5.189  14.518  0.00  0.00    +0.000 OA
ENDBRANCH  15  17
ENDBRANCH  12  14
ENDBRANCH   1  12
TORSDOF 4
ENDMDL
MODEL 2
REMARK VINA RESULT:      -8.2      0.089      1.055
REMARK  Name = 
REMARK  5 active torsions:
REMARK  status: ('A' for Active; 'I' for Inactive)
REMARK    1  A    between atoms: C_1  and  N_2
REMARK    2  A    between atoms: N_2  and  C_3
REMARK    3  A    between atoms: C_3  and  C_4
REMARK    4  A    between atoms: C_6  and  C_7
REMARK    5  A    between atoms: C_15  and  C_17
REMARK                            x       y       z     vdW  Elec       q    Type
REMARK                         _______ _______ _______ _____ _____    ______ ____
ROOT
ATOM      1  C   UNL     1       4.769   6.533  17.696  0.00  0.00    +0.000 A 
ATOM      2  N   UNL     1       4.385   5.411  18.259  0.00  0.00    +0.000 NA
ATOM      3  C   UNL     1       3.035   5.607  18.427  0.00  0.00    +0.000 A 
ATOM      4  N   UNL     1       2.605   6.813  18.015  0.00  0.00    +0.000 NA
ATOM      5  O   UNL     1       3.758   7.428  17.528  0.00  0.00    +0.000 OA
ENDROOT
BRANCH   3   6
ATOM      6  C   UNL     1       2.171   4.563  18.961  0.00  0.00    +0.000 A 
ATOM      7  C   UNL     1       1.636   3.585  18.106  0.00  0.00    +0.000 A 
ATOM      8  C   UNL     1       0.788   2.594  18.603  0.00  0.00    +0.000 A 
ATOM      9  C   UNL     1       0.467   2.569  19.957  0.00  0.00    +0.000 A 
ATOM     10  C   UNL     1       0.995   3.529  20.818  0.00  0.00    +0.000 A 
ATOM     11  C   UNL     1       1.844   4.520  20.324  0.00  0.00    +0.000 A 
ENDBRANCH   3   6
BRANCH   1  12
ATOM     12  C   UNL     1       6.106   6.913  17.186  0.00  0.00    +0.000 C 
BRANCH  12  14
ATOM     13  C   UNL     1       7.909   6.334  18.905  0.00  0.00    +0.000 C 
ATOM     14  N   UNL     1       7.220   6.069  17.647  0.00  0.00    +0.000 N 
ATOM     15  C   UNL     1       7.624   4.915  16.948  0.00  0.00    +0.000 C 
ATOM     16  O   UNL     1       8.429   4.135  17.460  0.00  0.00    +0.000 OA
BRANCH  15  17
ATOM     17  C   UNL     1       7.055   4.645  15.638  0.00  0.00    +0.000 A 
ATOM     18  C   UNL     1       6.006   3.819  15.275  0.00  0.00    +0.000 A 
ATOM     19  C   UNL     1       5.876   3.910  13.868  0.00  0.00    +0.000 A 
ATOM     20  C   UNL     1       6.873   4.753  13.447  0.00  0.00    +0.000 A 
ATOM     21  O   UNL     1       7.593   5.201  14.506  0.00  0.00    +0.000 OA
ENDBRANCH  15  17
ENDBRANCH  12  14
ENDBRANCH   1  12
TORSDOF 4
ENDMDL
MODEL 3
REMARK VINA RESULT:      -7.7      2.136      6.558
REMARK  Name = 
REMARK  5 active torsions:
REMARK  status: ('A' for Active; 'I' for Inactive)
REMARK    1  A    between atoms: C_1  and  N_2
REMARK    2  A    between atoms: N_2  and  C_3
REMARK    3  A    between atoms: C_3  and  C_4
REMARK    4  A    between atoms: C_6  and  C_7
REMARK    5  A    between atoms: C_15  and  C_17
REMARK                            x       y       z     vdW  Elec       q    Type
REMARK                         _______ _______ _______ _____ _____    ______ ____
ROOT
ATOM      1  C   UNL     1       6.027   4.794  18.111  0.00  0.00    +0.000 A 
ATOM      2  N   UNL     1       5.642   4.837  16.857  0.00  0.00    +0.000 NA
ATOM      3  C   UNL     1       6.812   4.591  16.177  0.00  0.00    +0.000 A 
ATOM      4  N   UNL     1       7.882   4.434  16.976  0.00  0.00    +0.000 NA
ATOM      5  O   UNL     1       7.360   4.568  18.261  0.00  0.00    +0.000 OA
ENDROOT
BRANCH   3   6
ATOM      6  C   UNL     1       6.842   4.469  14.726  0.00  0.00    +0.000 A 
ATOM      7  C   UNL     1       7.745   5.238  13.973  0.00  0.00    +0.000 A 
ATOM      8  C   UNL     1       7.766   5.147  12.580  0.00  0.00    +0.000 A 
ATOM      9  C   UNL     1       6.886   4.289  11.926  0.00  0.00    +0.000 A 
ATOM     10  C   UNL     1       5.988   3.517  12.661  0.00  0.00    +0.000 A 
ATOM     11  C   UNL     1       5.967   3.605  14.053  0.00  0.00    +0.000 A 
ENDBRANCH   3   6
BRANCH   1  12
ATOM     12  C   UNL     1       5.211   4.900  19.342  0.00  0.00    +0.000 C 
BRANCH  12  14
ATOM     13  C   UNL     1       4.208   2.560  19.589  0.00  0.00    +0.000 C 
ATOM     14  N   UNL     1       4.048   3.999  19.408  0.00  0.00    +0.000 N 
ATOM     15  C   UNL     1       2.726   4.481  19.387  0.00  0.00    +0.000 C 
ATOM     16  O   UNL     1       1.789   3.719  19.632  0.00  0.00    +0.000 OA
BRANCH  15  17
ATOM     17  C   UNL     1       2.489   5.888  19.106  0.00  0.00    +0.000 A 
ATOM     18  C   UNL     1       2.608   6.592  17.922  0.00  0.00    +0.000 A 
ATOM     19  C   UNL     1       2.274   7.938  18.206  0.00  0.00    +0.000 A 
ATOM     20  C   UNL     1       2.008   7.989  19.552  0.00  0.00    +0.000 A 
ATOM     21  O   UNL     1       2.137   6.757  20.106  0.00  0.00    +0.000 OA
ENDBRANCH  15  17
ENDBRANCH  12  14
ENDBRANCH   1  12
TORSDOF 4
ENDMDL
MODEL 4
REMARK VINA RESULT:      -7.7      2.116      6.677
REMARK  Name = 
REMARK  5 active torsions:
REMARK  status: ('A' for Active; 'I' for Inactive)
REMARK    1  A    between atoms: C_1  and  N_2
REMARK    2  A    between atoms: N_2  and  C_3
REMARK    3  A    between atoms: C_3  and  C_4
REMARK    4  A    between atoms: C_6  and  C_7
REMARK    5  A    between atoms: C_15  and  C_17
REMARK                            x       y       z     vdW  Elec       q    Type
REMARK                         _______ _______ _______ _____ _____    ______ ____
ROOT
ATOM      1  C   UNL     1       5.727   4.218  18.037  0.00  0.00    +0.000 A 
ATOM      2  N   UNL     1       5.421   4.207  16.760  0.00  0.00    +0.000 NA
ATOM      3  C   UNL     1       6.635   4.446  16.160  0.00  0.00    +0.000 A 
ATOM      4  N   UNL     1       7.644   4.629  17.029  0.00  0.00    +0.000 NA
ATOM      5  O   UNL     1       7.041   4.477  18.277  0.00  0.00    +0.000 OA
ENDROOT
BRANCH   3   6
ATOM      6  C   UNL     1       6.785   4.444  14.711  0.00  0.00    +0.000 A 
ATOM      7  C   UNL     1       6.001   3.586  13.923  0.00  0.00    +0.000 A 
ATOM      8  C   UNL     1       6.153   3.560  12.535  0.00  0.00    +0.000 A 
ATOM      9  C   UNL     1       7.089   4.389  11.923  0.00  0.00    +0.000 A 
ATOM     10  C   UNL     1       7.870   5.249  12.693  0.00  0.00    +0.000 A 
ATOM     11  C   UNL     1       7.718   5.278  14.079  0.00  0.00    +0.000 A 
ENDBRANCH   3   6
BRANCH   1  12
ATOM     12  C   UNL     1       4.863   3.937  19.206  0.00  0.00    +0.000 C 
BRANCH  12  14
ATOM     13  C   UNL     1       3.561   1.815  18.622  0.00  0.00    +0.000 C 
ATOM     14  N   UNL     1       3.599   3.246  18.906  0.00  0.00    +0.000 N 
ATOM     15  C   UNL     1       2.355   3.902  18.960  0.00  0.00    +0.000 C 
ATOM     16  O   UNL     1       1.311   3.252  18.888  0.00  0.00    +0.000 OA
BRANCH  15  17
ATOM     17  C   UNL     1       2.323   5.346  19.135  0.00  0.00    +0.000 A 
ATOM     18  C   UNL     1       2.036   6.101  20.257  0.00  0.00    +0.000 A 
ATOM     19  C   UNL     1       2.130   7.461  19.876  0.00  0.00    +0.000 A 
ATOM     20  C   UNL     1       2.430   7.461  18.537  0.00  0.00    +0.000 A 
ATOM     21  O   UNL     1       2.546   6.189  18.078  0.00  0.00    +0.000 OA
ENDBRANCH  15  17
ENDBRANCH  12  14
ENDBRANCH   1  12
TORSDOF 4
ENDMDL
MODEL 5
REMARK VINA RESULT:      -7.7      2.131      6.657
REMARK  Name = 
REMARK  5 active torsions:
REMARK  status: ('A' for Active; 'I' for Inactive)
REMARK    1  A    between atoms: C_1  and  N_2
REMARK    2  A    between atoms: N_2  and  C_3
REMARK    3  A    between atoms: C_3  and  C_4
REMARK    4  A    between atoms: C_6  and  C_7
REMARK    5  A    between atoms: C_15  and  C_17
REMARK                            x       y       z     vdW  Elec       q    Type
REMARK                         _______ _______ _______ _____ _____    ______ ____
ROOT
ATOM      1  C   UNL     1       5.675   4.120  17.958  0.00  0.00    +0.000 A 
ATOM      2  N   UNL     1       5.395   4.075  16.677  0.00  0.00    +0.000 NA
ATOM      3  C   UNL     1       6.600   4.395  16.095  0.00  0.00    +0.000 A 
ATOM      4  N   UNL     1       7.576   4.660  16.980  0.00  0.00    +0.000 NA
ATOM      5  O   UNL     1       6.963   4.475  18.218  0.00  0.00    +0.000 OA
ENDROOT
BRANCH   3   6
ATOM      6  C   UNL     1       6.776   4.391  14.649  0.00  0.00    +0.000 A 
ATOM      7  C   UNL     1       7.708   5.255  14.051  0.00  0.00    +0.000 A 
ATOM      8  C   UNL     1       7.868   5.276  12.664  0.00  0.00    +0.000 A 
ATOM      9  C   UNL     1       7.100   4.436  11.863  0.00  0.00    +0.000 A 
ATOM     10  C   UNL     1       6.174   3.571  12.444  0.00  0.00    +0.000 A 
ATOM     11  C   UNL     1       6.014   3.546  13.830  0.00  0.00    +0.000 A 
ENDBRANCH   3   6
BRANCH   1  12
ATOM     12  C   UNL     1       4.813   3.789  19.115  0.00  0.00    +0.000 C 
BRANCH  12  14
ATOM     13  C   UNL     1       3.464   1.718  18.457  0.00  0.00    +0.000 C 
ATOM     14  N   UNL     1       3.535   3.138  18.783  0.00  0.00    +0.000 N 
ATOM     15  C   UNL     1       2.307   3.824  18.847  0.00  0.00    +0.000 C 
ATOM     16  O   UNL     1       1.248   3.202  18.746  0.00  0.00    +0.000 OA
BRANCH  15  17
ATOM     17  C   UNL     1       2.310   5.262  19.064  0.00  0.00    +0.000 A 
ATOM     18  C   UNL     1       2.019   5.991  20.202  0.00  0.00    +0.000 A 
ATOM     19  C   UNL     1       2.156   7.359  19.864  0.00  0.00    +0.000 A 
ATOM     20  C   UNL     1       2.484   7.390  18.532  0.00  0.00    +0.000 A 
ATOM     21  O   UNL     1       2.577   6.130  18.037  0.00  0.00    +0.000 OA
ENDBRANCH  15  17
ENDBRANCH  12  14
ENDBRANCH   1  12
TORSDOF 4
ENDMDL
MODEL 6
REMARK VINA RESULT:      -7.3      2.328      6.034
REMARK  Name = 
REMARK  5 active torsions:
REMARK  status: ('A' for Active; 'I' for Inactive)
REMARK    1  A    between atoms: C_1  and  N_2
REMARK    2  A    between atoms: N_2  and  C_3
REMARK    3  A    between atoms: C_3  and  C_4
REMARK    4  A    between atoms: C_6  and  C_7
REMARK    5  A    between atoms: C_15  and  C_17
REMARK                            x       y       z     vdW  Elec       q    Type
REMARK                         _______ _______ _______ _____ _____    ______ ____
ROOT
ATOM      1  C   UNL     1       6.214   5.760  15.804  0.00  0.00    +0.000 A 
ATOM      2  N   UNL     1       5.522   5.018  14.971  0.00  0.00    +0.000 NA
ATOM      3  C   UNL     1       6.464   4.664  14.033  0.00  0.00    +0.000 A 
ATOM      4  N   UNL     1       7.680   5.190  14.259  0.00  0.00    +0.000 NA
ATOM      5  O   UNL     1       7.515   5.917  15.437  0.00  0.00    +0.000 OA
ENDROOT
BRANCH   3   6
ATOM      6  C   UNL     1       6.147   3.760  12.936  0.00  0.00    +0.000 A 
ATOM      7  C   UNL     1       4.821   3.626  12.493  0.00  0.00    +0.000 A 
ATOM      8  C   UNL     1       4.503   2.745  11.458  0.00  0.00    +0.000 A 
ATOM      9  C   UNL     1       5.505   1.989  10.857  0.00  0.00    +0.000 A 
ATOM     10  C   UNL     1       6.826   2.115  11.283  0.00  0.00    +0.000 A 
ATOM     11  C   UNL     1       7.146   2.996  12.316  0.00  0.00    +0.000 A 
ENDBRANCH   3   6
BRANCH   1  12
ATOM     12  C   UNL     1       5.788   6.377  17.080  0.00  0.00    +0.000 C 
BRANCH  12  14
ATOM     13  C   UNL     1       7.513   5.858  18.896  0.00  0.00    +0.000 C 
ATOM     14  N   UNL     1       6.198   5.658  18.298  0.00  0.00    +0.000 N 
ATOM     15  C   UNL     1       5.319   4.808  18.997  0.00  0.00    +0.000 C 
ATOM     16  O   UNL     1       5.634   4.375  20.107  0.00  0.00    +0.000 OA
BRANCH  15  17
ATOM     17  C   UNL     1       4.031   4.481  18.407  0.00  0.00    +0.000 A 
ATOM     18  C   UNL     1       2.796   5.080  18.576  0.00  0.00    +0.000 A 
ATOM     19  C   UNL     1       1.873   4.356  17.784  0.00  0.00    +0.000 A 
ATOM     20  C   UNL     1       2.586   3.334  17.208  0.00  0.00    +0.000 A 
ATOM     21  O   UNL     1       3.889   3.398  17.579  0.00  0.00    +0.000 OA
ENDBRANCH  15  17
ENDBRANCH  12  14
ENDBRANCH   1  12
TORSDOF 4
ENDMDL
MODEL 7
REMARK VINA RESULT:      -7.2      2.620      3.283
REMARK  Name = 
REMARK  5 active torsions:
REMARK  status: ('A' for Active; 'I' for Inactive)
REMARK    1  A    between atoms: C_1  and  N_2
REMARK    2  A    between atoms: N_2  and  C_3
REMARK    3  A    between atoms: C_3  and  C_4
REMARK    4  A    between atoms: C_6  and  C_7
REMARK    5  A    between atoms: C_15  and  C_17
REMARK                            x       y       z     vdW  Elec       q    Type
REMARK                         _______ _______ _______ _____ _____    ______ ____
ROOT
ATOM      1  C   UNL     1       4.000   6.507  17.594  0.00  0.00    +0.000 A 
ATOM      2  N   UNL     1       3.415   7.640  17.904  0.00  0.00    +0.000 NA
ATOM      3  C   UNL     1       2.520   7.258  18.876  0.00  0.00    +0.000 A 
ATOM      4  N   UNL     1       2.528   5.939  19.134  0.00  0.00    +0.000 NA
ATOM      5  O   UNL     1       3.513   5.440  18.283  0.00  0.00    +0.000 OA
ENDROOT
BRANCH   3   6
ATOM      6  C   UNL     1       1.690   8.230  19.576  0.00  0.00    +0.000 A 
ATOM      7  C   UNL     1       1.315   8.006  20.910  0.00  0.00    +0.000 A 
ATOM      8  C   UNL     1       0.500   8.918  21.582  0.00  0.00    +0.000 A 
ATOM      9  C   UNL     1       0.053  10.062  20.929  0.00  0.00    +0.000 A 
ATOM     10  C   UNL     1       0.421  10.300  19.605  0.00  0.00    +0.000 A 
ATOM     11  C   UNL     1       1.236   9.390  18.932  0.00  0.00    +0.000 A 
ENDBRANCH   3   6
BRANCH   1  12
ATOM     12  C   UNL     1       5.125   6.261  16.663  0.00  0.00    +0.000 C 
BRANCH  12  14
ATOM     13  C   UNL     1       6.666   5.924  18.676  0.00  0.00    +0.000 C 
ATOM     14  N   UNL     1       6.337   5.691  17.274  0.00  0.00    +0.000 N 
ATOM     15  C   UNL     1       7.193   4.824  16.569  0.00  0.00    +0.000 C 
ATOM     16  O   UNL     1       8.087   4.222  17.166  0.00  0.00    +0.000 OA
BRANCH  15  17
ATOM     17  C   UNL     1       6.986   4.627  15.143  0.00  0.00    +0.000 A 
ATOM     18  C   UNL     1       6.159   3.741  14.477  0.00  0.00    +0.000 A 
ATOM     19  C   UNL     1       6.354   3.955  13.091  0.00  0.00    +0.000 A 
ATOM     20  C   UNL     1       7.315   4.930  12.988  0.00  0.00    +0.000 A 
ATOM     21  O   UNL     1       7.706   5.341  14.221  0.00  0.00    +0.000 OA
ENDBRANCH  15  17
ENDBRANCH  12  14
ENDBRANCH   1  12
TORSDOF 4
ENDMDL
MODEL 8
REMARK VINA RESULT:      -7.2      2.310      6.007
REMARK  Name = 
REMARK  5 active torsions:
REMARK  status: ('A' for Active; 'I' for Inactive)
REMARK    1  A    between atoms: C_1  and  N_2
REMARK    2  A    between atoms: N_2  and  C_3
REMARK    3  A    between atoms: C_3  and  C_4
REMARK    4  A    between atoms: C_6  and  C_7
REMARK    5  A    between atoms: C_15  and  C_17
REMARK                            x       y       z     vdW  Elec       q    Type
REMARK                         _______ _______ _______ _____ _____    ______ ____
ROOT
ATOM      1  C   UNL     1       6.239   5.782  15.871  0.00  0.00    +0.000 A 
ATOM      2  N   UNL     1       5.533   5.042  15.048  0.00  0.00    +0.000 NA
ATOM      3  C   UNL     1       6.460   4.688  14.095  0.00  0.00    +0.000 A 
ATOM      4  N   UNL     1       7.680   5.213  14.302  0.00  0.00    +0.000 NA
ATOM      5  O   UNL     1       7.533   5.939  15.484  0.00  0.00    +0.000 OA
ENDROOT
BRANCH   3   6
ATOM      6  C   UNL     1       6.126   3.785  13.002  0.00  0.00    +0.000 A 
ATOM      7  C   UNL     1       7.135   3.041  12.369  0.00  0.00    +0.000 A 
ATOM      8  C   UNL     1       6.829   2.191  11.304  0.00  0.00    +0.000 A 
ATOM      9  C   UNL     1       5.514   2.076  10.863  0.00  0.00    +0.000 A 
ATOM     10  C   UNL     1       4.502   2.805  11.485  0.00  0.00    +0.000 A 
ATOM     11  C   UNL     1       4.805   3.654  12.550  0.00  0.00    +0.000 A 
ENDBRANCH   3   6
BRANCH   1  12
ATOM     12  C   UNL     1       5.832   6.398  17.155  0.00  0.00    +0.000 C 
BRANCH  12  14
ATOM     13  C   UNL     1       7.539   5.848  18.979  0.00  0.00    +0.000 C 
ATOM     14  N   UNL     1       6.229   5.658  18.364  0.00  0.00    +0.000 N 
ATOM     15  C   UNL     1       5.344   4.797  19.039  0.00  0.00    +0.000 C 
ATOM     16  O   UNL     1       5.647   4.344  20.145  0.00  0.00    +0.000 OA
BRANCH  15  17
ATOM     17  C   UNL     1       4.062   4.480  18.431  0.00  0.00    +0.000 A 
ATOM     18  C   UNL     1       2.828   5.085  18.586  0.00  0.00    +0.000 A 
ATOM     19  C   UNL     1       1.912   4.370  17.778  0.00  0.00    +0.000 A 
ATOM     20  C   UNL     1       2.626   3.347  17.206  0.00  0.00    +0.000 A 
ATOM     21  O   UNL     1       3.925   3.402  17.595  0.00  0.00    +0.000 OA
ENDBRANCH  15  17
ENDBRANCH  12  14
ENDBRANCH   1  12
TORSDOF 4
ENDMDL
MODEL 9
REMARK VINA RESULT:      -7.2      1.356      2.795
REMARK  Name = 
REMARK  5 active torsions:
REMARK  status: ('A' for Active; 'I' for Inactive)
REMARK    1  A    between atoms: C_1  and  N_2
REMARK    2  A    between atoms: N_2  and  C_3
REMARK    3  A    between atoms: C_3  and  C_4
REMARK    4  A    between atoms: C_6  and  C_7
REMARK    5  A    between atoms: C_15  and  C_17
REMARK                            x       y       z     vdW  Elec       q    Type
REMARK                         _______ _______ _______ _____ _____    ______ ____
ROOT
ATOM      1  C   UNL     1       4.059   6.395  17.037  0.00  0.00    +0.000 A 
ATOM      2  N   UNL     1       3.804   5.257  17.639  0.00  0.00    +0.000 NA
ATOM      3  C   UNL     1       2.913   5.629  18.618  0.00  0.00    +0.000 A 
ATOM      4  N   UNL     1       2.652   6.948  18.642  0.00  0.00    +0.000 NA
ATOM      5  O   UNL     1       3.412   7.457  17.590  0.00  0.00    +0.000 OA
ENDROOT
BRANCH   3   6
ATOM      6  C   UNL     1       2.291   4.650  19.499  0.00  0.00    +0.000 A 
ATOM      7  C   UNL     1       2.685   4.562  20.844  0.00  0.00    +0.000 A 
ATOM      8  C   UNL     1       2.113   3.611  21.691  0.00  0.00    +0.000 A 
ATOM      9  C   UNL     1       1.144   2.739  21.203  0.00  0.00    +0.000 A 
ATOM     10  C   UNL     1       0.740   2.818  19.872  0.00  0.00    +0.000 A 
ATOM     11  C   UNL     1       1.309   3.769  19.024  0.00  0.00    +0.000 A 
ENDBRANCH   3   6
BRANCH   1  12
ATOM     12  C   UNL     1       4.888   6.652  15.838  0.00  0.00    +0.000 C 
BRANCH  12  14
ATOM     13  C   UNL     1       5.353   4.581  14.410  0.00  0.00    +0.000 C 
ATOM     14  N   UNL     1       5.765   5.543  15.428  0.00  0.00    +0.000 N 
ATOM     15  C   UNL     1       7.074   5.400  15.926  0.00  0.00    +0.000 C 
ATOM     16  O   UNL     1       7.838   4.575  15.422  0.00  0.00    +0.000 OA
BRANCH  15  17
ATOM     17  C   UNL     1       7.515   6.257  17.014  0.00  0.00    +0.000 A 
ATOM     18  C   UNL     1       7.719   5.966  18.351  0.00  0.00    +0.000 A 
ATOM     19  C   UNL     1       8.132   7.166  18.978  0.00  0.00    +0.000 A 
ATOM     20  C   UNL     1       8.120   8.129  18.000  0.00  0.00    +0.000 A 
ATOM     21  O   UNL     1       7.747   7.593  16.811  0.00  0.00    +0.000 OA
ENDBRANCH  15  17
ENDBRANCH  12  14
ENDBRANCH   1  12
TORSDOF 4
ENDMDL
