MODEL 1
REMARK VINA RESULT:      -8.3      0.000      0.000
REMARK  Name = 
REMARK  5 active torsions:
REMARK  status: ('A' for Active; 'I' for Inactive)
REMARK    1  A    between atoms: C_1  and  C_2
REMARK    2  A    between atoms: C_2  and  C_4
REMARK    3  A    between atoms: C_7  and  N_8
REMARK    4  A    between atoms: N_17  and  C_18
REMARK    5  A    between atoms: C_18  and  C_20
REMARK                            x       y       z     vdW  Elec       q    Type
REMARK                         _______ _______ _______ _____ _____    ______ ____
ROOT
ATOM      1  N   UNL     1       2.532   5.790  19.500  0.00  0.00    +0.000 N 
ATOM      2  C   UNL     1       1.633   4.786  18.890  0.00  0.00    +0.000 C 
ATOM      3  C   UNL     1       2.527   3.615  18.697  0.00  0.00    +0.000 A 
ATOM      4  C   UNL     1       2.351   2.481  17.929  0.00  0.00    +0.000 A 
ATOM      5  C   UNL     1       3.239   1.424  18.129  0.00  0.00    +0.000 A 
ATOM      6  C   UNL     1       4.222   1.501  19.132  0.00  0.00    +0.000 A 
ATOM      7  C   UNL     1       4.476   2.711  19.780  0.00  0.00    +0.000 A 
ATOM      8  C   UNL     1       3.694   3.789  19.420  0.00  0.00    +0.000 A 
ATOM      9  C   UNL     1       3.829   5.257  19.579  0.00  0.00    +0.000 C 
ATOM     10  N   UNL     1       4.936   5.939  19.571  0.00  0.00    +0.000 NA
ENDROOT
BRANCH   1  14
ATOM     11  C   UNL     1       1.173   9.798  18.977  0.00  0.00    +0.000 A 
ATOM     12  C   UNL     1       1.104   9.187  20.226  0.00  0.00    +0.000 A 
ATOM     13  C   UNL     1       1.623   7.902  20.408  0.00  0.00    +0.000 A 
ATOM     14  C   UNL     1       2.173   7.154  19.341  0.00  0.00    +0.000 A 
ATOM     15  C   UNL     1       2.291   7.827  18.120  0.00  0.00    +0.000 A 
ATOM     16  C   UNL     1       1.796   9.127  17.928  0.00  0.00    +0.000 A 
BRANCH  11  18
ATOM     17  C   UNL     1      -0.907  11.252  18.581  0.00  0.00    +0.000 C 
ATOM     18  C   UNL     1       0.574  11.149  18.821  0.00  0.00    +0.000 C 
ATOM     19  O   UNL     1       1.295  12.144  18.856  0.00  0.00    +0.000 OA
ENDBRANCH  11  18
ENDBRANCH   1  14
BRANCH  10  20
ATOM     20  C   UNL     1       6.117   5.424  19.084  0.00  0.00    +0.000 C 
ATOM     21  O   UNL     1       7.069   5.040  19.755  0.00  0.00    +0.000 OA
BRANCH  20  22
ATOM     22  C   UNL     1       6.017   5.233  17.647  0.00  0.00    +0.000 A 
ATOM     23  C   UNL     1       6.328   4.129  16.874  0.00  0.00    +0.000 A 
ATOM     24  C   UNL     1       6.089   4.335  15.486  0.00  0.00    +0.000 A 
ATOM     25  C   UNL     1       5.634   5.609  15.227  0.00  0.00    +0.000 A 
ATOM     26  S   UNL     1       5.493   6.539  16.655  0.00  0.00    +0.000 S 
ENDBRANCH  20  22
ENDBRANCH  10  20
TORSDOF 4
ENDMDL
MODEL 2
REMARK VINA RESULT:      -8.3      2.292      4.247
REMARK  Name = 
REMARK  5 active torsions:
REMARK  status: ('A' for Active; 'I' for Inactive)
REMARK    1  A    between atoms: C_1  and  C_2
REMARK    2  A    between atoms: C_2  and  C_4
REMARK    3  A    between atoms: C_7  and  N_8
REMARK    4  A    between atoms: N_17  and  C_18
REMARK    5  A    between atoms: C_18  and  C_20
REMARK                            x       y       z     vdW  Elec       q    Type
REMARK                         _______ _______ _______ _____ _____    ______ ____
ROOT
ATOM      1  N   UNL     1       3.143   7.056  17.963  0.00  0.00    +0.000 N 
ATOM      2  C   UNL     1       4.583   7.361  18.108  0.00  0.00    +0.000 C 
ATOM      3  C   UNL     1       5.234   6.095  17.685  0.00  0.00    +0.000 A 
ATOM      4  C   UNL     1       6.534   5.663  17.861  0.00  0.00    +0.000 A 
ATOM      5  C   UNL     1       6.942   4.540  17.141  0.00  0.00    +0.000 A 
ATOM      6  C   UNL     1       6.072   3.932  16.218  0.00  0.00    +0.000 A 
ATOM      7  C   UNL     1       4.724   4.290  16.177  0.00  0.00    +0.000 A 
ATOM      8  C   UNL     1       4.315   5.285  17.042  0.00  0.00    +0.000 A 
ATOM      9  C   UNL     1       2.996   5.719  17.560  0.00  0.00    +0.000 C 
ATOM     10  N   UNL     1       1.969   4.958  17.801  0.00  0.00    +0.000 NA
ENDROOT
BRANCH   1  14
ATOM     11  C   UNL     1       0.660   9.537  20.384  0.00  0.00    +0.000 A 
ATOM     12  C   UNL     1       0.838   9.822  19.033  0.00  0.00    +0.000 A 
ATOM     13  C   UNL     1       1.590   8.960  18.228  0.00  0.00    +0.000 A 
ATOM     14  C   UNL     1       2.242   7.819  18.750  0.00  0.00    +0.000 A 
ATOM     15  C   UNL     1       1.980   7.527  20.093  0.00  0.00    +0.000 A 
ATOM     16  C   UNL     1       1.208   8.369  20.909  0.00  0.00    +0.000 A 
BRANCH  11  18
ATOM     17  C   UNL     1      -0.319  10.192  22.668  0.00  0.00    +0.000 C 
ATOM     18  C   UNL     1      -0.113  10.501  21.210  0.00  0.00    +0.000 C 
ATOM     19  O   UNL     1      -0.596  11.503  20.687  0.00  0.00    +0.000 OA
ENDBRANCH  11  18
ENDBRANCH   1  14
BRANCH  10  20
ATOM     20  C   UNL     1       2.076   3.589  17.918  0.00  0.00    +0.000 C 
ATOM     21  O   UNL     1       2.259   2.798  16.999  0.00  0.00    +0.000 OA
BRANCH  20  22
ATOM     22  C   UNL     1       2.114   3.214  19.322  0.00  0.00    +0.000 A 
ATOM     23  C   UNL     1       1.119   3.270  20.281  0.00  0.00    +0.000 A 
ATOM     24  C   UNL     1       1.550   2.809  21.557  0.00  0.00    +0.000 A 
ATOM     25  C   UNL     1       2.878   2.444  21.550  0.00  0.00    +0.000 A 
ATOM     26  S   UNL     1       3.589   2.655  20.009  0.00  0.00    +0.000 S 
ENDBRANCH  20  22
ENDBRANCH  10  20
TORSDOF 4
ENDMDL
MODEL 3
REMARK VINA RESULT:      -8.0      0.727      1.279
REMARK  Name = 
REMARK  5 active torsions:
REMARK  status: ('A' for Active; 'I' for Inactive)
REMARK    1  A    between atoms: C_1  and  C_2
REMARK    2  A    between atoms: C_2  and  C_4
REMARK    3  A    between atoms: C_7  and  N_8
REMARK    4  A    between atoms: N_17  and  C_18
REMARK    5  A    between atoms: C_18  and  C_20
REMARK                            x       y       z     vdW  Elec       q    Type
REMARK                         _______ _______ _______ _____ _____    ______ ____
ROOT
ATOM      1  N   UNL     1       2.457   5.778  19.446  0.00  0.00    +0.000 N 
ATOM      2  C   UNL     1       1.607   4.727  18.846  0.00  0.00    +0.000 C 
ATOM      3  C   UNL     1       2.548   3.590  18.684  0.00  0.00    +0.000 A 
ATOM      4  C   UNL     1       2.426   2.436  17.936  0.00  0.00    +0.000 A 
ATOM      5  C   UNL     1       3.353   1.420  18.164  0.00  0.00    +0.000 A 
ATOM      6  C   UNL     1       4.322   1.554  19.176  0.00  0.00    +0.000 A 
ATOM      7  C   UNL     1       4.520   2.784  19.803  0.00  0.00    +0.000 A 
ATOM      8  C   UNL     1       3.699   3.824  19.415  0.00  0.00    +0.000 A 
ATOM      9  C   UNL     1       3.774   5.298  19.549  0.00  0.00    +0.000 C 
ATOM     10  N   UNL     1       4.853   6.024  19.541  0.00  0.00    +0.000 NA
ENDROOT
BRANCH   1  14
ATOM     11  C   UNL     1       1.508   9.902  18.928  0.00  0.00    +0.000 A 
ATOM     12  C   UNL     1       1.967   9.144  17.854  0.00  0.00    +0.000 A 
ATOM     13  C   UNL     1       2.201   7.774  18.012  0.00  0.00    +0.000 A 
ATOM     14  C   UNL     1       2.047   7.123  19.259  0.00  0.00    +0.000 A 
ATOM     15  C   UNL     1       1.516   7.901  20.293  0.00  0.00    +0.000 A 
ATOM     16  C   UNL     1       1.253   9.272  20.144  0.00  0.00    +0.000 A 
BRANCH  11  18
ATOM     17  C   UNL     1      -0.065  11.933  18.936  0.00  0.00    +0.000 C 
ATOM     18  C   UNL     1       1.310  11.361  18.725  0.00  0.00    +0.000 C 
ATOM     19  O   UNL     1       2.252  12.059  18.358  0.00  0.00    +0.000 OA
ENDBRANCH  11  18
ENDBRANCH   1  14
BRANCH  10  20
ATOM     20  C   UNL     1       6.059   5.547  19.074  0.00  0.00    +0.000 C 
ATOM     21  O   UNL     1       6.971   5.099  19.760  0.00  0.00    +0.000 OA
BRANCH  20  22
ATOM     22  C   UNL     1       6.039   5.489  17.623  0.00  0.00    +0.000 A 
ATOM     23  C   UNL     1       5.188   6.103  16.722  0.00  0.00    +0.000 A 
ATOM     24  C   UNL     1       5.496   5.794  15.367  0.00  0.00    +0.000 A 
ATOM     25  C   UNL     1       6.556   4.922  15.267  0.00  0.00    +0.000 A 
ATOM     26  S   UNL     1       7.173   4.488  16.801  0.00  0.00    +0.000 S 
ENDBRANCH  20  22
ENDBRANCH  10  20
TORSDOF 4
ENDMDL
MODEL 4
REMARK VINA RESULT:      -7.8      2.354      4.160
REMARK  Name = 
REMARK  5 active torsions:
REMARK  status: ('A' for Active; 'I' for Inactive)
REMARK    1  A    between atoms: C_1  and  C_2
REMARK    2  A    between atoms: C_2  and  C_4
REMARK    3  A    between atoms: C_7  and  N_8
REMARK    4  A    between atoms: N_17  and  C_18
REMARK    5  A    between atoms: C_18  and  C_20
REMARK                            x       y       z     vdW  Elec       q    Type
REMARK                         _______ _______ _______ _____ _____    ______ ____
ROOT
ATOM      1  N   UNL     1       3.380   7.069  17.780  0.00  0.00    +0.000 N 
ATOM      2  C   UNL     1       4.834   7.338  17.804  0.00  0.00    +0.000 C 
ATOM      3  C   UNL     1       5.417   6.050  17.352  0.00  0.00    +0.000 A 
ATOM      4  C   UNL     1       6.716   5.587  17.430  0.00  0.00    +0.000 A 
ATOM      5  C   UNL     1       7.037   4.443  16.699  0.00  0.00    +0.000 A 
ATOM      6  C   UNL     1       6.081   3.843  15.860  0.00  0.00    +0.000 A 
ATOM      7  C   UNL     1       4.743   4.236  15.922  0.00  0.00    +0.000 A 
ATOM      8  C   UNL     1       4.430   5.254  16.799  0.00  0.00    +0.000 A 
ATOM      9  C   UNL     1       3.168   5.730  17.414  0.00  0.00    +0.000 C 
ATOM     10  N   UNL     1       2.146   4.999  17.750  0.00  0.00    +0.000 NA
ENDROOT
BRANCH   1  14
ATOM     11  C   UNL     1       0.699   9.288  20.246  0.00  0.00    +0.000 A 
ATOM     12  C   UNL     1       1.345   8.159  20.743  0.00  0.00    +0.000 A 
ATOM     13  C   UNL     1       2.282   7.482  19.956  0.00  0.00    +0.000 A 
ATOM     14  C   UNL     1       2.564   7.867  18.624  0.00  0.00    +0.000 A 
ATOM     15  C   UNL     1       1.951   9.045  18.185  0.00  0.00    +0.000 A 
ATOM     16  C   UNL     1       1.026   9.750  18.973  0.00  0.00    +0.000 A 
BRANCH  11  18
ATOM     17  C   UNL     1      -0.483   9.471  22.519  0.00  0.00    +0.000 C 
ATOM     18  C   UNL     1      -0.317   9.952  21.103  0.00  0.00    +0.000 C 
ATOM     19  O   UNL     1      -1.018  10.846  20.636  0.00  0.00    +0.000 OA
ENDBRANCH  11  18
ENDBRANCH   1  14
BRANCH  10  20
ATOM     20  C   UNL     1       2.228   3.630  17.882  0.00  0.00    +0.000 C 
ATOM     21  O   UNL     1       2.329   2.821  16.966  0.00  0.00    +0.000 OA
BRANCH  20  22
ATOM     22  C   UNL     1       2.353   3.276  19.286  0.00  0.00    +0.000 A 
ATOM     23  C   UNL     1       3.373   2.616  19.947  0.00  0.00    +0.000 A 
ATOM     24  C   UNL     1       3.122   2.456  21.339  0.00  0.00    +0.000 A 
ATOM     25  C   UNL     1       1.897   2.968  21.702  0.00  0.00    +0.000 A 
ATOM     26  S   UNL     1       1.065   3.640  20.368  0.00  0.00    +0.000 S 
ENDBRANCH  20  22
ENDBRANCH  10  20
TORSDOF 4
ENDMDL
MODEL 5
REMARK VINA RESULT:      -7.5      2.412      4.230
REMARK  Name = 
REMARK  5 active torsions:
REMARK  status: ('A' for Active; 'I' for Inactive)
REMARK    1  A    between atoms: C_1  and  C_2
REMARK    2  A    between atoms: C_2  and  C_4
REMARK    3  A    between atoms: C_7  and  N_8
REMARK    4  A    between atoms: N_17  and  C_18
REMARK    5  A    between atoms: C_18  and  C_20
REMARK                            x       y       z     vdW  Elec       q    Type
REMARK                         _______ _______ _______ _____ _____    ______ ____
ROOT
ATOM      1  N   UNL     1       3.243   7.272  17.753  0.00  0.00    +0.000 N 
ATOM      2  C   UNL     1       4.687   7.553  17.902  0.00  0.00    +0.000 C 
ATOM      3  C   UNL     1       5.315   6.245  17.583  0.00  0.00    +0.000 A 
ATOM      4  C   UNL     1       6.600   5.797  17.813  0.00  0.00    +0.000 A 
ATOM      5  C   UNL     1       6.993   4.616  17.183  0.00  0.00    +0.000 A 
ATOM      6  C   UNL     1       6.124   3.963  16.291  0.00  0.00    +0.000 A 
ATOM      7  C   UNL     1       4.786   4.348  16.200  0.00  0.00    +0.000 A 
ATOM      8  C   UNL     1       4.387   5.412  16.983  0.00  0.00    +0.000 A 
ATOM      9  C   UNL     1       3.070   5.912  17.445  0.00  0.00    +0.000 C 
ATOM     10  N   UNL     1       2.021   5.195  17.721  0.00  0.00    +0.000 NA
ENDROOT
BRANCH   1  14
ATOM     11  C   UNL     1       0.786   9.965  19.965  0.00  0.00    +0.000 A 
ATOM     12  C   UNL     1       1.069  10.208  18.623  0.00  0.00    +0.000 A 
ATOM     13  C   UNL     1       1.809   9.281  17.883  0.00  0.00    +0.000 A 
ATOM     14  C   UNL     1       2.348   8.110  18.467  0.00  0.00    +0.000 A 
ATOM     15  C   UNL     1       1.982   7.865  19.795  0.00  0.00    +0.000 A 
ATOM     16  C   UNL     1       1.219   8.775  20.544  0.00  0.00    +0.000 A 
BRANCH  11  18
ATOM     17  C   UNL     1      -1.096  11.713  20.026  0.00  0.00    +0.000 C 
ATOM     18  C   UNL     1       0.029  10.996  20.722  0.00  0.00    +0.000 C 
ATOM     19  O   UNL     1       0.354  11.266  21.876  0.00  0.00    +0.000 OA
ENDBRANCH  11  18
ENDBRANCH   1  14
BRANCH  10  20
ATOM     20  C   UNL     1       2.093   3.835  17.938  0.00  0.00    +0.000 C 
ATOM     21  O   UNL     1       2.308   2.979  17.087  0.00  0.00    +0.000 OA
BRANCH  20  22
ATOM     22  C   UNL     1       2.048   3.560  19.363  0.00  0.00    +0.000 A 
ATOM     23  C   UNL     1       2.623   4.246  20.418  0.00  0.00    +0.000 A 
ATOM     24  C   UNL     1       2.347   3.655  21.683  0.00  0.00    +0.000 A 
ATOM     25  C   UNL     1       1.595   2.508  21.561  0.00  0.00    +0.000 A 
ATOM     26  S   UNL     1       1.225   2.158  19.929  0.00  0.00    +0.000 S 
ENDBRANCH  20  22
ENDBRANCH  10  20
TORSDOF 4
ENDMDL
MODEL 6
REMARK VINA RESULT:      -7.4      3.078      7.185
REMARK  Name = 
REMARK  5 active torsions:
REMARK  status: ('A' for Active; 'I' for Inactive)
REMARK    1  A    between atoms: C_1  and  C_2
REMARK    2  A    between atoms: C_2  and  C_4
REMARK    3  A    between atoms: C_7  and  N_8
REMARK    4  A    between atoms: N_17  and  C_18
REMARK    5  A    between atoms: C_18  and  C_20
REMARK                            x       y       z     vdW  Elec       q    Type
REMARK                         _______ _______ _______ _____ _____    ______ ____
ROOT
ATOM      1  N   UNL     1       4.644   5.860  16.924  0.00  0.00    +0.000 N 
ATOM      2  C   UNL     1       4.464   7.326  16.832  0.00  0.00    +0.000 C 
ATOM      3  C   UNL     1       3.342   7.582  17.770  0.00  0.00    +0.000 A 
ATOM      4  C   UNL     1       2.541   8.697  17.914  0.00  0.00    +0.000 A 
ATOM      5  C   UNL     1       1.727   8.764  19.044  0.00  0.00    +0.000 A 
ATOM      6  C   UNL     1       1.791   7.761  20.028  0.00  0.00    +0.000 A 
ATOM      7  C   UNL     1       2.487   6.577  19.783  0.00  0.00    +0.000 A 
ATOM      8  C   UNL     1       3.132   6.470  18.567  0.00  0.00    +0.000 A 
ATOM      9  C   UNL     1       3.667   5.332  17.783  0.00  0.00    +0.000 C 
ATOM     10  N   UNL     1       3.182   4.126  17.737  0.00  0.00    +0.000 NA
ENDROOT
BRANCH   1  14
ATOM     11  C   UNL     1       6.380   4.159  13.420  0.00  0.00    +0.000 A 
ATOM     12  C   UNL     1       7.106   5.050  14.206  0.00  0.00    +0.000 A 
ATOM     13  C   UNL     1       6.560   5.543  15.395  0.00  0.00    +0.000 A 
ATOM     14  C   UNL     1       5.249   5.216  15.813  0.00  0.00    +0.000 A 
ATOM     15  C   UNL     1       4.579   4.263  15.038  0.00  0.00    +0.000 A 
ATOM     16  C   UNL     1       5.124   3.741  13.854  0.00  0.00    +0.000 A 
BRANCH  11  18
ATOM     17  C   UNL     1       6.657   2.304  11.665  0.00  0.00    +0.000 C 
ATOM     18  C   UNL     1       6.985   3.691  12.146  0.00  0.00    +0.000 C 
ATOM     19  O   UNL     1       7.759   4.423  11.533  0.00  0.00    +0.000 OA
ENDBRANCH  11  18
ENDBRANCH   1  14
BRANCH  10  20
ATOM     20  C   UNL     1       1.904   3.827  18.159  0.00  0.00    +0.000 C 
ATOM     21  O   UNL     1       0.893   3.850  17.467  0.00  0.00    +0.000 OA
BRANCH  20  22
ATOM     22  C   UNL     1       1.941   3.307  19.515  0.00  0.00    +0.000 A 
ATOM     23  C   UNL     1       0.949   3.274  20.479  0.00  0.00    +0.000 A 
ATOM     24  C   UNL     1       1.378   2.676  21.698  0.00  0.00    +0.000 A 
ATOM     25  C   UNL     1       2.701   2.298  21.647  0.00  0.00    +0.000 A 
ATOM     26  S   UNL     1       3.411   2.660  20.134  0.00  0.00    +0.000 S 
ENDBRANCH  20  22
ENDBRANCH  10  20
TORSDOF 4
ENDMDL
MODEL 7
REMARK VINA RESULT:      -7.1      1.851      2.341
REMARK  Name = 
REMARK  5 active torsions:
REMARK  status: ('A' for Active; 'I' for Inactive)
REMARK    1  A    between atoms: C_1  and  C_2
REMARK    2  A    between atoms: C_2  and  C_4
REMARK    3  A    between atoms: C_7  and  N_8
REMARK    4  A    between atoms: N_17  and  C_18
REMARK    5  A    between atoms: C_18  and  C_20
REMARK                            x       y       z     vdW  Elec       q    Type
REMARK                         _______ _______ _______ _____ _____    ______ ____
ROOT
ATOM      1  N   UNL     1       2.348   6.690  20.049  0.00  0.00    +0.000 N 
ATOM      2  C   UNL     1       1.497   5.971  21.022  0.00  0.00    +0.000 C 
ATOM      3  C   UNL     1       1.875   4.551  20.807  0.00  0.00    +0.000 A 
ATOM      4  C   UNL     1       1.242   3.392  21.211  0.00  0.00    +0.000 A 
ATOM      5  C   UNL     1       1.949   2.197  21.091  0.00  0.00    +0.000 A 
ATOM      6  C   UNL     1       3.283   2.200  20.644  0.00  0.00    +0.000 A 
ATOM      7  C   UNL     1       3.840   3.357  20.098  0.00  0.00    +0.000 A 
ATOM      8  C   UNL     1       3.040   4.481  20.065  0.00  0.00    +0.000 A 
ATOM      9  C   UNL     1       3.087   5.755  19.307  0.00  0.00    +0.000 C 
ATOM     10  N   UNL     1       3.531   5.921  18.096  0.00  0.00    +0.000 NA
ENDROOT
BRANCH   1  14
ATOM     11  C   UNL     1       1.249  10.626  18.830  0.00  0.00    +0.000 A 
ATOM     12  C   UNL     1       1.947   9.789  17.965  0.00  0.00    +0.000 A 
ATOM     13  C   UNL     1       2.235   8.473  18.341  0.00  0.00    +0.000 A 
ATOM     14  C   UNL     1       1.894   7.963  19.616  0.00  0.00    +0.000 A 
ATOM     15  C   UNL     1       1.131   8.809  20.428  0.00  0.00    +0.000 A 
ATOM     16  C   UNL     1       0.813  10.125  20.055  0.00  0.00    +0.000 A 
BRANCH  11  18
ATOM     17  C   UNL     1       2.182  12.916  18.134  0.00  0.00    +0.000 C 
ATOM     18  C   UNL     1       0.999  12.028  18.404  0.00  0.00    +0.000 C 
ATOM     19  O   UNL     1      -0.155  12.442  18.314  0.00  0.00    +0.000 OA
ENDBRANCH  11  18
ENDBRANCH   1  14
BRANCH  10  20
ATOM     20  C   UNL     1       3.718   4.867  17.227  0.00  0.00    +0.000 C 
ATOM     21  O   UNL     1       2.835   4.173  16.735  0.00  0.00    +0.000 OA
BRANCH  20  22
ATOM     22  C   UNL     1       5.113   4.795  16.830  0.00  0.00    +0.000 A 
ATOM     23  C   UNL     1       6.254   4.714  17.609  0.00  0.00    +0.000 A 
ATOM     24  C   UNL     1       7.450   4.662  16.840  0.00  0.00    +0.000 A 
ATOM     25  C   UNL     1       7.196   4.741  15.489  0.00  0.00    +0.000 A 
ATOM     26  S   UNL     1       5.524   4.870  15.160  0.00  0.00    +0.000 S 
ENDBRANCH  20  22
ENDBRANCH  10  20
TORSDOF 4
ENDMDL
MODEL 8
REMARK VINA RESULT:      -7.1      1.771      2.011
REMARK  Name = 
REMARK  5 active torsions:
REMARK  status: ('A' for Active; 'I' for Inactive)
REMARK    1  A    between atoms: C_1  and  C_2
REMARK    2  A    between atoms: C_2  and  C_4
REMARK    3  A    between atoms: C_7  and  N_8
REMARK    4  A    between atoms: N_17  and  C_18
REMARK    5  A    between atoms: C_18  and  C_20
REMARK                            x       y       z     vdW  Elec       q    Type
REMARK                         _______ _______ _______ _____ _____    ______ ____
ROOT
ATOM      1  N   UNL     1       2.347   6.646  20.121  0.00  0.00    +0.000 N 
ATOM      2  C   UNL     1       1.512   5.904  21.090  0.00  0.00    +0.000 C 
ATOM      3  C   UNL     1       1.906   4.492  20.853  0.00  0.00    +0.000 A 
ATOM      4  C   UNL     1       1.289   3.320  21.246  0.00  0.00    +0.000 A 
ATOM      5  C   UNL     1       2.010   2.134  21.105  0.00  0.00    +0.000 A 
ATOM      6  C   UNL     1       3.340   2.161  20.648  0.00  0.00    +0.000 A 
ATOM      7  C   UNL     1       3.879   3.331  20.113  0.00  0.00    +0.000 A 
ATOM      8  C   UNL     1       3.066   4.446  20.101  0.00  0.00    +0.000 A 
ATOM      9  C   UNL     1       3.091   5.730  19.360  0.00  0.00    +0.000 C 
ATOM     10  N   UNL     1       3.524   5.917  18.148  0.00  0.00    +0.000 NA
ENDROOT
BRANCH   1  14
ATOM     11  C   UNL     1       0.657  10.347  18.843  0.00  0.00    +0.000 A 
ATOM     12  C   UNL     1       0.583   9.962  20.179  0.00  0.00    +0.000 A 
ATOM     13  C   UNL     1       1.208   8.786  20.605  0.00  0.00    +0.000 A 
ATOM     14  C   UNL     1       1.874   7.919  19.707  0.00  0.00    +0.000 A 
ATOM     15  C   UNL     1       1.990   8.375  18.390  0.00  0.00    +0.000 A 
ATOM     16  C   UNL     1       1.388   9.566  17.951  0.00  0.00    +0.000 A 
BRANCH  11  18
ATOM     17  C   UNL     1      -1.498  11.478  18.021  0.00  0.00    +0.000 C 
ATOM     18  C   UNL     1      -0.054  11.584  18.428  0.00  0.00    +0.000 C 
ATOM     19  O   UNL     1       0.552  12.653  18.390  0.00  0.00    +0.000 OA
ENDBRANCH  11  18
ENDBRANCH   1  14
BRANCH  10  20
ATOM     20  C   UNL     1       3.717   4.878  17.264  0.00  0.00    +0.000 C 
ATOM     21  O   UNL     1       2.838   4.188  16.758  0.00  0.00    +0.000 OA
BRANCH  20  22
ATOM     22  C   UNL     1       5.114   4.816  16.871  0.00  0.00    +0.000 A 
ATOM     23  C   UNL     1       6.251   4.712  17.652  0.00  0.00    +0.000 A 
ATOM     24  C   UNL     1       7.451   4.680  16.886  0.00  0.00    +0.000 A 
ATOM     25  C   UNL     1       7.202   4.797  15.537  0.00  0.00    +0.000 A 
ATOM     26  S   UNL     1       5.531   4.937  15.205  0.00  0.00    +0.000 S 
ENDBRANCH  20  22
ENDBRANCH  10  20
TORSDOF 4
ENDMDL
MODEL 9
REMARK VINA RESULT:      -7.0      1.871      2.141
REMARK  Name = 
REMARK  5 active torsions:
REMARK  status: ('A' for Active; 'I' for Inactive)
REMARK    1  A    between atoms: C_1  and  C_2
REMARK    2  A    between atoms: C_2  and  C_4
REMARK    3  A    between atoms: C_7  and  N_8
REMARK    4  A    between atoms: N_17  and  C_18
REMARK    5  A    between atoms: C_18  and  C_20
REMARK                            x       y       z     vdW  Elec       q    Type
REMARK                         _______ _______ _______ _____ _____    ______ ____
ROOT
ATOM      1  N   UNL     1       2.407   6.602  20.083  0.00  0.00    +0.000 N 
ATOM      2  C   UNL     1       1.614   5.888  21.107  0.00  0.00    +0.000 C 
ATOM      3  C   UNL     1       1.980   4.467  20.879  0.00  0.00    +0.000 A 
ATOM      4  C   UNL     1       1.371   3.310  21.324  0.00  0.00    +0.000 A 
ATOM      5  C   UNL     1       2.071   2.114  21.171  0.00  0.00    +0.000 A 
ATOM      6  C   UNL     1       3.377   2.116  20.649  0.00  0.00    +0.000 A 
ATOM      7  C   UNL     1       3.902   3.270  20.065  0.00  0.00    +0.000 A 
ATOM      8  C   UNL     1       3.101   4.393  20.071  0.00  0.00    +0.000 A 
ATOM      9  C   UNL     1       3.103   5.663  19.305  0.00  0.00    +0.000 C 
ATOM     10  N   UNL     1       3.478   5.822  18.070  0.00  0.00    +0.000 NA
ENDROOT
BRANCH   1  14
ATOM     11  C   UNL     1       0.697  10.296  18.811  0.00  0.00    +0.000 A 
ATOM     12  C   UNL     1       0.661   9.927  20.153  0.00  0.00    +0.000 A 
ATOM     13  C   UNL     1       1.292   8.753  20.575  0.00  0.00    +0.000 A 
ATOM     14  C   UNL     1       1.928   7.872  19.669  0.00  0.00    +0.000 A 
ATOM     15  C   UNL     1       2.007   8.312  18.343  0.00  0.00    +0.000 A 
ATOM     16  C   UNL     1       1.398   9.500  17.908  0.00  0.00    +0.000 A 
BRANCH  11  18
ATOM     17  C   UNL     1       0.671  12.855  18.585  0.00  0.00    +0.000 C 
ATOM     18  C   UNL     1      -0.020  11.531  18.402  0.00  0.00    +0.000 C 
ATOM     19  O   UNL     1      -1.164  11.454  17.961  0.00  0.00    +0.000 OA
ENDBRANCH  11  18
ENDBRANCH   1  14
BRANCH  10  20
ATOM     20  C   UNL     1       3.615   4.764  17.198  0.00  0.00    +0.000 C 
ATOM     21  O   UNL     1       2.718   4.019  16.820  0.00  0.00    +0.000 OA
BRANCH  20  22
ATOM     22  C   UNL     1       4.957   4.753  16.642  0.00  0.00    +0.000 A 
ATOM     23  C   UNL     1       5.375   4.589  15.333  0.00  0.00    +0.000 A 
ATOM     24  C   UNL     1       6.790   4.639  15.190  0.00  0.00    +0.000 A 
ATOM     25  C   UNL     1       7.423   4.806  16.401  0.00  0.00    +0.000 A 
ATOM     26  S   UNL     1       6.311   4.905  17.695  0.00  0.00    +0.000 S 
ENDBRANCH  20  22
ENDBRANCH  10  20
TORSDOF 4
ENDMDL
