MODEL 1
REMARK VINA RESULT:      -8.1      0.000      0.000
REMARK  Name = 
REMARK  3 active torsions:
REMARK  status: ('A' for Active; 'I' for Inactive)
REMARK    1  A    between atoms: C_1  and  N_2
REMARK    2  A    between atoms: N_2  and  C_12
REMARK    3  A    between atoms: C_3  and  C_5
REMARK                            x       y       z     vdW  Elec       q    Type
REMARK                         _______ _______ _______ _____ _____    ______ ____
ROOT
ATOM      1  C   UNL     1       3.847   6.015  18.491  0.00  0.00    +0.000 C 
ATOM      2  C   UNL     1       4.479   6.968  17.464  0.00  0.00    +0.000 C 
ATOM      3  C   UNL     1       3.431   7.905  16.868  0.00  0.00    +0.000 C 
ATOM      4  N   UNL     1       2.817   8.662  17.953  0.00  0.00    +0.000 NA
ATOM      5  C   UNL     1       1.997   9.787  17.462  0.00  0.00    +0.000 C 
ATOM      6  C   UNL     1       1.590  10.734  18.621  0.00  0.00    +0.000 C 
ATOM      7  C   UNL     1       1.082   9.944  19.778  0.00  0.00    +0.000 A 
ATOM      8  C   UNL     1       1.326   8.588  19.870  0.00  0.00    +0.000 A 
ATOM      9  N   UNL     1       0.740   8.130  21.015  0.00  0.00    +0.000 N 
ATOM     10  C   UNL     1       0.162   9.181  21.695  0.00  0.00    +0.000 A 
ATOM     11  C   UNL     1      -0.524   9.190  22.919  0.00  0.00    +0.000 A 
ATOM     12  C   UNL     1      -1.009  10.417  23.373  0.00  0.00    +0.000 A 
ATOM     13  C   UNL     1      -0.825  11.584  22.633  0.00  0.00    +0.000 A 
ATOM     14  C   UNL     1      -0.145  11.556  21.412  0.00  0.00    +0.000 A 
ATOM     15  C   UNL     1       0.356  10.333  20.932  0.00  0.00    +0.000 A 
ATOM     16  C   UNL     1       2.067   7.766  18.864  0.00  0.00    +0.000 C 
ATOM     17  C   UNL     1       3.061   6.816  19.543  0.00  0.00    +0.000 C 
ATOM     18  H   UNL     1       0.751   7.176  21.347  0.00  0.00    +0.000 HD
ENDROOT
BRANCH   1  20
ATOM     19  C   UNL     1       6.247   5.412  19.014  0.00  0.00    +0.000 C 
ATOM     20  N   UNL     1       4.830   5.042  19.040  0.00  0.00    +0.000 N 
ATOM     21  C   UNL     1       4.534   3.744  19.502  0.00  0.00    +0.000 C 
ATOM     22  O   UNL     1       5.413   2.932  19.799  0.00  0.00    +0.000 OA
BRANCH  21  23
ATOM     23  C   UNL     1       3.131   3.252  19.613  0.00  0.00    +0.000 A 
ATOM     24  C   UNL     1       2.343   2.918  18.504  0.00  0.00    +0.000 A 
ATOM     25  C   UNL     1       1.078   2.353  18.673  0.00  0.00    +0.000 A 
ATOM     26  C   UNL     1       0.545   2.223  19.952  0.00  0.00    +0.000 A 
ATOM     27  C   UNL     1       1.285   2.653  21.047  0.00  0.00    +0.000 A 
ATOM     28  F   UNL     1       0.746   2.578  22.271  0.00  0.00    +0.000 F 
ATOM     29  C   UNL     1       2.573   3.152  20.895  0.00  0.00    +0.000 A 
ENDBRANCH  21  23
ENDBRANCH   1  20
TORSDOF 2
ENDMDL
MODEL 2
REMARK VINA RESULT:      -7.9      0.839      1.237
REMARK  Name = 
REMARK  3 active torsions:
REMARK  status: ('A' for Active; 'I' for Inactive)
REMARK    1  A    between atoms: C_1  and  N_2
REMARK    2  A    between atoms: N_2  and  C_12
REMARK    3  A    between atoms: C_3  and  C_5
REMARK                            x       y       z     vdW  Elec       q    Type
REMARK                         _______ _______ _______ _____ _____    ______ ____
ROOT
ATOM      1  C   UNL     1       3.877   5.804  18.508  0.00  0.00    +0.000 C 
ATOM      2  C   UNL     1       4.503   6.734  17.457  0.00  0.00    +0.000 C 
ATOM      3  C   UNL     1       3.453   7.664  16.853  0.00  0.00    +0.000 C 
ATOM      4  N   UNL     1       2.852   8.445  17.927  0.00  0.00    +0.000 NA
ATOM      5  C   UNL     1       2.031   9.562  17.422  0.00  0.00    +0.000 C 
ATOM      6  C   UNL     1       1.639  10.534  18.566  0.00  0.00    +0.000 C 
ATOM      7  C   UNL     1       1.138   9.768  19.742  0.00  0.00    +0.000 A 
ATOM      8  C   UNL     1       1.378   8.414  19.859  0.00  0.00    +0.000 A 
ATOM      9  N   UNL     1       0.801   7.980  21.018  0.00  0.00    +0.000 N 
ATOM     10  C   UNL     1       0.233   9.047  21.682  0.00  0.00    +0.000 A 
ATOM     11  C   UNL     1      -0.442   9.082  22.912  0.00  0.00    +0.000 A 
ATOM     12  C   UNL     1      -0.918  10.320  23.346  0.00  0.00    +0.000 A 
ATOM     13  C   UNL     1      -0.737  11.471  22.582  0.00  0.00    +0.000 A 
ATOM     14  C   UNL     1      -0.068  11.417  21.356  0.00  0.00    +0.000 A 
ATOM     15  C   UNL     1       0.424  10.183  20.895  0.00  0.00    +0.000 A 
ATOM     16  C   UNL     1       2.106   7.569  18.863  0.00  0.00    +0.000 C 
ATOM     17  C   UNL     1       3.103   6.629  19.552  0.00  0.00    +0.000 C 
ATOM     18  H   UNL     1       0.811   7.033  21.369  0.00  0.00    +0.000 HD
ENDROOT
BRANCH   1  20
ATOM     19  C   UNL     1       6.284   5.108  18.849  0.00  0.00    +0.000 C 
ATOM     20  N   UNL     1       4.861   4.838  19.068  0.00  0.00    +0.000 N 
ATOM     21  C   UNL     1       4.549   3.625  19.714  0.00  0.00    +0.000 C 
ATOM     22  O   UNL     1       5.410   2.797  20.015  0.00  0.00    +0.000 OA
BRANCH  21  23
ATOM     23  C   UNL     1       3.142   3.245  20.030  0.00  0.00    +0.000 A 
ATOM     24  C   UNL     1       2.615   3.259  21.327  0.00  0.00    +0.000 A 
ATOM     25  C   UNL     1       1.260   3.004  21.548  0.00  0.00    +0.000 A 
ATOM     26  C   UNL     1       0.447   2.623  20.486  0.00  0.00    +0.000 A 
ATOM     27  C   UNL     1       0.995   2.505  19.213  0.00  0.00    +0.000 A 
ATOM     28  F   UNL     1       0.222   2.082  18.205  0.00  0.00    +0.000 F 
ATOM     29  C   UNL     1       2.326   2.824  18.971  0.00  0.00    +0.000 A 
ENDBRANCH  21  23
ENDBRANCH   1  20
TORSDOF 2
ENDMDL
MODEL 3
REMARK VINA RESULT:      -7.7      2.512      4.675
REMARK  Name = 
REMARK  3 active torsions:
REMARK  status: ('A' for Active; 'I' for Inactive)
REMARK    1  A    between atoms: C_1  and  N_2
REMARK    2  A    between atoms: N_2  and  C_12
REMARK    3  A    between atoms: C_3  and  C_5
REMARK                            x       y       z     vdW  Elec       q    Type
REMARK                         _______ _______ _______ _____ _____    ______ ____
ROOT
ATOM      1  C   UNL     1       3.087   5.481  18.758  0.00  0.00    +0.000 C 
ATOM      2  C   UNL     1       2.176   4.701  19.720  0.00  0.00    +0.000 C 
ATOM      3  C   UNL     1       1.905   5.504  20.991  0.00  0.00    +0.000 C 
ATOM      4  N   UNL     1       1.284   6.769  20.616  0.00  0.00    +0.000 NA
ATOM      5  C   UNL     1       0.732   7.492  21.778  0.00  0.00    +0.000 C 
ATOM      6  C   UNL     1      -0.160   8.679  21.330  0.00  0.00    +0.000 C 
ATOM      7  C   UNL     1       0.530   9.470  20.271  0.00  0.00    +0.000 A 
ATOM      8  C   UNL     1       1.609   8.947  19.587  0.00  0.00    +0.000 A 
ATOM      9  N   UNL     1       2.040   9.885  18.695  0.00  0.00    +0.000 N 
ATOM     10  C   UNL     1       1.222  10.994  18.754  0.00  0.00    +0.000 A 
ATOM     11  C   UNL     1       1.268  12.183  18.012  0.00  0.00    +0.000 A 
ATOM     12  C   UNL     1       0.299  13.149  18.288  0.00  0.00    +0.000 A 
ATOM     13  C   UNL     1      -0.668  12.940  19.270  0.00  0.00    +0.000 A 
ATOM     14  C   UNL     1      -0.695  11.752  20.006  0.00  0.00    +0.000 A 
ATOM     15  C   UNL     1       0.269  10.761  19.746  0.00  0.00    +0.000 A 
ATOM     16  C   UNL     1       2.218   7.601  19.820  0.00  0.00    +0.000 C 
ATOM     17  C   UNL     1       2.506   6.882  18.497  0.00  0.00    +0.000 C 
ATOM     18  H   UNL     1       2.815   9.785  18.055  0.00  0.00    +0.000 HD
ENDROOT
BRANCH   1  20
ATOM     19  C   UNL     1       2.395   3.818  16.984  0.00  0.00    +0.000 C 
ATOM     20  N   UNL     1       3.426   4.698  17.539  0.00  0.00    +0.000 N 
ATOM     21  C   UNL     1       4.688   4.650  16.916  0.00  0.00    +0.000 C 
ATOM     22  O   UNL     1       4.944   3.863  16.002  0.00  0.00    +0.000 OA
BRANCH  21  23
ATOM     23  C   UNL     1       5.815   5.520  17.359  0.00  0.00    +0.000 A 
ATOM     24  C   UNL     1       6.053   6.797  16.835  0.00  0.00    +0.000 A 
ATOM     25  C   UNL     1       7.053   7.612  17.369  0.00  0.00    +0.000 A 
ATOM     26  C   UNL     1       7.896   7.112  18.356  0.00  0.00    +0.000 A 
ATOM     27  C   UNL     1       7.728   5.806  18.802  0.00  0.00    +0.000 A 
ATOM     28  F   UNL     1       8.578   5.311  19.711  0.00  0.00    +0.000 F 
ATOM     29  C   UNL     1       6.692   5.011  18.326  0.00  0.00    +0.000 A 
ENDBRANCH  21  23
ENDBRANCH   1  20
TORSDOF 2
ENDMDL
MODEL 4
REMARK VINA RESULT:      -7.6      3.888      8.143
REMARK  Name = 
REMARK  3 active torsions:
REMARK  status: ('A' for Active; 'I' for Inactive)
REMARK    1  A    between atoms: C_1  and  N_2
REMARK    2  A    between atoms: N_2  and  C_12
REMARK    3  A    between atoms: C_3  and  C_5
REMARK                            x       y       z     vdW  Elec       q    Type
REMARK                         _______ _______ _______ _____ _____    ______ ____
ROOT
ATOM      1  C   UNL     1       0.923  10.023  18.857  0.00  0.00    +0.000 C 
ATOM      2  C   UNL     1       0.787   9.668  20.347  0.00  0.00    +0.000 C 
ATOM      3  C   UNL     1       0.720   8.155  20.546  0.00  0.00    +0.000 C 
ATOM      4  N   UNL     1       1.930   7.561  19.992  0.00  0.00    +0.000 NA
ATOM      5  C   UNL     1       2.093   6.146  20.379  0.00  0.00    +0.000 C 
ATOM      6  C   UNL     1       3.508   5.623  20.019  0.00  0.00    +0.000 C 
ATOM      7  C   UNL     1       3.862   6.017  18.625  0.00  0.00    +0.000 A 
ATOM      8  C   UNL     1       3.159   7.007  17.969  0.00  0.00    +0.000 A 
ATOM      9  N   UNL     1       3.691   7.148  16.720  0.00  0.00    +0.000 N 
ATOM     10  C   UNL     1       4.766   6.296  16.574  0.00  0.00    +0.000 A 
ATOM     11  C   UNL     1       5.625   6.115  15.479  0.00  0.00    +0.000 A 
ATOM     12  C   UNL     1       6.643   5.170  15.613  0.00  0.00    +0.000 A 
ATOM     13  C   UNL     1       6.792   4.431  16.785  0.00  0.00    +0.000 A 
ATOM     14  C   UNL     1       5.923   4.619  17.864  0.00  0.00    +0.000 A 
ATOM     15  C   UNL     1       4.890   5.567  17.757  0.00  0.00    +0.000 A 
ATOM     16  C   UNL     1       1.991   7.759  18.523  0.00  0.00    +0.000 C 
ATOM     17  C   UNL     1       2.107   9.261  18.237  0.00  0.00    +0.000 C 
ATOM     18  H   UNL     1       3.380   7.797  16.011  0.00  0.00    +0.000 HD
ENDROOT
BRANCH   1  20
ATOM     19  C   UNL     1       2.196  12.204  18.739  0.00  0.00    +0.000 C 
ATOM     20  N   UNL     1       0.921  11.492  18.623  0.00  0.00    +0.000 N 
ATOM     21  C   UNL     1      -0.218  12.287  18.389  0.00  0.00    +0.000 C 
ATOM     22  O   UNL     1      -0.168  13.519  18.357  0.00  0.00    +0.000 OA
BRANCH  21  23
ATOM     23  C   UNL     1      -1.572  11.687  18.215  0.00  0.00    +0.000 A 
ATOM     24  C   UNL     1      -2.656  11.980  19.052  0.00  0.00    +0.000 A 
ATOM     25  C   UNL     1      -3.928  11.478  18.772  0.00  0.00    +0.000 A 
ATOM     26  C   UNL     1      -4.102  10.589  17.716  0.00  0.00    +0.000 A 
ATOM     27  C   UNL     1      -3.004  10.215  16.949  0.00  0.00    +0.000 A 
ATOM     28  F   UNL     1      -3.166   9.315  15.971  0.00  0.00    +0.000 F 
ATOM     29  C   UNL     1      -1.747  10.762  17.177  0.00  0.00    +0.000 A 
ENDBRANCH  21  23
ENDBRANCH   1  20
TORSDOF 2
ENDMDL
MODEL 5
REMARK VINA RESULT:      -7.6      4.017      8.145
REMARK  Name = 
REMARK  3 active torsions:
REMARK  status: ('A' for Active; 'I' for Inactive)
REMARK    1  A    between atoms: C_1  and  N_2
REMARK    2  A    between atoms: N_2  and  C_12
REMARK    3  A    between atoms: C_3  and  C_5
REMARK                            x       y       z     vdW  Elec       q    Type
REMARK                         _______ _______ _______ _____ _____    ______ ____
ROOT
ATOM      1  C   UNL     1       0.962   9.930  18.877  0.00  0.00    +0.000 C 
ATOM      2  C   UNL     1       0.845   9.563  20.365  0.00  0.00    +0.000 C 
ATOM      3  C   UNL     1       0.802   8.049  20.555  0.00  0.00    +0.000 C 
ATOM      4  N   UNL     1       2.015   7.476  19.985  0.00  0.00    +0.000 NA
ATOM      5  C   UNL     1       2.202   6.061  20.361  0.00  0.00    +0.000 C 
ATOM      6  C   UNL     1       3.621   5.561  19.984  0.00  0.00    +0.000 C 
ATOM      7  C   UNL     1       3.956   5.969  18.590  0.00  0.00    +0.000 A 
ATOM      8  C   UNL     1       3.233   6.953  17.947  0.00  0.00    +0.000 A 
ATOM      9  N   UNL     1       3.751   7.110  16.694  0.00  0.00    +0.000 N 
ATOM     10  C   UNL     1       4.836   6.275  16.532  0.00  0.00    +0.000 A 
ATOM     11  C   UNL     1       5.687   6.114  15.428  0.00  0.00    +0.000 A 
ATOM     12  C   UNL     1       6.720   5.182  15.546  0.00  0.00    +0.000 A 
ATOM     13  C   UNL     1       6.890   4.438  16.711  0.00  0.00    +0.000 A 
ATOM     14  C   UNL     1       6.029   4.606  17.800  0.00  0.00    +0.000 A 
ATOM     15  C   UNL     1       4.982   5.540  17.709  0.00  0.00    +0.000 A 
ATOM     16  C   UNL     1       2.059   7.685  18.518  0.00  0.00    +0.000 C 
ATOM     17  C   UNL     1       2.152   9.190  18.241  0.00  0.00    +0.000 C 
ATOM     18  H   UNL     1       3.425   7.760  15.993  0.00  0.00    +0.000 HD
ENDROOT
BRANCH   1  20
ATOM     19  C   UNL     1       2.186  12.142  18.843  0.00  0.00    +0.000 C 
ATOM     20  N   UNL     1       0.938  11.401  18.653  0.00  0.00    +0.000 N 
ATOM     21  C   UNL     1      -0.206  12.171  18.363  0.00  0.00    +0.000 C 
ATOM     22  O   UNL     1      -0.185  13.403  18.343  0.00  0.00    +0.000 OA
BRANCH  21  23
ATOM     23  C   UNL     1      -1.534  11.540  18.112  0.00  0.00    +0.000 A 
ATOM     24  C   UNL     1      -1.725  10.484  17.212  0.00  0.00    +0.000 A 
ATOM     25  C   UNL     1      -2.967   9.856  17.103  0.00  0.00    +0.000 A 
ATOM     26  C   UNL     1      -4.056  10.354  17.812  0.00  0.00    +0.000 A 
ATOM     27  C   UNL     1      -3.891  11.470  18.625  0.00  0.00    +0.000 A 
ATOM     28  F   UNL     1      -4.954  11.980  19.259  0.00  0.00    +0.000 F 
ATOM     29  C   UNL     1      -2.643  12.059  18.793  0.00  0.00    +0.000 A 
ENDBRANCH  21  23
ENDBRANCH   1  20
TORSDOF 2
ENDMDL
MODEL 6
REMARK VINA RESULT:      -7.5      2.778      4.844
REMARK  Name = 
REMARK  3 active torsions:
REMARK  status: ('A' for Active; 'I' for Inactive)
REMARK    1  A    between atoms: C_1  and  N_2
REMARK    2  A    between atoms: N_2  and  C_12
REMARK    3  A    between atoms: C_3  and  C_5
REMARK                            x       y       z     vdW  Elec       q    Type
REMARK                         _______ _______ _______ _____ _____    ______ ____
ROOT
ATOM      1  C   UNL     1       3.029   5.731  18.856  0.00  0.00    +0.000 C 
ATOM      2  C   UNL     1       2.141   4.925  19.817  0.00  0.00    +0.000 C 
ATOM      3  C   UNL     1       1.834   5.724  21.081  0.00  0.00    +0.000 C 
ATOM      4  N   UNL     1       1.169   6.963  20.696  0.00  0.00    +0.000 NA
ATOM      5  C   UNL     1       0.584   7.673  21.850  0.00  0.00    +0.000 C 
ATOM      6  C   UNL     1      -0.348   8.824  21.390  0.00  0.00    +0.000 C 
ATOM      7  C   UNL     1       0.319   9.633  20.330  0.00  0.00    +0.000 A 
ATOM      8  C   UNL     1       1.420   9.146  19.656  0.00  0.00    +0.000 A 
ATOM      9  N   UNL     1       1.822  10.094  18.760  0.00  0.00    +0.000 N 
ATOM     10  C   UNL     1       0.963  11.172  18.808  0.00  0.00    +0.000 A 
ATOM     11  C   UNL     1       0.969  12.358  18.059  0.00  0.00    +0.000 A 
ATOM     12  C   UNL     1      -0.036  13.289  18.324  0.00  0.00    +0.000 A 
ATOM     13  C   UNL     1      -1.000  13.051  19.301  0.00  0.00    +0.000 A 
ATOM     14  C   UNL     1      -0.987  11.867  20.044  0.00  0.00    +0.000 A 
ATOM     15  C   UNL     1       0.013  10.910  19.795  0.00  0.00    +0.000 A 
ATOM     16  C   UNL     1       2.077   7.824  19.900  0.00  0.00    +0.000 C 
ATOM     17  C   UNL     1       2.399   7.108  18.583  0.00  0.00    +0.000 C 
ATOM     18  H   UNL     1       2.603  10.019  18.125  0.00  0.00    +0.000 HD
ENDROOT
BRANCH   1  20
ATOM     19  C   UNL     1       2.353   4.185  16.973  0.00  0.00    +0.000 C 
ATOM     20  N   UNL     1       3.403   4.954  17.643  0.00  0.00    +0.000 N 
ATOM     21  C   UNL     1       4.707   4.811  17.128  0.00  0.00    +0.000 C 
ATOM     22  O   UNL     1       4.972   4.028  16.213  0.00  0.00    +0.000 OA
BRANCH  21  23
ATOM     23  C   UNL     1       5.862   5.564  17.694  0.00  0.00    +0.000 A 
ATOM     24  C   UNL     1       6.636   5.095  18.762  0.00  0.00    +0.000 A 
ATOM     25  C   UNL     1       7.776   5.788  19.175  0.00  0.00    +0.000 A 
ATOM     26  C   UNL     1       8.086   7.014  18.594  0.00  0.00    +0.000 A 
ATOM     27  C   UNL     1       7.256   7.531  17.606  0.00  0.00    +0.000 A 
ATOM     28  F   UNL     1       7.526   8.738  17.091  0.00  0.00    +0.000 F 
ATOM     29  C   UNL     1       6.159   6.817  17.140  0.00  0.00    +0.000 A 
ENDBRANCH  21  23
ENDBRANCH   1  20
TORSDOF 2
ENDMDL
MODEL 7
REMARK VINA RESULT:      -7.4      7.507     10.853
REMARK  Name = 
REMARK  3 active torsions:
REMARK  status: ('A' for Active; 'I' for Inactive)
REMARK    1  A    between atoms: C_1  and  N_2
REMARK    2  A    between atoms: N_2  and  C_12
REMARK    3  A    between atoms: C_3  and  C_5
REMARK                            x       y       z     vdW  Elec       q    Type
REMARK                         _______ _______ _______ _____ _____    ______ ____
ROOT
ATOM      1  C   UNL     1      -5.805  13.420  22.213  0.00  0.00    +0.000 C 
ATOM      2  C   UNL     1      -7.227  13.798  21.768  0.00  0.00    +0.000 C 
ATOM      3  C   UNL     1      -7.216  14.440  20.383  0.00  0.00    +0.000 C 
ATOM      4  N   UNL     1      -6.622  13.500  19.440  0.00  0.00    +0.000 NA
ATOM      5  C   UNL     1      -6.817  13.909  18.036  0.00  0.00    +0.000 C 
ATOM      6  C   UNL     1      -6.431  12.768  17.058  0.00  0.00    +0.000 C 
ATOM      7  C   UNL     1      -5.116  12.182  17.445  0.00  0.00    +0.000 A 
ATOM      8  C   UNL     1      -4.581  12.409  18.697  0.00  0.00    +0.000 A 
ATOM      9  N   UNL     1      -3.379  11.765  18.767  0.00  0.00    +0.000 N 
ATOM     10  C   UNL     1      -3.151  11.078  17.593  0.00  0.00    +0.000 A 
ATOM     11  C   UNL     1      -2.069  10.265  17.226  0.00  0.00    +0.000 A 
ATOM     12  C   UNL     1      -2.103   9.688  15.955  0.00  0.00    +0.000 A 
ATOM     13  C   UNL     1      -3.167   9.921  15.086  0.00  0.00    +0.000 A 
ATOM     14  C   UNL     1      -4.234  10.740  15.466  0.00  0.00    +0.000 A 
ATOM     15  C   UNL     1      -4.226  11.331  16.741  0.00  0.00    +0.000 A 
ATOM     16  C   UNL     1      -5.197  13.252  19.768  0.00  0.00    +0.000 C 
ATOM     17  C   UNL     1      -5.123  12.560  21.135  0.00  0.00    +0.000 C 
ATOM     18  H   UNL     1      -2.758  11.753  19.562  0.00  0.00    +0.000 HD
ENDROOT
BRANCH   1  20
ATOM     19  C   UNL     1      -7.054  12.550  24.232  0.00  0.00    +0.000 C 
ATOM     20  N   UNL     1      -5.774  12.853  23.589  0.00  0.00    +0.000 N 
ATOM     21  C   UNL     1      -4.621  12.666  24.376  0.00  0.00    +0.000 C 
ATOM     22  O   UNL     1      -4.678  12.338  25.563  0.00  0.00    +0.000 OA
BRANCH  21  23
ATOM     23  C   UNL     1      -3.253  12.904  23.833  0.00  0.00    +0.000 A 
ATOM     24  C   UNL     1      -2.459  11.891  23.280  0.00  0.00    +0.000 A 
ATOM     25  C   UNL     1      -1.234  12.193  22.681  0.00  0.00    +0.000 A 
ATOM     26  C   UNL     1      -0.743  13.494  22.733  0.00  0.00    +0.000 A 
ATOM     27  C   UNL     1      -1.483  14.479  23.376  0.00  0.00    +0.000 A 
ATOM     28  F   UNL     1      -0.980  15.717  23.473  0.00  0.00    +0.000 F 
ATOM     29  C   UNL     1      -2.735  14.203  23.913  0.00  0.00    +0.000 A 
ENDBRANCH  21  23
ENDBRANCH   1  20
TORSDOF 2
ENDMDL
MODEL 8
REMARK VINA RESULT:      -7.1      3.699      7.938
REMARK  Name = 
REMARK  3 active torsions:
REMARK  status: ('A' for Active; 'I' for Inactive)
REMARK    1  A    between atoms: C_1  and  N_2
REMARK    2  A    between atoms: N_2  and  C_12
REMARK    3  A    between atoms: C_3  and  C_5
REMARK                            x       y       z     vdW  Elec       q    Type
REMARK                         _______ _______ _______ _____ _____    ______ ____
ROOT
ATOM      1  C   UNL     1       4.078   3.590  19.124  0.00  0.00    +0.000 C 
ATOM      2  C   UNL     1       4.521   4.880  19.832  0.00  0.00    +0.000 C 
ATOM      3  C   UNL     1       5.991   5.184  19.550  0.00  0.00    +0.000 C 
ATOM      4  N   UNL     1       6.169   5.309  18.108  0.00  0.00    +0.000 NA
ATOM      5  C   UNL     1       7.485   5.873  17.750  0.00  0.00    +0.000 C 
ATOM      6  C   UNL     1       7.543   6.257  16.248  0.00  0.00    +0.000 C 
ATOM      7  C   UNL     1       7.000   5.147  15.413  0.00  0.00    +0.000 A 
ATOM      8  C   UNL     1       6.240   4.143  15.977  0.00  0.00    +0.000 A 
ATOM      9  N   UNL     1       5.892   3.268  14.989  0.00  0.00    +0.000 N 
ATOM     10  C   UNL     1       6.374   3.720  13.778  0.00  0.00    +0.000 A 
ATOM     11  C   UNL     1       6.241   3.165  12.496  0.00  0.00    +0.000 A 
ATOM     12  C   UNL     1       6.842   3.847  11.437  0.00  0.00    +0.000 A 
ATOM     13  C   UNL     1       7.551   5.027  11.649  0.00  0.00    +0.000 A 
ATOM     14  C   UNL     1       7.680   5.563  12.934  0.00  0.00    +0.000 A 
ATOM     15  C   UNL     1       7.083   4.897  14.019  0.00  0.00    +0.000 A 
ATOM     16  C   UNL     1       5.899   4.020  17.428  0.00  0.00    +0.000 C 
ATOM     17  C   UNL     1       4.420   3.664  17.626  0.00  0.00    +0.000 C 
ATOM     18  H   UNL     1       5.336   2.433  15.103  0.00  0.00    +0.000 HD
ENDROOT
BRANCH   1  20
ATOM     19  C   UNL     1       2.348   1.812  19.612  0.00  0.00    +0.000 C 
ATOM     20  N   UNL     1       2.668   3.230  19.435  0.00  0.00    +0.000 N 
ATOM     21  C   UNL     1       1.580   4.125  19.482  0.00  0.00    +0.000 C 
ATOM     22  O   UNL     1       0.414   3.741  19.591  0.00  0.00    +0.000 OA
BRANCH  21  23
ATOM     23  C   UNL     1       1.770   5.598  19.352  0.00  0.00    +0.000 A 
ATOM     24  C   UNL     1       2.115   6.225  18.148  0.00  0.00    +0.000 A 
ATOM     25  C   UNL     1       2.166   7.618  18.059  0.00  0.00    +0.000 A 
ATOM     26  C   UNL     1       1.982   8.389  19.202  0.00  0.00    +0.000 A 
ATOM     27  C   UNL     1       1.745   7.761  20.420  0.00  0.00    +0.000 A 
ATOM     28  F   UNL     1       1.625   8.505  21.527  0.00  0.00    +0.000 F 
ATOM     29  C   UNL     1       1.623   6.379  20.505  0.00  0.00    +0.000 A 
ENDBRANCH  21  23
ENDBRANCH   1  20
TORSDOF 2
ENDMDL
MODEL 9
REMARK VINA RESULT:      -7.0      3.192      5.562
REMARK  Name = 
REMARK  3 active torsions:
REMARK  status: ('A' for Active; 'I' for Inactive)
REMARK    1  A    between atoms: C_1  and  N_2
REMARK    2  A    between atoms: N_2  and  C_12
REMARK    3  A    between atoms: C_3  and  C_5
REMARK                            x       y       z     vdW  Elec       q    Type
REMARK                         _______ _______ _______ _____ _____    ______ ____
ROOT
ATOM      1  C   UNL     1       4.912   4.011  17.329  0.00  0.00    +0.000 C 
ATOM      2  C   UNL     1       4.070   2.728  17.262  0.00  0.00    +0.000 C 
ATOM      3  C   UNL     1       3.448   2.407  18.619  0.00  0.00    +0.000 C 
ATOM      4  N   UNL     1       2.621   3.535  19.028  0.00  0.00    +0.000 NA
ATOM      5  C   UNL     1       1.762   3.215  20.184  0.00  0.00    +0.000 C 
ATOM      6  C   UNL     1       0.701   4.322  20.421  0.00  0.00    +0.000 C 
ATOM      7  C   UNL     1       1.342   5.667  20.371  0.00  0.00    +0.000 A 
ATOM      8  C   UNL     1       2.596   5.833  19.820  0.00  0.00    +0.000 A 
ATOM      9  N   UNL     1       2.931   7.153  19.918  0.00  0.00    +0.000 N 
ATOM     10  C   UNL     1       1.886   7.857  20.480  0.00  0.00    +0.000 A 
ATOM     11  C   UNL     1       1.771   9.229  20.751  0.00  0.00    +0.000 A 
ATOM     12  C   UNL     1       0.582   9.669  21.334  0.00  0.00    +0.000 A 
ATOM     13  C   UNL     1      -0.444   8.778  21.642  0.00  0.00    +0.000 A 
ATOM     14  C   UNL     1      -0.310   7.413  21.372  0.00  0.00    +0.000 A 
ATOM     15  C   UNL     1       0.877   6.942  20.783  0.00  0.00    +0.000 A 
ATOM     16  C   UNL     1       3.451   4.744  19.254  0.00  0.00    +0.000 C 
ATOM     17  C   UNL     1       4.078   5.162  17.918  0.00  0.00    +0.000 C 
ATOM     18  H   UNL     1       3.792   7.573  19.599  0.00  0.00    +0.000 HD
ENDROOT
BRANCH   1  20
ATOM     19  C   UNL     1       5.121   3.613  14.841  0.00  0.00    +0.000 C 
ATOM     20  N   UNL     1       5.587   4.315  16.038  0.00  0.00    +0.000 N 
ATOM     21  C   UNL     1       6.708   5.153  15.873  0.00  0.00    +0.000 C 
ATOM     22  O   UNL     1       7.314   5.240  14.803  0.00  0.00    +0.000 OA
BRANCH  21  23
ATOM     23  C   UNL     1       7.264   5.953  17.002  0.00  0.00    +0.000 A 
ATOM     24  C   UNL     1       7.655   5.390  18.223  0.00  0.00    +0.000 A 
ATOM     25  C   UNL     1       8.276   6.170  19.200  0.00  0.00    +0.000 A 
ATOM     26  C   UNL     1       8.407   7.542  19.008  0.00  0.00    +0.000 A 
ATOM     27  C   UNL     1       7.922   8.118  17.839  0.00  0.00    +0.000 A 
ATOM     28  F   UNL     1       7.998   9.446  17.684  0.00  0.00    +0.000 F 
ATOM     29  C   UNL     1       7.365   7.340  16.831  0.00  0.00    +0.000 A 
ENDBRANCH  21  23
ENDBRANCH   1  20
TORSDOF 2
ENDMDL
