MODEL 1
REMARK VINA RESULT:      -7.8      0.000      0.000
REMARK  Name = 
REMARK  1 active torsions:
REMARK  status: ('A' for Active; 'I' for Inactive)
REMARK    1  A    between atoms: C_13  and  C_14
REMARK                            x       y       z     vdW  Elec       q    Type
REMARK                         _______ _______ _______ _____ _____    ______ ____
ROOT
ATOM      1  O   UNL     1       1.066   4.037  17.143  0.00  0.00    +0.000 OA
ATOM      2  C   UNL     1       2.091   3.774  17.760  0.00  0.00    +0.000 C 
ATOM      3  C   UNL     1       2.033   3.356  19.199  0.00  0.00    +0.000 A 
ATOM      4  C   UNL     1       0.785   3.285  19.830  0.00  0.00    +0.000 A 
ATOM      5  C   UNL     1       0.698   2.916  21.174  0.00  0.00    +0.000 A 
ATOM      6  C   UNL     1       1.853   2.612  21.896  0.00  0.00    +0.000 A 
ATOM      7  C   UNL     1       3.103   2.671  21.278  0.00  0.00    +0.000 A 
ATOM      8  C   UNL     1       3.200   3.041  19.930  0.00  0.00    +0.000 A 
ATOM      9  C   UNL     1       4.548   3.095  19.290  0.00  0.00    +0.000 C 
ATOM     10  O   UNL     1       5.565   2.812  19.908  0.00  0.00    +0.000 OA
ATOM     11  C   UNL     1       4.542   3.504  17.923  0.00  0.00    +0.000 A 
ATOM     12  N   UNL     1       5.593   3.644  17.066  0.00  0.00    +0.000 N 
ATOM     13  C   UNL     1       5.099   4.037  15.840  0.00  0.00    +0.000 A 
ATOM     14  N   UNL     1       3.784   4.195  15.916  0.00  0.00    +0.000 NA
ATOM     15  C   UNL     1       3.427   3.837  17.194  0.00  0.00    +0.000 A 
ATOM     16  H   UNL     1       6.563   3.444  17.275  0.00  0.00    +0.000 HD
ENDROOT
BRANCH  13  17
ATOM     17  C   UNL     1       5.923   4.257  14.647  0.00  0.00    +0.000 A 
ATOM     18  C   UNL     1       5.613   3.521  13.488  0.00  0.00    +0.000 A 
ATOM     19  C   UNL     1       6.376   3.645  12.323  0.00  0.00    +0.000 A 
ATOM     20  C   UNL     1       7.463   4.512  12.295  0.00  0.00    +0.000 A 
ATOM     21  C   UNL     1       7.783   5.257  13.428  0.00  0.00    +0.000 A 
ATOM     22  C   UNL     1       7.026   5.130  14.598  0.00  0.00    +0.000 A 
ATOM     23 CL   UNL     1       7.554   6.064  15.960  0.00  0.00    +0.000 Cl
ENDBRANCH  13  17
TORSDOF 1
ENDMDL
MODEL 2
REMARK VINA RESULT:      -7.7      5.994      7.474
REMARK  Name = 
REMARK  1 active torsions:
REMARK  status: ('A' for Active; 'I' for Inactive)
REMARK    1  A    between atoms: C_13  and  C_14
REMARK                            x       y       z     vdW  Elec       q    Type
REMARK                         _______ _______ _______ _____ _____    ______ ____
ROOT
ATOM      1  O   UNL     1       1.813  10.005  17.450  0.00  0.00    +0.000 OA
ATOM      2  C   UNL     1       1.469   9.743  18.596  0.00  0.00    +0.000 C 
ATOM      3  C   UNL     1       0.650  10.715  19.392  0.00  0.00    +0.000 A 
ATOM      4  C   UNL     1       0.298  11.937  18.806  0.00  0.00    +0.000 A 
ATOM      5  C   UNL     1      -0.449  12.872  19.526  0.00  0.00    +0.000 A 
ATOM      6  C   UNL     1      -0.852  12.593  20.832  0.00  0.00    +0.000 A 
ATOM      7  C   UNL     1      -0.514  11.376  21.427  0.00  0.00    +0.000 A 
ATOM      8  C   UNL     1       0.235  10.433  20.712  0.00  0.00    +0.000 A 
ATOM      9  C   UNL     1       0.583   9.137  21.368  0.00  0.00    +0.000 C 
ATOM     10  O   UNL     1       0.218   8.875  22.506  0.00  0.00    +0.000 OA
ATOM     11  C   UNL     1       1.366   8.255  20.566  0.00  0.00    +0.000 A 
ATOM     12  N   UNL     1       1.833   7.010  20.868  0.00  0.00    +0.000 N 
ATOM     13  C   UNL     1       2.520   6.532  19.772  0.00  0.00    +0.000 A 
ATOM     14  N   UNL     1       2.541   7.453  18.818  0.00  0.00    +0.000 NA
ATOM     15  C   UNL     1       1.802   8.510  19.290  0.00  0.00    +0.000 A 
ATOM     16  H   UNL     1       1.662   6.501  21.726  0.00  0.00    +0.000 HD
ENDROOT
BRANCH  13  17
ATOM     17  C   UNL     1       3.143   5.205  19.700  0.00  0.00    +0.000 A 
ATOM     18  C   UNL     1       4.487   5.131  19.290  0.00  0.00    +0.000 A 
ATOM     19  C   UNL     1       5.139   3.902  19.156  0.00  0.00    +0.000 A 
ATOM     20  C   UNL     1       4.458   2.721  19.436  0.00  0.00    +0.000 A 
ATOM     21  C   UNL     1       3.129   2.772  19.852  0.00  0.00    +0.000 A 
ATOM     22  C   UNL     1       2.471   4.000  19.979  0.00  0.00    +0.000 A 
ATOM     23 CL   UNL     1       0.804   3.934  20.448  0.00  0.00    +0.000 Cl
ENDBRANCH  13  17
TORSDOF 1
ENDMDL
MODEL 3
REMARK VINA RESULT:      -7.7      5.724      7.292
REMARK  Name = 
REMARK  1 active torsions:
REMARK  status: ('A' for Active; 'I' for Inactive)
REMARK    1  A    between atoms: C_13  and  C_14
REMARK                            x       y       z     vdW  Elec       q    Type
REMARK                         _______ _______ _______ _____ _____    ______ ____
ROOT
ATOM      1  O   UNL     1       1.953   9.802  17.362  0.00  0.00    +0.000 OA
ATOM      2  C   UNL     1       1.669   9.601  18.537  0.00  0.00    +0.000 C 
ATOM      3  C   UNL     1       1.071  10.689  19.378  0.00  0.00    +0.000 A 
ATOM      4  C   UNL     1       0.856  11.946  18.800  0.00  0.00    +0.000 A 
ATOM      5  C   UNL     1       0.316  12.986  19.560  0.00  0.00    +0.000 A 
ATOM      6  C   UNL     1      -0.015  12.779  20.900  0.00  0.00    +0.000 A 
ATOM      7  C   UNL     1       0.187  11.529  21.488  0.00  0.00    +0.000 A 
ATOM      8  C   UNL     1       0.728  10.480  20.732  0.00  0.00    +0.000 A 
ATOM      9  C   UNL     1       0.934   9.151  21.382  0.00  0.00    +0.000 C 
ATOM     10  O   UNL     1       0.629   8.953  22.550  0.00  0.00    +0.000 OA
ATOM     11  C   UNL     1       1.510   8.158  20.536  0.00  0.00    +0.000 A 
ATOM     12  N   UNL     1       1.812   6.859  20.823  0.00  0.00    +0.000 N 
ATOM     13  C   UNL     1       2.328   6.277  19.684  0.00  0.00    +0.000 A 
ATOM     14  N   UNL     1       2.406   7.179  18.715  0.00  0.00    +0.000 NA
ATOM     15  C   UNL     1       1.872   8.337  19.224  0.00  0.00    +0.000 A 
ATOM     16  H   UNL     1       1.638   6.386  21.701  0.00  0.00    +0.000 HD
ENDROOT
BRANCH  13  17
ATOM     17  C   UNL     1       2.740   4.872  19.587  0.00  0.00    +0.000 A 
ATOM     18  C   UNL     1       1.747   3.884  19.725  0.00  0.00    +0.000 A 
ATOM     19  C   UNL     1       2.064   2.524  19.684  0.00  0.00    +0.000 A 
ATOM     20  C   UNL     1       3.384   2.125  19.500  0.00  0.00    +0.000 A 
ATOM     21  C   UNL     1       4.383   3.086  19.353  0.00  0.00    +0.000 A 
ATOM     22  C   UNL     1       4.069   4.449  19.400  0.00  0.00    +0.000 A 
ATOM     23 CL   UNL     1       5.402   5.549  19.262  0.00  0.00    +0.000 Cl
ENDBRANCH  13  17
TORSDOF 1
ENDMDL
MODEL 4
REMARK VINA RESULT:      -7.7      6.198      7.046
REMARK  Name = 
REMARK  1 active torsions:
REMARK  status: ('A' for Active; 'I' for Inactive)
REMARK    1  A    between atoms: C_13  and  C_14
REMARK                            x       y       z     vdW  Elec       q    Type
REMARK                         _______ _______ _______ _____ _____    ______ ____
ROOT
ATOM      1  O   UNL     1      -0.497  10.727  17.963  0.00  0.00    +0.000 OA
ATOM      2  C   UNL     1      -0.083  10.282  19.026  0.00  0.00    +0.000 C 
ATOM      3  C   UNL     1      -0.595  10.813  20.332  0.00  0.00    +0.000 A 
ATOM      4  C   UNL     1      -1.547  11.840  20.313  0.00  0.00    +0.000 A 
ATOM      5  C   UNL     1      -2.032  12.368  21.512  0.00  0.00    +0.000 A 
ATOM      6  C   UNL     1      -1.574  11.875  22.734  0.00  0.00    +0.000 A 
ATOM      7  C   UNL     1      -0.631  10.846  22.767  0.00  0.00    +0.000 A 
ATOM      8  C   UNL     1      -0.139  10.310  21.570  0.00  0.00    +0.000 A 
ATOM      9  C   UNL     1       0.868   9.209  21.630  0.00  0.00    +0.000 C 
ATOM     10  O   UNL     1       1.262   8.756  22.696  0.00  0.00    +0.000 OA
ATOM     11  C   UNL     1       1.323   8.748  20.359  0.00  0.00    +0.000 A 
ATOM     12  N   UNL     1       2.221   7.762  20.077  0.00  0.00    +0.000 N 
ATOM     13  C   UNL     1       2.324   7.654  18.706  0.00  0.00    +0.000 A 
ATOM     14  N   UNL     1       1.561   8.570  18.125  0.00  0.00    +0.000 NA
ATOM     15  C   UNL     1       0.914   9.231  19.141  0.00  0.00    +0.000 A 
ATOM     16  H   UNL     1       2.692   7.173  20.752  0.00  0.00    +0.000 HD
ENDROOT
BRANCH  13  17
ATOM     17  C   UNL     1       3.170   6.675  18.014  0.00  0.00    +0.000 A 
ATOM     18  C   UNL     1       4.254   7.161  17.258  0.00  0.00    +0.000 A 
ATOM     19  C   UNL     1       5.082   6.296  16.537  0.00  0.00    +0.000 A 
ATOM     20  C   UNL     1       4.844   4.926  16.562  0.00  0.00    +0.000 A 
ATOM     21  C   UNL     1       3.782   4.422  17.310  0.00  0.00    +0.000 A 
ATOM     22  C   UNL     1       2.946   5.286  18.027  0.00  0.00    +0.000 A 
ATOM     23 CL   UNL     1       1.624   4.549  18.873  0.00  0.00    +0.000 Cl
ENDBRANCH  13  17
TORSDOF 1
ENDMDL
MODEL 5
REMARK VINA RESULT:      -7.6      6.960      8.003
REMARK  Name = 
REMARK  1 active torsions:
REMARK  status: ('A' for Active; 'I' for Inactive)
REMARK    1  A    between atoms: C_13  and  C_14
REMARK                            x       y       z     vdW  Elec       q    Type
REMARK                         _______ _______ _______ _____ _____    ______ ____
ROOT
ATOM      1  O   UNL     1      -0.846  11.212  18.351  0.00  0.00    +0.000 OA
ATOM      2  C   UNL     1      -0.506  10.845  19.469  0.00  0.00    +0.000 C 
ATOM      3  C   UNL     1      -1.069  11.498  20.696  0.00  0.00    +0.000 A 
ATOM      4  C   UNL     1      -1.982  12.548  20.540  0.00  0.00    +0.000 A 
ATOM      5  C   UNL     1      -2.512  13.188  21.662  0.00  0.00    +0.000 A 
ATOM      6  C   UNL     1      -2.138  12.785  22.944  0.00  0.00    +0.000 A 
ATOM      7  C   UNL     1      -1.235  11.734  23.114  0.00  0.00    +0.000 A 
ATOM      8  C   UNL     1      -0.698  11.086  21.995  0.00  0.00    +0.000 A 
ATOM      9  C   UNL     1       0.265   9.964  22.201  0.00  0.00    +0.000 C 
ATOM     10  O   UNL     1       0.585   9.589  23.321  0.00  0.00    +0.000 OA
ATOM     11  C   UNL     1       0.772   9.385  21.000  0.00  0.00    +0.000 A 
ATOM     12  N   UNL     1       1.649   8.352  20.850  0.00  0.00    +0.000 N 
ATOM     13  C   UNL     1       1.822   8.127  19.500  0.00  0.00    +0.000 A 
ATOM     14  N   UNL     1       1.124   9.015  18.805  0.00  0.00    +0.000 NA
ATOM     15  C   UNL     1       0.446   9.777  19.725  0.00  0.00    +0.000 A 
ATOM     16  H   UNL     1       2.062   7.807  21.597  0.00  0.00    +0.000 HD
ENDROOT
BRANCH  13  17
ATOM     17  C   UNL     1       2.670   7.070  18.939  0.00  0.00    +0.000 A 
ATOM     18  C   UNL     1       3.517   7.406  17.866  0.00  0.00    +0.000 A 
ATOM     19  C   UNL     1       4.325   6.446  17.251  0.00  0.00    +0.000 A 
ATOM     20  C   UNL     1       4.304   5.130  17.701  0.00  0.00    +0.000 A 
ATOM     21  C   UNL     1       3.479   4.776  18.767  0.00  0.00    +0.000 A 
ATOM     22  C   UNL     1       2.664   5.733  19.380  0.00  0.00    +0.000 A 
ATOM     23 CL   UNL     1       1.639   5.164  20.658  0.00  0.00    +0.000 Cl
ENDBRANCH  13  17
TORSDOF 1
ENDMDL
MODEL 6
REMARK VINA RESULT:      -7.6      5.417      7.988
REMARK  Name = 
REMARK  1 active torsions:
REMARK  status: ('A' for Active; 'I' for Inactive)
REMARK    1  A    between atoms: C_13  and  C_14
REMARK                            x       y       z     vdW  Elec       q    Type
REMARK                         _______ _______ _______ _____ _____    ______ ____
ROOT
ATOM      1  O   UNL     1       3.473   7.668  17.209  0.00  0.00    +0.000 OA
ATOM      2  C   UNL     1       3.124   6.932  18.124  0.00  0.00    +0.000 C 
ATOM      3  C   UNL     1       3.529   5.489  18.144  0.00  0.00    +0.000 A 
ATOM      4  C   UNL     1       4.303   4.992  17.089  0.00  0.00    +0.000 A 
ATOM      5  C   UNL     1       4.683   3.648  17.069  0.00  0.00    +0.000 A 
ATOM      6  C   UNL     1       4.296   2.793  18.101  0.00  0.00    +0.000 A 
ATOM      7  C   UNL     1       3.530   3.276  19.164  0.00  0.00    +0.000 A 
ATOM      8  C   UNL     1       3.145   4.623  19.192  0.00  0.00    +0.000 A 
ATOM      9  C   UNL     1       2.328   5.118  20.340  0.00  0.00    +0.000 C 
ATOM     10  O   UNL     1       1.999   4.382  21.260  0.00  0.00    +0.000 OA
ATOM     11  C   UNL     1       1.968   6.496  20.264  0.00  0.00    +0.000 A 
ATOM     12  N   UNL     1       1.243   7.242  21.146  0.00  0.00    +0.000 N 
ATOM     13  C   UNL     1       1.175   8.532  20.663  0.00  0.00    +0.000 A 
ATOM     14  N   UNL     1       1.787   8.604  19.489  0.00  0.00    +0.000 NA
ATOM     15  C   UNL     1       2.308   7.356  19.249  0.00  0.00    +0.000 A 
ATOM     16  H   UNL     1       0.865   6.922  22.028  0.00  0.00    +0.000 HD
ENDROOT
BRANCH  13  17
ATOM     17  C   UNL     1       0.505   9.640  21.353  0.00  0.00    +0.000 A 
ATOM     18  C   UNL     1      -0.214   9.345  22.526  0.00  0.00    +0.000 A 
ATOM     19  C   UNL     1      -0.912  10.338  23.219  0.00  0.00    +0.000 A 
ATOM     20  C   UNL     1      -0.900  11.649  22.752  0.00  0.00    +0.000 A 
ATOM     21  C   UNL     1      -0.188  11.965  21.597  0.00  0.00    +0.000 A 
ATOM     22  C   UNL     1       0.507  10.972  20.897  0.00  0.00    +0.000 A 
ATOM     23 CL   UNL     1       1.308  11.474  19.444  0.00  0.00    +0.000 Cl
ENDBRANCH  13  17
TORSDOF 1
ENDMDL
MODEL 7
REMARK VINA RESULT:      -7.6      5.424      8.090
REMARK  Name = 
REMARK  1 active torsions:
REMARK  status: ('A' for Active; 'I' for Inactive)
REMARK    1  A    between atoms: C_13  and  C_14
REMARK                            x       y       z     vdW  Elec       q    Type
REMARK                         _______ _______ _______ _____ _____    ______ ____
ROOT
ATOM      1  O   UNL     1       1.653   4.308  21.121  0.00  0.00    +0.000 OA
ATOM      2  C   UNL     1       2.071   5.082  20.268  0.00  0.00    +0.000 C 
ATOM      3  C   UNL     1       2.891   4.584  19.115  0.00  0.00    +0.000 A 
ATOM      4  C   UNL     1       3.184   3.217  19.039  0.00  0.00    +0.000 A 
ATOM      5  C   UNL     1       3.959   2.723  17.987  0.00  0.00    +0.000 A 
ATOM      6  C   UNL     1       4.444   3.587  17.005  0.00  0.00    +0.000 A 
ATOM      7  C   UNL     1       4.153   4.951  17.065  0.00  0.00    +0.000 A 
ATOM      8  C   UNL     1       3.376   5.455  18.116  0.00  0.00    +0.000 A 
ATOM      9  C   UNL     1       3.076   6.918  18.157  0.00  0.00    +0.000 C 
ATOM     10  O   UNL     1       3.479   7.681  17.291  0.00  0.00    +0.000 OA
ATOM     11  C   UNL     1       2.298   7.334  19.278  0.00  0.00    +0.000 A 
ATOM     12  N   UNL     1       1.855   8.584  19.596  0.00  0.00    +0.000 N 
ATOM     13  C   UNL     1       1.118   8.495  20.758  0.00  0.00    +0.000 A 
ATOM     14  N   UNL     1       1.128   7.246  21.202  0.00  0.00    +0.000 NA
ATOM     15  C   UNL     1       1.830   6.515  20.275  0.00  0.00    +0.000 A 
ATOM     16  H   UNL     1       1.994   9.424  19.048  0.00  0.00    +0.000 HD
ENDROOT
BRANCH  13  17
ATOM     17  C   UNL     1       0.444   9.630  21.400  0.00  0.00    +0.000 A 
ATOM     18  C   UNL     1      -0.271   9.384  22.587  0.00  0.00    +0.000 A 
ATOM     19  C   UNL     1      -0.972  10.404  23.237  0.00  0.00    +0.000 A 
ATOM     20  C   UNL     1      -0.967  11.693  22.712  0.00  0.00    +0.000 A 
ATOM     21  C   UNL     1      -0.259  11.960  21.543  0.00  0.00    +0.000 A 
ATOM     22  C   UNL     1       0.439  10.940  20.886  0.00  0.00    +0.000 A 
ATOM     23 CL   UNL     1       1.235  11.381  19.410  0.00  0.00    +0.000 Cl
ENDBRANCH  13  17
TORSDOF 1
ENDMDL
MODEL 8
REMARK VINA RESULT:      -7.5      4.455      5.146
REMARK  Name = 
REMARK  1 active torsions:
REMARK  status: ('A' for Active; 'I' for Inactive)
REMARK    1  A    between atoms: C_13  and  C_14
REMARK                            x       y       z     vdW  Elec       q    Type
REMARK                         _______ _______ _______ _____ _____    ______ ____
ROOT
ATOM      1  O   UNL     1       1.784   6.129  21.177  0.00  0.00    +0.000 OA
ATOM      2  C   UNL     1       1.856   7.017  20.336  0.00  0.00    +0.000 C 
ATOM      3  C   UNL     1       1.045   8.271  20.473  0.00  0.00    +0.000 A 
ATOM      4  C   UNL     1       0.191   8.403  21.575  0.00  0.00    +0.000 A 
ATOM      5  C   UNL     1      -0.591   9.551  21.723  0.00  0.00    +0.000 A 
ATOM      6  C   UNL     1      -0.523  10.574  20.778  0.00  0.00    +0.000 A 
ATOM      7  C   UNL     1       0.330  10.460  19.679  0.00  0.00    +0.000 A 
ATOM      8  C   UNL     1       1.117   9.312  19.522  0.00  0.00    +0.000 A 
ATOM      9  C   UNL     1       2.024   9.213  18.339  0.00  0.00    +0.000 C 
ATOM     10  O   UNL     1       2.105  10.113  17.514  0.00  0.00    +0.000 OA
ATOM     11  C   UNL     1       2.765   7.997  18.258  0.00  0.00    +0.000 A 
ATOM     12  N   UNL     1       3.673   7.609  17.317  0.00  0.00    +0.000 N 
ATOM     13  C   UNL     1       4.150   6.364  17.669  0.00  0.00    +0.000 A 
ATOM     14  N   UNL     1       3.537   5.942  18.766  0.00  0.00    +0.000 NA
ATOM     15  C   UNL     1       2.701   6.960  19.155  0.00  0.00    +0.000 A 
ATOM     16  H   UNL     1       3.984   8.158  16.525  0.00  0.00    +0.000 HD
ENDROOT
BRANCH  13  17
ATOM     17  C   UNL     1       5.173   5.626  16.918  0.00  0.00    +0.000 A 
ATOM     18  C   UNL     1       4.884   5.274  15.586  0.00  0.00    +0.000 A 
ATOM     19  C   UNL     1       5.789   4.537  14.817  0.00  0.00    +0.000 A 
ATOM     20  C   UNL     1       7.004   4.141  15.366  0.00  0.00    +0.000 A 
ATOM     21  C   UNL     1       7.314   4.485  16.680  0.00  0.00    +0.000 A 
ATOM     22  C   UNL     1       6.407   5.217  17.455  0.00  0.00    +0.000 A 
ATOM     23 CL   UNL     1       6.879   5.537  19.093  0.00  0.00    +0.000 Cl
ENDBRANCH  13  17
TORSDOF 1
ENDMDL
MODEL 9
REMARK VINA RESULT:      -7.4      4.426      4.879
REMARK  Name = 
REMARK  1 active torsions:
REMARK  status: ('A' for Active; 'I' for Inactive)
REMARK    1  A    between atoms: C_13  and  C_14
REMARK                            x       y       z     vdW  Elec       q    Type
REMARK                         _______ _______ _______ _____ _____    ______ ____
ROOT
ATOM      1  O   UNL     1       2.006  10.160  17.489  0.00  0.00    +0.000 OA
ATOM      2  C   UNL     1       1.981   9.255  18.315  0.00  0.00    +0.000 C 
ATOM      3  C   UNL     1       1.094   9.343  19.521  0.00  0.00    +0.000 A 
ATOM      4  C   UNL     1       0.305  10.486  19.695  0.00  0.00    +0.000 A 
ATOM      5  C   UNL     1      -0.519  10.606  20.816  0.00  0.00    +0.000 A 
ATOM      6  C   UNL     1      -0.563   9.587  21.768  0.00  0.00    +0.000 A 
ATOM      7  C   UNL     1       0.213   8.439  21.604  0.00  0.00    +0.000 A 
ATOM      8  C   UNL     1       1.042   8.310  20.483  0.00  0.00    +0.000 A 
ATOM      9  C   UNL     1       1.862   7.071  20.327  0.00  0.00    +0.000 C 
ATOM     10  O   UNL     1       1.817   6.164  21.147  0.00  0.00    +0.000 OA
ATOM     11  C   UNL     1       2.689   7.046  19.166  0.00  0.00    +0.000 A 
ATOM     12  N   UNL     1       3.538   6.068  18.739  0.00  0.00    +0.000 N 
ATOM     13  C   UNL     1       4.103   6.478  17.550  0.00  0.00    +0.000 A 
ATOM     14  N   UNL     1       3.676   7.696  17.247  0.00  0.00    +0.000 NA
ATOM     15  C   UNL     1       2.777   8.043  18.226  0.00  0.00    +0.000 A 
ATOM     16  H   UNL     1       3.689   5.172  19.186  0.00  0.00    +0.000 HD
ENDROOT
BRANCH  13  17
ATOM     17  C   UNL     1       5.047   5.677  16.762  0.00  0.00    +0.000 A 
ATOM     18  C   UNL     1       4.557   4.522  16.124  0.00  0.00    +0.000 A 
ATOM     19  C   UNL     1       5.400   3.685  15.389  0.00  0.00    +0.000 A 
ATOM     20  C   UNL     1       6.753   3.991  15.274  0.00  0.00    +0.000 A 
ATOM     21  C   UNL     1       7.258   5.134  15.890  0.00  0.00    +0.000 A 
ATOM     22  C   UNL     1       6.417   5.970  16.633  0.00  0.00    +0.000 A 
ATOM     23 CL   UNL     1       7.170   7.331  17.401  0.00  0.00    +0.000 Cl
ENDBRANCH  13  17
TORSDOF 1
ENDMDL
