MODEL 1
REMARK VINA RESULT:      -6.8      0.000      0.000
REMARK  Name = 
REMARK  3 active torsions:
REMARK  status: ('A' for Active; 'I' for Inactive)
REMARK    1  A    between atoms: C_1  and  C_2
REMARK    2  A    between atoms: N_7  and  C_8
REMARK    3  A    between atoms: C_8  and  C_9
REMARK                            x       y       z     vdW  Elec       q    Type
REMARK                         _______ _______ _______ _____ _____    ______ ____
ROOT
ATOM      1  C   UNL     1       1.518   2.542  21.758  0.00  0.00    +0.000 C 
ATOM      2  C   UNL     1       1.218   2.762  20.285  0.00  0.00    +0.000 C 
ATOM      3  C   UNL     1       1.066   4.246  19.914  0.00  0.00    +0.000 C 
ATOM      4  C   UNL     1       2.372   4.526  19.217  0.00  0.00    +0.000 C 
ATOM      5  C   UNL     1       2.451   5.647  18.208  0.00  0.00    +0.000 C 
ATOM      6  C   UNL     1       3.849   5.630  17.561  0.00  0.00    +0.000 C 
ATOM      7  N   UNL     1       4.230   4.316  16.986  0.00  0.00    +0.000 NA
ATOM      8  C   UNL     1       4.028   3.195  17.936  0.00  0.00    +0.000 C 
ATOM      9  C   UNL     1       2.609   3.212  18.504  0.00  0.00    +0.000 C 
ATOM     10  O   UNL     1       2.326   2.233  19.509  0.00  0.00    +0.000 OA
ENDROOT
BRANCH   7  11
ATOM     11  C   UNL     1       5.646   4.331  16.539  0.00  0.00    +0.000 C 
BRANCH  11  12
ATOM     12  C   UNL     1       6.570   5.093  17.462  0.00  0.00    +0.000 A 
ATOM     13  N   UNL     1       7.016   4.628  18.615  0.00  0.00    +0.000 NA
ATOM     14  C   UNL     1       7.785   5.590  19.239  0.00  0.00    +0.000 A 
ATOM     15  C   UNL     1       7.950   6.764  18.540  0.00  0.00    +0.000 A 
ATOM     16  S   UNL     1       7.102   6.679  17.054  0.00  0.00    +0.000 S 
ENDBRANCH  11  12
ENDBRANCH   7  11
TORSDOF 2
ENDMDL
MODEL 2
REMARK VINA RESULT:      -6.7      1.035      1.175
REMARK  Name = 
REMARK  3 active torsions:
REMARK  status: ('A' for Active; 'I' for Inactive)
REMARK    1  A    between atoms: C_1  and  C_2
REMARK    2  A    between atoms: N_7  and  C_8
REMARK    3  A    between atoms: C_8  and  C_9
REMARK                            x       y       z     vdW  Elec       q    Type
REMARK                         _______ _______ _______ _____ _____    ______ ____
ROOT
ATOM      1  C   UNL     1       1.866   2.729  21.848  0.00  0.00    +0.000 C 
ATOM      2  C   UNL     1       1.475   2.933  20.394  0.00  0.00    +0.000 C 
ATOM      3  C   UNL     1       1.236   4.407  20.033  0.00  0.00    +0.000 C 
ATOM      4  C   UNL     1       2.487   4.744  19.264  0.00  0.00    +0.000 C 
ATOM      5  C   UNL     1       2.460   5.866  18.253  0.00  0.00    +0.000 C 
ATOM      6  C   UNL     1       3.819   5.909  17.529  0.00  0.00    +0.000 C 
ATOM      7  N   UNL     1       4.226   4.612  16.933  0.00  0.00    +0.000 NA
ATOM      8  C   UNL     1       4.127   3.486  17.893  0.00  0.00    +0.000 C 
ATOM      9  C   UNL     1       2.743   3.441  18.539  0.00  0.00    +0.000 C 
ATOM     10  O   UNL     1       2.560   2.452  19.557  0.00  0.00    +0.000 OA
ENDROOT
BRANCH   7  11
ATOM     11  C   UNL     1       5.612   4.690  16.408  0.00  0.00    +0.000 C 
BRANCH  11  12
ATOM     12  C   UNL     1       6.476   5.712  17.111  0.00  0.00    +0.000 A 
ATOM     13  N   UNL     1       6.662   6.947  16.682  0.00  0.00    +0.000 NA
ATOM     14  C   UNL     1       7.550   7.601  17.513  0.00  0.00    +0.000 A 
ATOM     15  C   UNL     1       8.002   6.872  18.590  0.00  0.00    +0.000 A 
ATOM     16  S   UNL     1       7.312   5.304  18.561  0.00  0.00    +0.000 S 
ENDBRANCH  11  12
ENDBRANCH   7  11
TORSDOF 2
ENDMDL
MODEL 3
REMARK VINA RESULT:      -6.4      2.003      2.618
REMARK  Name = 
REMARK  3 active torsions:
REMARK  status: ('A' for Active; 'I' for Inactive)
REMARK    1  A    between atoms: C_1  and  C_2
REMARK    2  A    between atoms: N_7  and  C_8
REMARK    3  A    between atoms: C_8  and  C_9
REMARK                            x       y       z     vdW  Elec       q    Type
REMARK                         _______ _______ _______ _____ _____    ______ ____
ROOT
ATOM      1  C   UNL     1       2.091   2.765  21.837  0.00  0.00    +0.000 C 
ATOM      2  C   UNL     1       1.904   2.801  20.329  0.00  0.00    +0.000 C 
ATOM      3  C   UNL     1       1.354   4.143  19.820  0.00  0.00    +0.000 C 
ATOM      4  C   UNL     1       2.583   4.773  19.220  0.00  0.00    +0.000 C 
ATOM      5  C   UNL     1       2.431   5.808  18.130  0.00  0.00    +0.000 C 
ATOM      6  C   UNL     1       3.832   6.187  17.612  0.00  0.00    +0.000 C 
ATOM      7  N   UNL     1       4.653   5.025  17.188  0.00  0.00    +0.000 NA
ATOM      8  C   UNL     1       4.694   3.950  18.210  0.00  0.00    +0.000 C 
ATOM      9  C   UNL     1       3.282   3.560  18.647  0.00  0.00    +0.000 C 
ATOM     10  O   UNL     1       3.198   2.598  19.703  0.00  0.00    +0.000 OA
ENDROOT
BRANCH   7  11
ATOM     11  C   UNL     1       6.039   5.452  16.869  0.00  0.00    +0.000 C 
BRANCH  11  12
ATOM     12  C   UNL     1       6.482   5.089  15.470  0.00  0.00    +0.000 A 
ATOM     13  N   UNL     1       7.592   5.529  14.905  0.00  0.00    +0.000 NA
ATOM     14  C   UNL     1       7.671   5.064  13.608  0.00  0.00    +0.000 A 
ATOM     15  C   UNL     1       6.642   4.242  13.207  0.00  0.00    +0.000 A 
ATOM     16  S   UNL     1       5.519   4.053  14.487  0.00  0.00    +0.000 S 
ENDBRANCH  11  12
ENDBRANCH   7  11
TORSDOF 2
ENDMDL
MODEL 4
REMARK VINA RESULT:      -6.3      2.905      5.690
REMARK  Name = 
REMARK  3 active torsions:
REMARK  status: ('A' for Active; 'I' for Inactive)
REMARK    1  A    between atoms: C_1  and  C_2
REMARK    2  A    between atoms: N_7  and  C_8
REMARK    3  A    between atoms: C_8  and  C_9
REMARK                            x       y       z     vdW  Elec       q    Type
REMARK                         _______ _______ _______ _____ _____    ______ ____
ROOT
ATOM      1  C   UNL     1       6.132   3.631  13.564  0.00  0.00    +0.000 C 
ATOM      2  C   UNL     1       6.495   3.934  15.009  0.00  0.00    +0.000 C 
ATOM      3  C   UNL     1       6.621   5.438  15.297  0.00  0.00    +0.000 C 
ATOM      4  C   UNL     1       5.342   5.717  16.043  0.00  0.00    +0.000 C 
ATOM      5  C   UNL     1       5.277   6.887  16.997  0.00  0.00    +0.000 C 
ATOM      6  C   UNL     1       3.913   6.863  17.713  0.00  0.00    +0.000 C 
ATOM      7  N   UNL     1       3.600   5.570  18.371  0.00  0.00    +0.000 NA
ATOM      8  C   UNL     1       3.790   4.408  17.468  0.00  0.00    +0.000 C 
ATOM      9  C   UNL     1       5.179   4.436  16.831  0.00  0.00    +0.000 C 
ATOM     10  O   UNL     1       5.443   3.415  15.863  0.00  0.00    +0.000 OA
ENDROOT
BRANCH   7  11
ATOM     11  C   UNL     1       2.207   5.569  18.886  0.00  0.00    +0.000 C 
BRANCH  11  12
ATOM     12  C   UNL     1       1.956   4.538  19.962  0.00  0.00    +0.000 A 
ATOM     13  N   UNL     1       2.512   4.564  21.160  0.00  0.00    +0.000 NA
ATOM     14  C   UNL     1       2.124   3.451  21.879  0.00  0.00    +0.000 A 
ATOM     15  C   UNL     1       1.245   2.607  21.239  0.00  0.00    +0.000 A 
ATOM     16  S   UNL     1       0.899   3.209  19.672  0.00  0.00    +0.000 S 
ENDBRANCH  11  12
ENDBRANCH   7  11
TORSDOF 2
ENDMDL
MODEL 5
REMARK VINA RESULT:      -6.2      2.466      3.077
REMARK  Name = 
REMARK  3 active torsions:
REMARK  status: ('A' for Active; 'I' for Inactive)
REMARK    1  A    between atoms: C_1  and  C_2
REMARK    2  A    between atoms: N_7  and  C_8
REMARK    3  A    between atoms: C_8  and  C_9
REMARK                            x       y       z     vdW  Elec       q    Type
REMARK                         _______ _______ _______ _____ _____    ______ ____
ROOT
ATOM      1  C   UNL     1       1.543   2.675  20.464  0.00  0.00    +0.000 C 
ATOM      2  C   UNL     1       1.481   3.239  19.054  0.00  0.00    +0.000 C 
ATOM      3  C   UNL     1       1.585   4.772  19.011  0.00  0.00    +0.000 C 
ATOM      4  C   UNL     1       2.999   4.972  18.533  0.00  0.00    +0.000 C 
ATOM      5  C   UNL     1       3.368   6.248  17.815  0.00  0.00    +0.000 C 
ATOM      6  C   UNL     1       4.826   6.136  17.328  0.00  0.00    +0.000 C 
ATOM      7  N   UNL     1       5.098   4.924  16.516  0.00  0.00    +0.000 NA
ATOM      8  C   UNL     1       4.616   3.680  17.165  0.00  0.00    +0.000 C 
ATOM      9  C   UNL     1       3.150   3.812  17.573  0.00  0.00    +0.000 C 
ATOM     10  O   UNL     1       2.601   2.707  18.298  0.00  0.00    +0.000 OA
ENDROOT
BRANCH   7  11
ATOM     11  C   UNL     1       6.550   4.799  16.233  0.00  0.00    +0.000 C 
BRANCH  11  12
ATOM     12  C   UNL     1       6.883   4.747  14.759  0.00  0.00    +0.000 A 
ATOM     13  N   UNL     1       7.843   5.453  14.189  0.00  0.00    +0.000 NA
ATOM     14  C   UNL     1       7.845   5.224  12.828  0.00  0.00    +0.000 A 
ATOM     15  C   UNL     1       6.913   4.316  12.377  0.00  0.00    +0.000 A 
ATOM     16  S   UNL     1       5.983   3.736  13.693  0.00  0.00    +0.000 S 
ENDBRANCH  11  12
ENDBRANCH   7  11
TORSDOF 2
ENDMDL
MODEL 6
REMARK VINA RESULT:      -6.2      2.754      5.803
REMARK  Name = 
REMARK  3 active torsions:
REMARK  status: ('A' for Active; 'I' for Inactive)
REMARK    1  A    between atoms: C_1  and  C_2
REMARK    2  A    between atoms: N_7  and  C_8
REMARK    3  A    between atoms: C_8  and  C_9
REMARK                            x       y       z     vdW  Elec       q    Type
REMARK                         _______ _______ _______ _____ _____    ______ ____
ROOT
ATOM      1  C   UNL     1       6.058   3.655  13.238  0.00  0.00    +0.000 C 
ATOM      2  C   UNL     1       6.461   3.888  14.685  0.00  0.00    +0.000 C 
ATOM      3  C   UNL     1       6.725   5.367  15.008  0.00  0.00    +0.000 C 
ATOM      4  C   UNL     1       5.484   5.742  15.775  0.00  0.00    +0.000 C 
ATOM      5  C   UNL     1       5.535   6.888  16.758  0.00  0.00    +0.000 C 
ATOM      6  C   UNL     1       4.181   6.971  17.488  0.00  0.00    +0.000 C 
ATOM      7  N   UNL     1       3.757   5.696  18.118  0.00  0.00    +0.000 NA
ATOM      8  C   UNL     1       3.832   4.544  17.186  0.00  0.00    +0.000 C 
ATOM      9  C   UNL     1       5.212   4.461  16.533  0.00  0.00    +0.000 C 
ATOM     10  O   UNL     1       5.372   3.445  15.539  0.00  0.00    +0.000 OA
ENDROOT
BRANCH   7  11
ATOM     11  C   UNL     1       2.375   5.808  18.649  0.00  0.00    +0.000 C 
BRANCH  11  12
ATOM     12  C   UNL     1       1.900   4.575  19.384  0.00  0.00    +0.000 A 
ATOM     13  N   UNL     1       1.182   3.613  18.833  0.00  0.00    +0.000 NA
ATOM     14  C   UNL     1       0.862   2.667  19.786  0.00  0.00    +0.000 A 
ATOM     15  C   UNL     1       1.372   2.894  21.045  0.00  0.00    +0.000 A 
ATOM     16  S   UNL     1       2.270   4.354  21.051  0.00  0.00    +0.000 S 
ENDBRANCH  11  12
ENDBRANCH   7  11
TORSDOF 2
ENDMDL
MODEL 7
REMARK VINA RESULT:      -6.2      2.966      6.201
REMARK  Name = 
REMARK  3 active torsions:
REMARK  status: ('A' for Active; 'I' for Inactive)
REMARK    1  A    between atoms: C_1  and  C_2
REMARK    2  A    between atoms: N_7  and  C_8
REMARK    3  A    between atoms: C_8  and  C_9
REMARK                            x       y       z     vdW  Elec       q    Type
REMARK                         _______ _______ _______ _____ _____    ______ ____
ROOT
ATOM      1  C   UNL     1       8.240   8.972  18.082  0.00  0.00    +0.000 C 
ATOM      2  C   UNL     1       7.900   7.654  17.404  0.00  0.00    +0.000 C 
ATOM      3  C   UNL     1       7.918   6.457  18.367  0.00  0.00    +0.000 C 
ATOM      4  C   UNL     1       6.448   6.202  18.572  0.00  0.00    +0.000 C 
ATOM      5  C   UNL     1       5.980   4.822  18.968  0.00  0.00    +0.000 C 
ATOM      6  C   UNL     1       4.439   4.809  18.983  0.00  0.00    +0.000 C 
ATOM      7  N   UNL     1       3.820   5.283  17.720  0.00  0.00    +0.000 NA
ATOM      8  C   UNL     1       4.376   6.579  17.261  0.00  0.00    +0.000 C 
ATOM      9  C   UNL     1       5.902   6.527  17.199  0.00  0.00    +0.000 C 
ATOM     10  O   UNL     1       6.556   7.754  16.862  0.00  0.00    +0.000 OA
ENDROOT
BRANCH   7  11
ATOM     11  C   UNL     1       2.349   5.405  17.872  0.00  0.00    +0.000 C 
BRANCH  11  12
ATOM     12  C   UNL     1       1.711   4.242  18.598  0.00  0.00    +0.000 A 
ATOM     13  N   UNL     1       1.400   3.092  18.028  0.00  0.00    +0.000 NA
ATOM     14  C   UNL     1       0.778   2.270  18.947  0.00  0.00    +0.000 A 
ATOM     15  C   UNL     1       0.655   2.785  20.218  0.00  0.00    +0.000 A 
ATOM     16  S   UNL     1       1.323   4.362  20.272  0.00  0.00    +0.000 S 
ENDBRANCH  11  12
ENDBRANCH   7  11
TORSDOF 2
ENDMDL
MODEL 8
REMARK VINA RESULT:      -6.1      2.818      5.779
REMARK  Name = 
REMARK  3 active torsions:
REMARK  status: ('A' for Active; 'I' for Inactive)
REMARK    1  A    between atoms: C_1  and  C_2
REMARK    2  A    between atoms: N_7  and  C_8
REMARK    3  A    between atoms: C_8  and  C_9
REMARK                            x       y       z     vdW  Elec       q    Type
REMARK                         _______ _______ _______ _____ _____    ______ ____
ROOT
ATOM      1  C   UNL     1       6.350   3.910  12.956  0.00  0.00    +0.000 C 
ATOM      2  C   UNL     1       6.677   4.048  14.434  0.00  0.00    +0.000 C 
ATOM      3  C   UNL     1       6.654   5.505  14.924  0.00  0.00    +0.000 C 
ATOM      4  C   UNL     1       5.351   5.557  15.679  0.00  0.00    +0.000 C 
ATOM      5  C   UNL     1       5.170   6.574  16.780  0.00  0.00    +0.000 C 
ATOM      6  C   UNL     1       3.812   6.324  17.463  0.00  0.00    +0.000 C 
ATOM      7  N   UNL     1       3.623   4.930  17.935  0.00  0.00    +0.000 NA
ATOM      8  C   UNL     1       3.929   3.924  16.889  0.00  0.00    +0.000 C 
ATOM      9  C   UNL     1       5.310   4.171  16.284  0.00  0.00    +0.000 C 
ATOM     10  O   UNL     1       5.676   3.320  15.193  0.00  0.00    +0.000 OA
ENDROOT
BRANCH   7  11
ATOM     11  C   UNL     1       2.235   4.726  18.422  0.00  0.00    +0.000 C 
BRANCH  11  12
ATOM     12  C   UNL     1       2.145   3.886  19.676  0.00  0.00    +0.000 A 
ATOM     13  N   UNL     1       1.095   3.857  20.477  0.00  0.00    +0.000 NA
ATOM     14  C   UNL     1       1.356   3.042  21.559  0.00  0.00    +0.000 A 
ATOM     15  C   UNL     1       2.587   2.425  21.555  0.00  0.00    +0.000 A 
ATOM     16  S   UNL     1       3.464   2.889  20.159  0.00  0.00    +0.000 S 
ENDBRANCH  11  12
ENDBRANCH   7  11
TORSDOF 2
ENDMDL
MODEL 9
REMARK VINA RESULT:      -6.0      2.639      5.604
REMARK  Name = 
REMARK  3 active torsions:
REMARK  status: ('A' for Active; 'I' for Inactive)
REMARK    1  A    between atoms: C_1  and  C_2
REMARK    2  A    between atoms: N_7  and  C_8
REMARK    3  A    between atoms: C_8  and  C_9
REMARK                            x       y       z     vdW  Elec       q    Type
REMARK                         _______ _______ _______ _____ _____    ______ ____
ROOT
ATOM      1  C   UNL     1       7.931   6.944  18.312  0.00  0.00    +0.000 C 
ATOM      2  C   UNL     1       7.063   6.571  17.122  0.00  0.00    +0.000 C 
ATOM      3  C   UNL     1       7.062   5.063  16.823  0.00  0.00    +0.000 C 
ATOM      4  C   UNL     1       5.715   4.644  17.350  0.00  0.00    +0.000 C 
ATOM      5  C   UNL     1       5.047   3.412  16.788  0.00  0.00    +0.000 C 
ATOM      6  C   UNL     1       3.641   3.289  17.406  0.00  0.00    +0.000 C 
ATOM      7  N   UNL     1       2.809   4.509  17.258  0.00  0.00    +0.000 NA
ATOM      8  C   UNL     1       3.516   5.740  17.689  0.00  0.00    +0.000 C 
ATOM      9  C   UNL     1       4.877   5.855  17.004  0.00  0.00    +0.000 C 
ATOM     10  O   UNL     1       5.694   6.954  17.416  0.00  0.00    +0.000 OA
ENDROOT
BRANCH   7  11
ATOM     11  C   UNL     1       1.543   4.376  18.022  0.00  0.00    +0.000 C 
BRANCH  11  12
ATOM     12  C   UNL     1       1.727   3.820  19.416  0.00  0.00    +0.000 A 
ATOM     13  N   UNL     1       1.495   2.564  19.750  0.00  0.00    +0.000 NA
ATOM     14  C   UNL     1       1.698   2.396  21.105  0.00  0.00    +0.000 A 
ATOM     15  C   UNL     1       2.122   3.516  21.785  0.00  0.00    +0.000 A 
ATOM     16  S   UNL     1       2.256   4.837  20.702  0.00  0.00    +0.000 S 
ENDBRANCH  11  12
ENDBRANCH   7  11
TORSDOF 2
ENDMDL
