MODEL 1
REMARK VINA RESULT:      -8.9      0.000      0.000
REMARK  Name = 
REMARK  10 active torsions:
REMARK  status: ('A' for Active; 'I' for Inactive)
REMARK    1  A    between atoms: C_1  and  C_2
REMARK    2  A    between atoms: C_2  and  N_3
REMARK    3  A    between atoms: C_5  and  C_6
REMARK    4  A    between atoms: C_11  and  C_12
REMARK    5  A    between atoms: N_14  and  C_15
REMARK    6  A    between atoms: C_19  and  C_20
REMARK    7  A    between atoms: C_20  and  C_21
REMARK    8  A    between atoms: C_20  and  N_22
REMARK    9  A    between atoms: N_22  and  C_23
REMARK   10  A    between atoms: C_28  and  C_29
REMARK                            x       y       z     vdW  Elec       q    Type
REMARK                         _______ _______ _______ _____ _____    ______ ____
ROOT
ATOM      1  C   UNL     1       1.788   4.847  20.782  0.00  0.00    +0.000 A 
ATOM      2  C   UNL     1       1.914   3.951  21.826  0.00  0.00    +0.000 A 
ATOM      3  C   UNL     1       2.455   2.681  21.561  0.00  0.00    +0.000 A 
ATOM      4  C   UNL     1       2.917   2.299  20.270  0.00  0.00    +0.000 A 
ATOM      5  C   UNL     1       2.820   3.136  19.190  0.00  0.00    +0.000 A 
ATOM      6  C   UNL     1       2.221   4.466  19.472  0.00  0.00    +0.000 A 
ENDROOT
BRANCH   1   9
ATOM      7  C   UNL     1       1.633   7.308  20.504  0.00  0.00    +0.000 C 
ATOM      8  O   UNL     1       2.631   7.320  19.789  0.00  0.00    +0.000 OA
ATOM      9  N   UNL     1       1.190   6.133  21.101  0.00  0.00    +0.000 N 
ATOM     10  H   UNL     1       0.189   6.121  21.288  0.00  0.00    +0.000 HD
BRANCH   7  15
ATOM     11  N   UNL     1       0.621   9.495  19.758  0.00  0.00    +0.000 N 
ATOM     12  N   UNL     1      -0.037  10.585  20.204  0.00  0.00    +0.000 NA
ATOM     13  C   UNL     1      -0.325  10.319  21.484  0.00  0.00    +0.000 A 
ATOM     14  C   UNL     1       0.156   9.019  21.834  0.00  0.00    +0.000 A 
ATOM     15  C   UNL     1       0.833   8.520  20.725  0.00  0.00    +0.000 A 
BRANCH  13  16
ATOM     16  C   UNL     1      -1.029  11.315  22.380  0.00  0.00    +0.000 C 
ATOM     17  F   UNL     1      -1.425  10.804  23.574  0.00  0.00    +0.000 F 
ATOM     18  F   UNL     1      -0.238  12.388  22.656  0.00  0.00    +0.000 F 
ATOM     19  F   UNL     1      -2.147  11.811  21.780  0.00  0.00    +0.000 F 
ENDBRANCH  13  16
BRANCH  11  21
ATOM     20  C   UNL     1       1.993  10.667  18.084  0.00  0.00    +0.000 C 
ATOM     21  C   UNL     1       1.052   9.513  18.368  0.00  0.00    +0.000 C 
ENDBRANCH  11  21
ENDBRANCH   7  15
ENDBRANCH   1   9
BRANCH   5  22
ATOM     22  C   UNL     1       3.368   2.760  17.725  0.00  0.00    +0.000 C 
ATOM     23  C   UNL     1       2.177   2.287  16.864  0.00  0.00    +0.000 C 
BRANCH  22  24
ATOM     24  N   UNL     1       4.310   3.695  16.890  0.00  0.00    +0.000 N 
ATOM     25  H   UNL     1       4.076   4.441  17.579  0.00  0.00    +0.000 HD
BRANCH  24  26
ATOM     26  C   UNL     1       5.090   4.691  16.369  0.00  0.00    +0.000 A 
ATOM     27  N   UNL     1       5.441   4.533  15.095  0.00  0.00    +0.000 NA
ATOM     28  C   UNL     1       6.728   4.861  14.891  0.00  0.00    +0.000 A 
ATOM     29  N   UNL     1       7.619   5.041  15.903  0.00  0.00    +0.000 NA
ATOM     30  C   UNL     1       7.098   5.286  17.148  0.00  0.00    +0.000 A 
ATOM     31  C   UNL     1       7.791   5.906  18.228  0.00  0.00    +0.000 A 
ATOM     32  C   UNL     1       8.043   7.264  18.124  0.00  0.00    +0.000 A 
ATOM     33  C   UNL     1       7.247   7.920  17.215  0.00  0.00    +0.000 A 
ATOM     34  C   UNL     1       6.115   7.177  16.707  0.00  0.00    +0.000 A 
ATOM     35  C   UNL     1       5.852   5.737  17.043  0.00  0.00    +0.000 A 
BRANCH  31  36
ATOM     36  C   UNL     1       7.474   5.456  19.616  0.00  0.00    +0.000 C 
ATOM     37  N   UNL     1       8.535   5.279  20.454  0.00  0.00    +0.000 N 
ATOM     38  O   UNL     1       6.332   5.221  19.985  0.00  0.00    +0.000 OA
ATOM     39  H   UNL     1       9.499   5.354  20.156  0.00  0.00    +0.000 HD
ATOM     40  H   UNL     1       8.339   4.918  21.375  0.00  0.00    +0.000 HD
ENDBRANCH  31  36
ENDBRANCH  24  26
ENDBRANCH  22  24
ENDBRANCH   5  22
TORSDOF 8
ENDMDL
MODEL 2
REMARK VINA RESULT:      -8.8      5.512     11.330
REMARK  Name = 
REMARK  10 active torsions:
REMARK  status: ('A' for Active; 'I' for Inactive)
REMARK    1  A    between atoms: C_1  and  C_2
REMARK    2  A    between atoms: C_2  and  N_3
REMARK    3  A    between atoms: C_5  and  C_6
REMARK    4  A    between atoms: C_11  and  C_12
REMARK    5  A    between atoms: N_14  and  C_15
REMARK    6  A    between atoms: C_19  and  C_20
REMARK    7  A    between atoms: C_20  and  C_21
REMARK    8  A    between atoms: C_20  and  N_22
REMARK    9  A    between atoms: N_22  and  C_23
REMARK   10  A    between atoms: C_28  and  C_29
REMARK                            x       y       z     vdW  Elec       q    Type
REMARK                         _______ _______ _______ _____ _____    ______ ____
ROOT
ATOM      1  C   UNL     1       1.513   8.638  19.352  0.00  0.00    +0.000 A 
ATOM      2  C   UNL     1       1.517   8.507  20.727  0.00  0.00    +0.000 A 
ATOM      3  C   UNL     1       0.596   9.259  21.477  0.00  0.00    +0.000 A 
ATOM      4  C   UNL     1      -0.367  10.115  20.873  0.00  0.00    +0.000 A 
ATOM      5  C   UNL     1      -0.425  10.294  19.515  0.00  0.00    +0.000 A 
ATOM      6  C   UNL     1       0.570   9.518  18.731  0.00  0.00    +0.000 A 
ENDROOT
BRANCH   1   9
ATOM      7  C   UNL     1       2.785   6.545  18.955  0.00  0.00    +0.000 C 
ATOM      8  O   UNL     1       2.296   6.023  19.953  0.00  0.00    +0.000 OA
ATOM      9  N   UNL     1       2.509   7.867  18.625  0.00  0.00    +0.000 N 
ATOM     10  H   UNL     1       2.581   8.064  17.629  0.00  0.00    +0.000 HD
BRANCH   7  15
ATOM     11  N   UNL     1       3.275   4.584  17.443  0.00  0.00    +0.000 N 
ATOM     12  N   UNL     1       4.256   3.991  16.734  0.00  0.00    +0.000 NA
ATOM     13  C   UNL     1       5.294   4.834  16.801  0.00  0.00    +0.000 A 
ATOM     14  C   UNL     1       4.937   5.990  17.562  0.00  0.00    +0.000 A 
ATOM     15  C   UNL     1       3.644   5.786  18.035  0.00  0.00    +0.000 A 
BRANCH  13  16
ATOM     16  C   UNL     1       6.633   4.523  16.168  0.00  0.00    +0.000 C 
ATOM     17  F   UNL     1       6.606   3.477  15.301  0.00  0.00    +0.000 F 
ATOM     18  F   UNL     1       7.123   5.590  15.479  0.00  0.00    +0.000 F 
ATOM     19  F   UNL     1       7.565   4.219  17.114  0.00  0.00    +0.000 F 
ENDBRANCH  13  16
BRANCH  11  21
ATOM     20  C   UNL     1       2.156   2.538  18.229  0.00  0.00    +0.000 C 
ATOM     21  C   UNL     1       2.007   3.875  17.530  0.00  0.00    +0.000 C 
ENDBRANCH  11  21
ENDBRANCH   7  15
ENDBRANCH   1   9
BRANCH   5  22
ATOM     22  C   UNL     1      -1.524  11.218  18.790  0.00  0.00    +0.000 C 
ATOM     23  C   UNL     1      -2.087  10.446  17.577  0.00  0.00    +0.000 C 
BRANCH  22  24
ATOM     24  N   UNL     1      -2.680  11.948  19.557  0.00  0.00    +0.000 N 
ATOM     25  H   UNL     1      -1.931  12.422  20.106  0.00  0.00    +0.000 HD
BRANCH  24  26
ATOM     26  C   UNL     1      -3.482  12.731  20.344  0.00  0.00    +0.000 A 
ATOM     27  N   UNL     1      -3.123  12.811  21.623  0.00  0.00    +0.000 NA
ATOM     28  C   UNL     1      -4.185  12.737  22.441  0.00  0.00    +0.000 A 
ATOM     29  N   UNL     1      -5.417  12.335  22.026  0.00  0.00    +0.000 NA
ATOM     30  C   UNL     1      -5.665  12.397  20.679  0.00  0.00    +0.000 A 
ATOM     31  C   UNL     1      -6.956  12.440  20.076  0.00  0.00    +0.000 A 
ATOM     32  C   UNL     1      -7.679  13.614  20.210  0.00  0.00    +0.000 A 
ATOM     33  C   UNL     1      -6.920  14.714  20.533  0.00  0.00    +0.000 A 
ATOM     34  C   UNL     1      -5.487  14.552  20.428  0.00  0.00    +0.000 A 
ATOM     35  C   UNL     1      -4.825  13.246  20.096  0.00  0.00    +0.000 A 
BRANCH  31  36
ATOM     36  C   UNL     1      -7.137  11.768  18.755  0.00  0.00    +0.000 C 
ATOM     37  N   UNL     1      -7.012  10.410  18.744  0.00  0.00    +0.000 N 
ATOM     38  O   UNL     1      -7.352  12.391  17.725  0.00  0.00    +0.000 OA
ATOM     39  H   UNL     1      -6.725   9.870  19.549  0.00  0.00    +0.000 HD
ATOM     40  H   UNL     1      -7.073   9.950  17.848  0.00  0.00    +0.000 HD
ENDBRANCH  31  36
ENDBRANCH  24  26
ENDBRANCH  22  24
ENDBRANCH   5  22
TORSDOF 8
ENDMDL
MODEL 3
REMARK VINA RESULT:      -8.7      5.260     11.231
REMARK  Name = 
REMARK  10 active torsions:
REMARK  status: ('A' for Active; 'I' for Inactive)
REMARK    1  A    between atoms: C_1  and  C_2
REMARK    2  A    between atoms: C_2  and  N_3
REMARK    3  A    between atoms: C_5  and  C_6
REMARK    4  A    between atoms: C_11  and  C_12
REMARK    5  A    between atoms: N_14  and  C_15
REMARK    6  A    between atoms: C_19  and  C_20
REMARK    7  A    between atoms: C_20  and  C_21
REMARK    8  A    between atoms: C_20  and  N_22
REMARK    9  A    between atoms: N_22  and  C_23
REMARK   10  A    between atoms: C_28  and  C_29
REMARK                            x       y       z     vdW  Elec       q    Type
REMARK                         _______ _______ _______ _____ _____    ______ ____
ROOT
ATOM      1  C   UNL     1       0.811  10.183  18.355  0.00  0.00    +0.000 A 
ATOM      2  C   UNL     1       1.359  11.325  18.905  0.00  0.00    +0.000 A 
ATOM      3  C   UNL     1       0.536  12.451  19.076  0.00  0.00    +0.000 A 
ATOM      4  C   UNL     1      -0.848  12.446  18.744  0.00  0.00    +0.000 A 
ATOM      5  C   UNL     1      -1.456  11.349  18.193  0.00  0.00    +0.000 A 
ATOM      6  C   UNL     1      -0.573  10.172  17.989  0.00  0.00    +0.000 A 
ENDROOT
BRANCH   1   9
ATOM      7  C   UNL     1       1.951   8.140  19.183  0.00  0.00    +0.000 C 
ATOM      8  O   UNL     1       1.513   8.319  20.316  0.00  0.00    +0.000 OA
ATOM      9  N   UNL     1       1.712   9.058  18.166  0.00  0.00    +0.000 N 
ATOM     10  H   UNL     1       1.719   8.648  17.234  0.00  0.00    +0.000 HD
BRANCH   7  15
ATOM     11  N   UNL     1       2.612   5.730  19.534  0.00  0.00    +0.000 N 
ATOM     12  N   UNL     1       3.479   4.781  19.125  0.00  0.00    +0.000 NA
ATOM     13  C   UNL     1       4.130   5.326  18.090  0.00  0.00    +0.000 A 
ATOM     14  C   UNL     1       3.640   6.646  17.844  0.00  0.00    +0.000 A 
ATOM     15  C   UNL     1       2.702   6.927  18.833  0.00  0.00    +0.000 A 
BRANCH  13  16
ATOM     16  C   UNL     1       5.239   4.601  17.359  0.00  0.00    +0.000 C 
ATOM     17  F   UNL     1       5.788   5.311  16.339  0.00  0.00    +0.000 F 
ATOM     18  F   UNL     1       6.259   4.268  18.197  0.00  0.00    +0.000 F 
ATOM     19  F   UNL     1       4.791   3.432  16.821  0.00  0.00    +0.000 F 
ENDBRANCH  13  16
BRANCH  11  21
ATOM     20  C   UNL     1       1.115   4.029  20.496  0.00  0.00    +0.000 C 
ATOM     21  C   UNL     1       1.756   5.394  20.661  0.00  0.00    +0.000 C 
ENDBRANCH  11  21
ENDBRANCH   7  15
ENDBRANCH   1   9
BRANCH   5  22
ATOM     22  C   UNL     1      -3.025  11.287  17.844  0.00  0.00    +0.000 C 
ATOM     23  C   UNL     1      -3.385   9.834  17.467  0.00  0.00    +0.000 C 
BRANCH  22  24
ATOM     24  N   UNL     1      -4.137  11.907  18.759  0.00  0.00    +0.000 N 
ATOM     25  H   UNL     1      -4.780  11.794  17.947  0.00  0.00    +0.000 HD
BRANCH  24  26
ATOM     26  C   UNL     1      -5.278  12.382  19.348  0.00  0.00    +0.000 A 
ATOM     27  N   UNL     1      -5.972  13.256  18.623  0.00  0.00    +0.000 NA
ATOM     28  C   UNL     1      -6.420  14.277  19.373  0.00  0.00    +0.000 A 
ATOM     29  N   UNL     1      -5.970  14.528  20.633  0.00  0.00    +0.000 NA
ATOM     30  C   UNL     1      -5.353  13.492  21.286  0.00  0.00    +0.000 A 
ATOM     31  C   UNL     1      -5.192  13.381  22.697  0.00  0.00    +0.000 A 
ATOM     32  C   UNL     1      -6.325  13.109  23.446  0.00  0.00    +0.000 A 
ATOM     33  C   UNL     1      -7.365  12.572  22.724  0.00  0.00    +0.000 A 
ATOM     34  C   UNL     1      -7.050  12.131  21.383  0.00  0.00    +0.000 A 
ATOM     35  C   UNL     1      -5.707  12.332  20.742  0.00  0.00    +0.000 A 
BRANCH  31  36
ATOM     36  C   UNL     1      -3.956  12.723  23.213  0.00  0.00    +0.000 C 
ATOM     37  N   UNL     1      -4.095  11.970  24.342  0.00  0.00    +0.000 N 
ATOM     38  O   UNL     1      -2.863  12.870  22.682  0.00  0.00    +0.000 OA
ATOM     39  H   UNL     1      -4.954  11.915  24.872  0.00  0.00    +0.000 HD
ATOM     40  H   UNL     1      -3.256  11.570  24.734  0.00  0.00    +0.000 HD
ENDBRANCH  31  36
ENDBRANCH  24  26
ENDBRANCH  22  24
ENDBRANCH   5  22
TORSDOF 8
ENDMDL
MODEL 4
REMARK VINA RESULT:      -8.7      5.370     11.207
REMARK  Name = 
REMARK  10 active torsions:
REMARK  status: ('A' for Active; 'I' for Inactive)
REMARK    1  A    between atoms: C_1  and  C_2
REMARK    2  A    between atoms: C_2  and  N_3
REMARK    3  A    between atoms: C_5  and  C_6
REMARK    4  A    between atoms: C_11  and  C_12
REMARK    5  A    between atoms: N_14  and  C_15
REMARK    6  A    between atoms: C_19  and  C_20
REMARK    7  A    between atoms: C_20  and  C_21
REMARK    8  A    between atoms: C_20  and  N_22
REMARK    9  A    between atoms: N_22  and  C_23
REMARK   10  A    between atoms: C_28  and  C_29
REMARK                            x       y       z     vdW  Elec       q    Type
REMARK                         _______ _______ _______ _____ _____    ______ ____
ROOT
ATOM      1  C   UNL     1       1.302   8.484  20.299  0.00  0.00    +0.000 A 
ATOM      2  C   UNL     1       1.390   8.555  21.676  0.00  0.00    +0.000 A 
ATOM      3  C   UNL     1       0.672   9.562  22.345  0.00  0.00    +0.000 A 
ATOM      4  C   UNL     1      -0.173  10.482  21.663  0.00  0.00    +0.000 A 
ATOM      5  C   UNL     1      -0.305  10.470  20.299  0.00  0.00    +0.000 A 
ATOM      6  C   UNL     1       0.479   9.421  19.597  0.00  0.00    +0.000 A 
ENDROOT
BRANCH   1   9
ATOM      7  C   UNL     1       2.525   7.581  18.338  0.00  0.00    +0.000 C 
ATOM      8  O   UNL     1       2.147   8.513  17.634  0.00  0.00    +0.000 OA
ATOM      9  N   UNL     1       2.092   7.449  19.653  0.00  0.00    +0.000 N 
ATOM     10  H   UNL     1       2.749   6.953  20.253  0.00  0.00    +0.000 HD
BRANCH   7  15
ATOM     11  N   UNL     1       3.197   5.244  17.661  0.00  0.00    +0.000 N 
ATOM     12  N   UNL     1       4.258   4.486  17.320  0.00  0.00    +0.000 NA
ATOM     13  C   UNL     1       5.281   5.343  17.216  0.00  0.00    +0.000 A 
ATOM     14  C   UNL     1       4.834   6.673  17.486  0.00  0.00    +0.000 A 
ATOM     15  C   UNL     1       3.491   6.590  17.844  0.00  0.00    +0.000 A 
BRANCH  13  16
ATOM     16  C   UNL     1       6.688   4.890  16.892  0.00  0.00    +0.000 C 
ATOM     17  F   UNL     1       7.327   4.283  17.925  0.00  0.00    +0.000 F 
ATOM     18  F   UNL     1       6.706   4.012  15.851  0.00  0.00    +0.000 F 
ATOM     19  F   UNL     1       7.469   5.941  16.516  0.00  0.00    +0.000 F 
ENDBRANCH  13  16
BRANCH  11  21
ATOM     20  C   UNL     1       1.888   3.761  19.126  0.00  0.00    +0.000 C 
ATOM     21  C   UNL     1       1.927   4.555  17.835  0.00  0.00    +0.000 C 
ENDBRANCH  11  21
ENDBRANCH   7  15
ENDBRANCH   1   9
BRANCH   5  22
ATOM     22  C   UNL     1      -1.281  11.462  19.494  0.00  0.00    +0.000 C 
ATOM     23  C   UNL     1      -1.565  10.850  18.106  0.00  0.00    +0.000 C 
BRANCH  22  24
ATOM     24  N   UNL     1      -2.594  12.064  20.105  0.00  0.00    +0.000 N 
ATOM     25  H   UNL     1      -2.047  12.938  20.259  0.00  0.00    +0.000 HD
BRANCH  24  26
ATOM     26  C   UNL     1      -3.595  12.827  20.644  0.00  0.00    +0.000 A 
ATOM     27  N   UNL     1      -3.478  13.086  21.944  0.00  0.00    +0.000 NA
ATOM     28  C   UNL     1      -4.657  12.975  22.579  0.00  0.00    +0.000 A 
ATOM     29  N   UNL     1      -5.751  12.389  22.021  0.00  0.00    +0.000 NA
ATOM     30  C   UNL     1      -5.761  12.276  20.654  0.00  0.00    +0.000 A 
ATOM     31  C   UNL     1      -6.922  12.102  19.846  0.00  0.00    +0.000 A 
ATOM     32  C   UNL     1      -7.769  13.190  19.711  0.00  0.00    +0.000 A 
ATOM     33  C   UNL     1      -7.190  14.400  20.014  0.00  0.00    +0.000 A 
ATOM     34  C   UNL     1      -5.751  14.398  20.167  0.00  0.00    +0.000 A 
ATOM     35  C   UNL     1      -4.917  13.150  20.116  0.00  0.00    +0.000 A 
BRANCH  31  36
ATOM     36  C   UNL     1      -6.799  11.275  18.610  0.00  0.00    +0.000 C 
ATOM     37  N   UNL     1      -6.736  11.954  17.429  0.00  0.00    +0.000 N 
ATOM     38  O   UNL     1      -6.788  10.052  18.636  0.00  0.00    +0.000 OA
ATOM     39  H   UNL     1      -6.854  12.956  17.355  0.00  0.00    +0.000 HD
ATOM     40  H   UNL     1      -6.714  11.405  16.583  0.00  0.00    +0.000 HD
ENDBRANCH  31  36
ENDBRANCH  24  26
ENDBRANCH  22  24
ENDBRANCH   5  22
TORSDOF 8
ENDMDL
MODEL 5
REMARK VINA RESULT:      -8.6      5.344     11.021
REMARK  Name = 
REMARK  10 active torsions:
REMARK  status: ('A' for Active; 'I' for Inactive)
REMARK    1  A    between atoms: C_1  and  C_2
REMARK    2  A    between atoms: C_2  and  N_3
REMARK    3  A    between atoms: C_5  and  C_6
REMARK    4  A    between atoms: C_11  and  C_12
REMARK    5  A    between atoms: N_14  and  C_15
REMARK    6  A    between atoms: C_19  and  C_20
REMARK    7  A    between atoms: C_20  and  C_21
REMARK    8  A    between atoms: C_20  and  N_22
REMARK    9  A    between atoms: N_22  and  C_23
REMARK   10  A    between atoms: C_28  and  C_29
REMARK                            x       y       z     vdW  Elec       q    Type
REMARK                         _______ _______ _______ _____ _____    ______ ____
ROOT
ATOM      1  C   UNL     1       0.863   9.292  19.432  0.00  0.00    +0.000 A 
ATOM      2  C   UNL     1       0.923   9.920  20.661  0.00  0.00    +0.000 A 
ATOM      3  C   UNL     1       0.053  10.995  20.911  0.00  0.00    +0.000 A 
ATOM      4  C   UNL     1      -0.917  11.431  19.965  0.00  0.00    +0.000 A 
ATOM      5  C   UNL     1      -1.031  10.856  18.726  0.00  0.00    +0.000 A 
ATOM      6  C   UNL     1      -0.087   9.739  18.459  0.00  0.00    +0.000 A 
ENDROOT
BRANCH   1   9
ATOM      7  C   UNL     1       2.520   8.102  18.019  0.00  0.00    +0.000 C 
ATOM      8  O   UNL     1       2.277   8.835  17.065  0.00  0.00    +0.000 OA
ATOM      9  N   UNL     1       1.809   8.211  19.210  0.00  0.00    +0.000 N 
ATOM     10  H   UNL     1       2.332   7.905  20.028  0.00  0.00    +0.000 HD
BRANCH   7  15
ATOM     11  N   UNL     1       3.462   5.788  18.374  0.00  0.00    +0.000 N 
ATOM     12  N   UNL     1       4.610   5.080  18.364  0.00  0.00    +0.000 NA
ATOM     13  C   UNL     1       5.536   5.924  17.891  0.00  0.00    +0.000 A 
ATOM     14  C   UNL     1       4.938   7.185  17.585  0.00  0.00    +0.000 A 
ATOM     15  C   UNL     1       3.602   7.110  17.969  0.00  0.00    +0.000 A 
BRANCH  13  16
ATOM     16  C   UNL     1       6.993   5.536  17.762  0.00  0.00    +0.000 C 
ATOM     17  F   UNL     1       7.204   4.404  17.042  0.00  0.00    +0.000 F 
ATOM     18  F   UNL     1       7.724   6.520  17.169  0.00  0.00    +0.000 F 
ATOM     19  F   UNL     1       7.557   5.328  18.985  0.00  0.00    +0.000 F 
ENDBRANCH  13  16
BRANCH  11  21
ATOM     20  C   UNL     1       1.622   4.278  17.745  0.00  0.00    +0.000 C 
ATOM     21  C   UNL     1       2.270   5.098  18.844  0.00  0.00    +0.000 C 
ENDBRANCH  11  21
ENDBRANCH   7  15
ENDBRANCH   1   9
BRANCH   5  22
ATOM     22  C   UNL     1      -2.140  11.289  17.646  0.00  0.00    +0.000 C 
ATOM     23  C   UNL     1      -2.197  10.210  16.543  0.00  0.00    +0.000 C 
BRANCH  22  24
ATOM     24  N   UNL     1      -3.587  11.753  18.033  0.00  0.00    +0.000 N 
ATOM     25  H   UNL     1      -3.891  10.782  17.806  0.00  0.00    +0.000 HD
BRANCH  24  26
ATOM     26  C   UNL     1      -4.914  11.888  18.341  0.00  0.00    +0.000 A 
ATOM     27  N   UNL     1      -5.665  12.445  17.394  0.00  0.00    +0.000 NA
ATOM     28  C   UNL     1      -6.539  13.326  17.909  0.00  0.00    +0.000 A 
ATOM     29  N   UNL     1      -6.457  13.797  19.183  0.00  0.00    +0.000 NA
ATOM     30  C   UNL     1      -5.715  13.057  20.068  0.00  0.00    +0.000 A 
ATOM     31  C   UNL     1      -5.829  13.107  21.488  0.00  0.00    +0.000 A 
ATOM     32  C   UNL     1      -6.964  12.549  22.053  0.00  0.00    +0.000 A 
ATOM     33  C   UNL     1      -7.626  11.661  21.237  0.00  0.00    +0.000 A 
ATOM     34  C   UNL     1      -6.921  11.245  20.045  0.00  0.00    +0.000 A 
ATOM     35  C   UNL     1      -5.592  11.808  19.631  0.00  0.00    +0.000 A 
BRANCH  31  36
ATOM     36  C   UNL     1      -4.591  12.909  22.298  0.00  0.00    +0.000 C 
ATOM     37  N   UNL     1      -4.757  12.359  23.535  0.00  0.00    +0.000 N 
ATOM     38  O   UNL     1      -3.485  13.249  21.901  0.00  0.00    +0.000 OA
ATOM     39  H   UNL     1      -5.663  12.168  23.943  0.00  0.00    +0.000 HD
ATOM     40  H   UNL     1      -3.937  12.275  24.115  0.00  0.00    +0.000 HD
ENDBRANCH  31  36
ENDBRANCH  24  26
ENDBRANCH  22  24
ENDBRANCH   5  22
TORSDOF 8
ENDMDL
MODEL 6
REMARK VINA RESULT:      -8.6      5.378     11.215
REMARK  Name = 
REMARK  10 active torsions:
REMARK  status: ('A' for Active; 'I' for Inactive)
REMARK    1  A    between atoms: C_1  and  C_2
REMARK    2  A    between atoms: C_2  and  N_3
REMARK    3  A    between atoms: C_5  and  C_6
REMARK    4  A    between atoms: C_11  and  C_12
REMARK    5  A    between atoms: N_14  and  C_15
REMARK    6  A    between atoms: C_19  and  C_20
REMARK    7  A    between atoms: C_20  and  C_21
REMARK    8  A    between atoms: C_20  and  N_22
REMARK    9  A    between atoms: N_22  and  C_23
REMARK   10  A    between atoms: C_28  and  C_29
REMARK                            x       y       z     vdW  Elec       q    Type
REMARK                         _______ _______ _______ _____ _____    ______ ____
ROOT
ATOM      1  C   UNL     1       1.515   8.490  19.863  0.00  0.00    +0.000 A 
ATOM      2  C   UNL     1       1.423   8.447  21.241  0.00  0.00    +0.000 A 
ATOM      3  C   UNL     1       0.509   9.302  21.881  0.00  0.00    +0.000 A 
ATOM      4  C   UNL     1      -0.354  10.177  21.162  0.00  0.00    +0.000 A 
ATOM      5  C   UNL     1      -0.315  10.272  19.796  0.00  0.00    +0.000 A 
ATOM      6  C   UNL     1       0.674   9.386  19.129  0.00  0.00    +0.000 A 
ENDROOT
BRANCH   1   9
ATOM      7  C   UNL     1       2.477   6.238  19.462  0.00  0.00    +0.000 C 
ATOM      8  O   UNL     1       1.706   5.731  20.272  0.00  0.00    +0.000 OA
ATOM      9  N   UNL     1       2.500   7.612  19.253  0.00  0.00    +0.000 N 
ATOM     10  H   UNL     1       2.815   7.880  18.322  0.00  0.00    +0.000 HD
BRANCH   7  15
ATOM     11  N   UNL     1       3.448   4.030  18.720  0.00  0.00    +0.000 N 
ATOM     12  N   UNL     1       4.425   3.482  17.968  0.00  0.00    +0.000 NA
ATOM     13  C   UNL     1       4.986   4.511  17.321  0.00  0.00    +0.000 A 
ATOM     14  C   UNL     1       4.327   5.729  17.674  0.00  0.00    +0.000 A 
ATOM     15  C   UNL     1       3.374   5.416  18.638  0.00  0.00    +0.000 A 
BRANCH  13  16
ATOM     16  C   UNL     1       6.170   4.336  16.395  0.00  0.00    +0.000 C 
ATOM     17  F   UNL     1       7.358   4.183  17.035  0.00  0.00    +0.000 F 
ATOM     18  F   UNL     1       6.018   3.252  15.585  0.00  0.00    +0.000 F 
ATOM     19  F   UNL     1       6.311   5.411  15.569  0.00  0.00    +0.000 F 
ENDBRANCH  13  16
BRANCH  11  21
ATOM     20  C   UNL     1       1.781   2.220  18.685  0.00  0.00    +0.000 C 
ATOM     21  C   UNL     1       2.658   3.120  19.534  0.00  0.00    +0.000 C 
ENDBRANCH  11  21
ENDBRANCH   7  15
ENDBRANCH   1   9
BRANCH   5  22
ATOM     22  C   UNL     1      -1.301  11.214  18.944  0.00  0.00    +0.000 C 
ATOM     23  C   UNL     1      -1.726  10.452  17.671  0.00  0.00    +0.000 C 
BRANCH  22  24
ATOM     24  N   UNL     1      -2.527  11.966  19.567  0.00  0.00    +0.000 N 
ATOM     25  H   UNL     1      -1.874  12.281  20.315  0.00  0.00    +0.000 HD
BRANCH  24  26
ATOM     26  C   UNL     1      -3.409  12.728  20.285  0.00  0.00    +0.000 A 
ATOM     27  N   UNL     1      -3.094  12.911  21.566  0.00  0.00    +0.000 NA
ATOM     28  C   UNL     1      -4.171  12.801  22.362  0.00  0.00    +0.000 A 
ATOM     29  N   UNL     1      -5.356  12.281  21.942  0.00  0.00    +0.000 NA
ATOM     30  C   UNL     1      -5.570  12.244  20.588  0.00  0.00    +0.000 A 
ATOM     31  C   UNL     1      -6.842  12.151  19.952  0.00  0.00    +0.000 A 
ATOM     32  C   UNL     1      -7.657  13.271  19.999  0.00  0.00    +0.000 A 
ATOM     33  C   UNL     1      -6.994  14.443  20.274  0.00  0.00    +0.000 A 
ATOM     34  C   UNL     1      -5.550  14.389  20.213  0.00  0.00    +0.000 A 
ATOM     35  C   UNL     1      -4.780  13.121  19.976  0.00  0.00    +0.000 A 
BRANCH  31  36
ATOM     36  C   UNL     1      -6.933  11.391  18.671  0.00  0.00    +0.000 C 
ATOM     37  N   UNL     1      -7.062  12.132  17.534  0.00  0.00    +0.000 N 
ATOM     38  O   UNL     1      -6.928  10.168  18.632  0.00  0.00    +0.000 OA
ATOM     39  H   UNL     1      -7.182  13.136  17.533  0.00  0.00    +0.000 HD
ATOM     40  H   UNL     1      -7.184  11.628  16.668  0.00  0.00    +0.000 HD
ENDBRANCH  31  36
ENDBRANCH  24  26
ENDBRANCH  22  24
ENDBRANCH   5  22
TORSDOF 8
ENDMDL
MODEL 7
REMARK VINA RESULT:      -8.6      5.302     11.351
REMARK  Name = 
REMARK  10 active torsions:
REMARK  status: ('A' for Active; 'I' for Inactive)
REMARK    1  A    between atoms: C_1  and  C_2
REMARK    2  A    between atoms: C_2  and  N_3
REMARK    3  A    between atoms: C_5  and  C_6
REMARK    4  A    between atoms: C_11  and  C_12
REMARK    5  A    between atoms: N_14  and  C_15
REMARK    6  A    between atoms: C_19  and  C_20
REMARK    7  A    between atoms: C_20  and  C_21
REMARK    8  A    between atoms: C_20  and  N_22
REMARK    9  A    between atoms: N_22  and  C_23
REMARK   10  A    between atoms: C_28  and  C_29
REMARK                            x       y       z     vdW  Elec       q    Type
REMARK                         _______ _______ _______ _____ _____    ______ ____
ROOT
ATOM      1  C   UNL     1       1.344   9.707  18.102  0.00  0.00    +0.000 A 
ATOM      2  C   UNL     1       2.265  10.717  18.304  0.00  0.00    +0.000 A 
ATOM      3  C   UNL     1       1.796  12.031  18.475  0.00  0.00    +0.000 A 
ATOM      4  C   UNL     1       0.410  12.354  18.490  0.00  0.00    +0.000 A 
ATOM      5  C   UNL     1      -0.557  11.403  18.294  0.00  0.00    +0.000 A 
ATOM      6  C   UNL     1      -0.052  10.021  18.086  0.00  0.00    +0.000 A 
ENDROOT
BRANCH   1   9
ATOM      7  C   UNL     1       2.161   7.528  18.964  0.00  0.00    +0.000 C 
ATOM      8  O   UNL     1       2.089   7.926  20.123  0.00  0.00    +0.000 OA
ATOM      9  N   UNL     1       1.882   8.372  17.895  0.00  0.00    +0.000 N 
ATOM     10  H   UNL     1       1.550   7.885  17.064  0.00  0.00    +0.000 HD
BRANCH   7  15
ATOM     11  N   UNL     1       3.541   5.753  17.818  0.00  0.00    +0.000 N 
ATOM     12  N   UNL     1       3.597   4.430  17.564  0.00  0.00    +0.000 NA
ATOM     13  C   UNL     1       2.602   3.894  18.283  0.00  0.00    +0.000 A 
ATOM     14  C   UNL     1       1.923   4.917  19.015  0.00  0.00    +0.000 A 
ATOM     15  C   UNL     1       2.496   6.132  18.651  0.00  0.00    +0.000 A 
BRANCH  13  16
ATOM     16  C   UNL     1       2.282   2.416  18.248  0.00  0.00    +0.000 C 
ATOM     17  F   UNL     1       2.973   1.677  19.155  0.00  0.00    +0.000 F 
ATOM     18  F   UNL     1       0.961   2.182  18.476  0.00  0.00    +0.000 F 
ATOM     19  F   UNL     1       2.557   1.883  17.024  0.00  0.00    +0.000 F 
ENDBRANCH  13  16
BRANCH  11  21
ATOM     20  C   UNL     1       5.945   6.223  17.571  0.00  0.00    +0.000 C 
ATOM     21  C   UNL     1       4.532   6.590  17.158  0.00  0.00    +0.000 C 
ENDBRANCH  11  21
ENDBRANCH   7  15
ENDBRANCH   1   9
BRANCH   5  22
ATOM     22  C   UNL     1      -2.133  11.718  18.347  0.00  0.00    +0.000 C 
ATOM     23  C   UNL     1      -2.900  10.445  17.929  0.00  0.00    +0.000 C 
BRANCH  22  24
ATOM     24  N   UNL     1      -2.835  12.403  19.570  0.00  0.00    +0.000 N 
ATOM     25  H   UNL     1      -3.584  12.685  18.902  0.00  0.00    +0.000 HD
BRANCH  24  26
ATOM     26  C   UNL     1      -3.658  13.041  20.459  0.00  0.00    +0.000 A 
ATOM     27  N   UNL     1      -3.248  13.027  21.725  0.00  0.00    +0.000 NA
ATOM     28  C   UNL     1      -4.264  12.791  22.572  0.00  0.00    +0.000 A 
ATOM     29  N   UNL     1      -5.480  12.334  22.166  0.00  0.00    +0.000 NA
ATOM     30  C   UNL     1      -5.793  12.504  20.841  0.00  0.00    +0.000 A 
ATOM     31  C   UNL     1      -7.109  12.503  20.295  0.00  0.00    +0.000 A 
ATOM     32  C   UNL     1      -7.912  13.597  20.571  0.00  0.00    +0.000 A 
ATOM     33  C   UNL     1      -7.224  14.718  20.973  0.00  0.00    +0.000 A 
ATOM     34  C   UNL     1      -5.788  14.681  20.798  0.00  0.00    +0.000 A 
ATOM     35  C   UNL     1      -5.045  13.469  20.314  0.00  0.00    +0.000 A 
BRANCH  31  36
ATOM     36  C   UNL     1      -7.298  11.947  18.922  0.00  0.00    +0.000 C 
ATOM     37  N   UNL     1      -7.101  10.605  18.778  0.00  0.00    +0.000 N 
ATOM     38  O   UNL     1      -7.581  12.650  17.962  0.00  0.00    +0.000 OA
ATOM     39  H   UNL     1      -6.758  10.010  19.520  0.00  0.00    +0.000 HD
ATOM     40  H   UNL     1      -7.167  10.228  17.845  0.00  0.00    +0.000 HD
ENDBRANCH  31  36
ENDBRANCH  24  26
ENDBRANCH  22  24
ENDBRANCH   5  22
TORSDOF 8
ENDMDL
MODEL 8
REMARK VINA RESULT:      -8.6      2.928      5.041
REMARK  Name = 
REMARK  10 active torsions:
REMARK  status: ('A' for Active; 'I' for Inactive)
REMARK    1  A    between atoms: C_1  and  C_2
REMARK    2  A    between atoms: C_2  and  N_3
REMARK    3  A    between atoms: C_5  and  C_6
REMARK    4  A    between atoms: C_11  and  C_12
REMARK    5  A    between atoms: N_14  and  C_15
REMARK    6  A    between atoms: C_19  and  C_20
REMARK    7  A    between atoms: C_20  and  C_21
REMARK    8  A    between atoms: C_20  and  N_22
REMARK    9  A    between atoms: N_22  and  C_23
REMARK   10  A    between atoms: C_28  and  C_29
REMARK                            x       y       z     vdW  Elec       q    Type
REMARK                         _______ _______ _______ _____ _____    ______ ____
ROOT
ATOM      1  C   UNL     1      -0.052  10.474  20.246  0.00  0.00    +0.000 A 
ATOM      2  C   UNL     1       0.026  10.935  18.946  0.00  0.00    +0.000 A 
ATOM      3  C   UNL     1       0.830  10.234  18.030  0.00  0.00    +0.000 A 
ATOM      4  C   UNL     1       1.529   9.045  18.379  0.00  0.00    +0.000 A 
ATOM      5  C   UNL     1       1.498   8.533  19.650  0.00  0.00    +0.000 A 
ATOM      6  C   UNL     1       0.670   9.296  20.619  0.00  0.00    +0.000 A 
ENDROOT
BRANCH   1   9
ATOM      7  C   UNL     1      -0.391  12.431  21.733  0.00  0.00    +0.000 C 
ATOM      8  O   UNL     1       0.777  12.782  21.588  0.00  0.00    +0.000 OA
ATOM      9  N   UNL     1      -0.866  11.255  21.163  0.00  0.00    +0.000 N 
ATOM     10  H   UNL     1      -1.865  11.270  20.965  0.00  0.00    +0.000 HD
BRANCH   7  15
ATOM     11  N   UNL     1      -2.553  13.717  21.938  0.00  0.00    +0.000 N 
ATOM     12  N   UNL     1      -3.229  14.565  22.739  0.00  0.00    +0.000 NA
ATOM     13  C   UNL     1      -2.503  14.638  23.862  0.00  0.00    +0.000 A 
ATOM     14  C   UNL     1      -1.351  13.799  23.755  0.00  0.00    +0.000 A 
ATOM     15  C   UNL     1      -1.355  13.258  22.472  0.00  0.00    +0.000 A 
BRANCH  13  16
ATOM     16  C   UNL     1      -2.890  15.531  25.020  0.00  0.00    +0.000 C 
ATOM     17  F   UNL     1      -4.209  15.854  25.055  0.00  0.00    +0.000 F 
ATOM     18  F   UNL     1      -2.596  14.956  26.219  0.00  0.00    +0.000 F 
ATOM     19  F   UNL     1      -2.204  16.708  24.984  0.00  0.00    +0.000 F 
ENDBRANCH  13  16
BRANCH  11  21
ATOM     20  C   UNL     1      -4.649  13.484  20.669  0.00  0.00    +0.000 C 
ATOM     21  C   UNL     1      -3.133  13.446  20.632  0.00  0.00    +0.000 C 
ENDBRANCH  11  21
ENDBRANCH   7  15
ENDBRANCH   1   9
BRANCH   5  22
ATOM     22  C   UNL     1       2.239   7.169  20.074  0.00  0.00    +0.000 C 
ATOM     23  C   UNL     1       1.261   6.325  20.920  0.00  0.00    +0.000 C 
BRANCH  22  24
ATOM     24  N   UNL     1       3.014   6.257  19.061  0.00  0.00    +0.000 N 
ATOM     25  H   UNL     1       2.245   6.460  18.387  0.00  0.00    +0.000 HD
BRANCH  24  26
ATOM     26  C   UNL     1       3.500   5.549  17.995  0.00  0.00    +0.000 A 
ATOM     27  N   UNL     1       2.750   4.520  17.605  0.00  0.00    +0.000 NA
ATOM     28  C   UNL     1       3.499   3.444  17.313  0.00  0.00    +0.000 A 
ATOM     29  N   UNL     1       4.811   3.335  17.657  0.00  0.00    +0.000 NA
ATOM     30  C   UNL     1       5.473   4.502  17.945  0.00  0.00    +0.000 A 
ATOM     31  C   UNL     1       6.886   4.682  17.911  0.00  0.00    +0.000 A 
ATOM     32  C   UNL     1       7.492   4.706  16.666  0.00  0.00    +0.000 A 
ATOM     33  C   UNL     1       6.636   4.972  15.624  0.00  0.00    +0.000 A 
ATOM     34  C   UNL     1       5.316   5.439  15.987  0.00  0.00    +0.000 A 
ATOM     35  C   UNL     1       4.835   5.536  17.406  0.00  0.00    +0.000 A 
BRANCH  31  36
ATOM     36  C   UNL     1       7.498   5.619  18.899  0.00  0.00    +0.000 C 
ATOM     37  N   UNL     1       7.966   6.801  18.405  0.00  0.00    +0.000 N 
ATOM     38  O   UNL     1       7.611   5.341  20.085  0.00  0.00    +0.000 OA
ATOM     39  H   UNL     1       7.993   7.021  17.418  0.00  0.00    +0.000 HD
ATOM     40  H   UNL     1       8.436   7.416  19.052  0.00  0.00    +0.000 HD
ENDBRANCH  31  36
ENDBRANCH  24  26
ENDBRANCH  22  24
ENDBRANCH   5  22
TORSDOF 8
ENDMDL
MODEL 9
REMARK VINA RESULT:      -8.5      5.207     11.021
REMARK  Name = 
REMARK  10 active torsions:
REMARK  status: ('A' for Active; 'I' for Inactive)
REMARK    1  A    between atoms: C_1  and  C_2
REMARK    2  A    between atoms: C_2  and  N_3
REMARK    3  A    between atoms: C_5  and  C_6
REMARK    4  A    between atoms: C_11  and  C_12
REMARK    5  A    between atoms: N_14  and  C_15
REMARK    6  A    between atoms: C_19  and  C_20
REMARK    7  A    between atoms: C_20  and  C_21
REMARK    8  A    between atoms: C_20  and  N_22
REMARK    9  A    between atoms: N_22  and  C_23
REMARK   10  A    between atoms: C_28  and  C_29
REMARK                            x       y       z     vdW  Elec       q    Type
REMARK                         _______ _______ _______ _____ _____    ______ ____
ROOT
ATOM      1  C   UNL     1       1.561   8.317  20.292  0.00  0.00    +0.000 A 
ATOM      2  C   UNL     1       1.192   8.171  21.615  0.00  0.00    +0.000 A 
ATOM      3  C   UNL     1       0.107   8.924  22.098  0.00  0.00    +0.000 A 
ATOM      4  C   UNL     1      -0.651   9.796  21.267  0.00  0.00    +0.000 A 
ATOM      5  C   UNL     1      -0.338   9.991  19.947  0.00  0.00    +0.000 A 
ATOM      6  C   UNL     1       0.827   9.213  19.451  0.00  0.00    +0.000 A 
ENDROOT
BRANCH   1   9
ATOM      7  C   UNL     1       2.565   6.276  19.302  0.00  0.00    +0.000 C 
ATOM      8  O   UNL     1       1.476   5.709  19.291  0.00  0.00    +0.000 OA
ATOM      9  N   UNL     1       2.711   7.545  19.851  0.00  0.00    +0.000 N 
ATOM     10  H   UNL     1       3.476   8.081  19.446  0.00  0.00    +0.000 HD
BRANCH   7  15
ATOM     11  N   UNL     1       4.188   4.372  18.965  0.00  0.00    +0.000 N 
ATOM     12  N   UNL     1       5.368   4.053  18.397  0.00  0.00    +0.000 NA
ATOM     13  C   UNL     1       5.714   5.129  17.681  0.00  0.00    +0.000 A 
ATOM     14  C   UNL     1       4.709   6.139  17.798  0.00  0.00    +0.000 A 
ATOM     15  C   UNL     1       3.754   5.664  18.692  0.00  0.00    +0.000 A 
BRANCH  13  16
ATOM     16  C   UNL     1       7.016   5.207  16.913  0.00  0.00    +0.000 C 
ATOM     17  F   UNL     1       6.935   4.746  15.637  0.00  0.00    +0.000 F 
ATOM     18  F   UNL     1       7.481   6.484  16.839  0.00  0.00    +0.000 F 
ATOM     19  F   UNL     1       7.993   4.481  17.526  0.00  0.00    +0.000 F 
ENDBRANCH  13  16
BRANCH  11  21
ATOM     20  C   UNL     1       3.210   2.114  19.020  0.00  0.00    +0.000 C 
ATOM     21  C   UNL     1       3.569   3.360  19.807  0.00  0.00    +0.000 C 
ENDBRANCH  11  21
ENDBRANCH   7  15
ENDBRANCH   1   9
BRANCH   5  22
ATOM     22  C   UNL     1      -1.194  10.933  18.964  0.00  0.00    +0.000 C 
ATOM     23  C   UNL     1      -1.709  10.074  17.788  0.00  0.00    +0.000 C 
BRANCH  22  24
ATOM     24  N   UNL     1      -2.317  11.907  19.463  0.00  0.00    +0.000 N 
ATOM     25  H   UNL     1      -2.095  11.570  20.423  0.00  0.00    +0.000 HD
BRANCH  24  26
ATOM     26  C   UNL     1      -3.207  12.686  20.151  0.00  0.00    +0.000 A 
ATOM     27  N   UNL     1      -2.834  13.025  21.383  0.00  0.00    +0.000 NA
ATOM     28  C   UNL     1      -3.855  12.935  22.252  0.00  0.00    +0.000 A 
ATOM     29  N   UNL     1      -5.023  12.300  21.965  0.00  0.00    +0.000 NA
ATOM     30  C   UNL     1      -5.309  12.104  20.638  0.00  0.00    +0.000 A 
ATOM     31  C   UNL     1      -6.606  11.864  20.097  0.00  0.00    +0.000 A 
ATOM     32  C   UNL     1      -7.492  12.929  20.077  0.00  0.00    +0.000 A 
ATOM     33  C   UNL     1      -6.897  14.163  20.186  0.00  0.00    +0.000 A 
ATOM     34  C   UNL     1      -5.457  14.192  20.041  0.00  0.00    +0.000 A 
ATOM     35  C   UNL     1      -4.617  12.957  19.889  0.00  0.00    +0.000 A 
BRANCH  31  36
ATOM     36  C   UNL     1      -6.716  10.965  18.911  0.00  0.00    +0.000 C 
ATOM     37  N   UNL     1      -6.788  11.574  17.693  0.00  0.00    +0.000 N 
ATOM     38  O   UNL     1      -6.774   9.747  19.013  0.00  0.00    +0.000 OA
ATOM     39  H   UNL     1      -6.856  12.576  17.574  0.00  0.00    +0.000 HD
ATOM     40  H   UNL     1      -6.923  10.980  16.889  0.00  0.00    +0.000 HD
ENDBRANCH  31  36
ENDBRANCH  24  26
ENDBRANCH  22  24
ENDBRANCH   5  22
TORSDOF 8
ENDMDL
