MODEL 1
REMARK VINA RESULT:      -5.8      0.000      0.000
REMARK  Name = 
REMARK  5 active torsions:
REMARK  status: ('A' for Active; 'I' for Inactive)
REMARK    1  A    between atoms: C_1  and  C_2
REMARK    2  A    between atoms: C_2  and  C_3
REMARK    3  A    between atoms: C_2  and  O_4
REMARK    4  A    between atoms: O_4  and  C_5
REMARK    5  A    between atoms: C_5  and  C_6
REMARK                            x       y       z     vdW  Elec       q    Type
REMARK                         _______ _______ _______ _____ _____    ______ ____
ROOT
ATOM      1  C   UNL     1       5.657   4.425  16.686  0.00  0.00    +0.000 C 
ATOM      2  O   UNL     1       4.843   4.902  15.897  0.00  0.00    +0.000 OA
ATOM      3  N   UNL     1       5.398   3.616  17.770  0.00  0.00    +0.000 N 
ATOM      4  C   UNL     1       4.136   3.187  18.063  0.00  0.00    +0.000 A 
ATOM      5  N   UNL     1       3.050   3.265  17.340  0.00  0.00    +0.000 NA
ATOM      6  C   UNL     1       1.990   2.742  18.050  0.00  0.00    +0.000 A 
ATOM      7  C   UNL     1       2.289   2.294  19.319  0.00  0.00    +0.000 A 
ATOM      8  S   UNL     1       3.976   2.459  19.600  0.00  0.00    +0.000 S 
ATOM      9  H   UNL     1       6.138   3.365  18.407  0.00  0.00    +0.000 HD
ENDROOT
BRANCH   1  10
ATOM     10  C   UNL     1       7.150   4.715  16.527  0.00  0.00    +0.000 C 
BRANCH  10  11
ATOM     11  O   UNL     1       7.488   6.094  16.515  0.00  0.00    +0.000 OA
BRANCH  11  13
ATOM     12  C   UNL     1       7.902   6.063  18.946  0.00  0.00    +0.000 C 
ATOM     13  C   UNL     1       7.256   6.774  17.760  0.00  0.00    +0.000 C 
ATOM     14  C   UNL     1       7.839   8.175  17.611  0.00  0.00    +0.000 C 
ENDBRANCH  11  13
ENDBRANCH  10  11
ENDBRANCH   1  10
TORSDOF 3
ENDMDL
MODEL 2
REMARK VINA RESULT:      -5.6      2.712      5.603
REMARK  Name = 
REMARK  5 active torsions:
REMARK  status: ('A' for Active; 'I' for Inactive)
REMARK    1  A    between atoms: C_1  and  C_2
REMARK    2  A    between atoms: C_2  and  C_3
REMARK    3  A    between atoms: C_2  and  O_4
REMARK    4  A    between atoms: O_4  and  C_5
REMARK    5  A    between atoms: C_5  and  C_6
REMARK                            x       y       z     vdW  Elec       q    Type
REMARK                         _______ _______ _______ _____ _____    ______ ____
ROOT
ATOM      1  C   UNL     1       4.166   2.952  19.263  0.00  0.00    +0.000 C 
ATOM      2  O   UNL     1       5.022   2.534  20.040  0.00  0.00    +0.000 OA
ATOM      3  N   UNL     1       4.288   3.984  18.359  0.00  0.00    +0.000 N 
ATOM      4  C   UNL     1       5.464   4.653  18.183  0.00  0.00    +0.000 A 
ATOM      5  N   UNL     1       6.657   4.354  18.628  0.00  0.00    +0.000 NA
ATOM      6  C   UNL     1       7.547   5.335  18.245  0.00  0.00    +0.000 A 
ATOM      7  C   UNL     1       7.004   6.381  17.529  0.00  0.00    +0.000 A 
ATOM      8  S   UNL     1       5.334   6.082  17.257  0.00  0.00    +0.000 S 
ATOM      9  H   UNL     1       3.484   4.306  17.841  0.00  0.00    +0.000 HD
ENDROOT
BRANCH   1  10
ATOM     10  C   UNL     1       2.775   2.318  19.230  0.00  0.00    +0.000 C 
BRANCH  10  11
ATOM     11  O   UNL     1       1.707   3.241  19.076  0.00  0.00    +0.000 OA
BRANCH  11  13
ATOM     12  C   UNL     1       1.435   2.711  21.469  0.00  0.00    +0.000 C 
ATOM     13  C   UNL     1       1.079   3.635  20.307  0.00  0.00    +0.000 C 
ATOM     14  C   UNL     1       1.549   5.054  20.606  0.00  0.00    +0.000 C 
ENDBRANCH  11  13
ENDBRANCH  10  11
ENDBRANCH   1  10
TORSDOF 3
ENDMDL
MODEL 3
REMARK VINA RESULT:      -5.5      2.555      5.605
REMARK  Name = 
REMARK  5 active torsions:
REMARK  status: ('A' for Active; 'I' for Inactive)
REMARK    1  A    between atoms: C_1  and  C_2
REMARK    2  A    between atoms: C_2  and  C_3
REMARK    3  A    between atoms: C_2  and  O_4
REMARK    4  A    between atoms: O_4  and  C_5
REMARK    5  A    between atoms: C_5  and  C_6
REMARK                            x       y       z     vdW  Elec       q    Type
REMARK                         _______ _______ _______ _____ _____    ______ ____
ROOT
ATOM      1  C   UNL     1       4.370   3.669  18.724  0.00  0.00    +0.000 C 
ATOM      2  O   UNL     1       3.744   3.961  17.707  0.00  0.00    +0.000 OA
ATOM      3  N   UNL     1       5.518   4.263  19.201  0.00  0.00    +0.000 N 
ATOM      4  C   UNL     1       6.080   5.343  18.584  0.00  0.00    +0.000 A 
ATOM      5  N   UNL     1       5.590   6.098  17.636  0.00  0.00    +0.000 NA
ATOM      6  C   UNL     1       6.522   7.051  17.282  0.00  0.00    +0.000 A 
ATOM      7  C   UNL     1       7.721   6.987  17.959  0.00  0.00    +0.000 A 
ATOM      8  S   UNL     1       7.646   5.738  19.137  0.00  0.00    +0.000 S 
ATOM      9  H   UNL     1       6.002   3.873  19.995  0.00  0.00    +0.000 HD
ENDROOT
BRANCH   1  10
ATOM     10  C   UNL     1       3.899   2.524  19.621  0.00  0.00    +0.000 C 
BRANCH  10  11
ATOM     11  O   UNL     1       2.563   2.102  19.391  0.00  0.00    +0.000 OA
BRANCH  11  13
ATOM     12  C   UNL     1       2.317   2.802  21.742  0.00  0.00    +0.000 C 
ATOM     13  C   UNL     1       1.632   2.487  20.415  0.00  0.00    +0.000 C 
ATOM     14  C   UNL     1       0.898   3.720  19.901  0.00  0.00    +0.000 C 
ENDBRANCH  11  13
ENDBRANCH  10  11
ENDBRANCH   1  10
TORSDOF 3
ENDMDL
MODEL 4
REMARK VINA RESULT:      -5.4      2.579      5.597
REMARK  Name = 
REMARK  5 active torsions:
REMARK  status: ('A' for Active; 'I' for Inactive)
REMARK    1  A    between atoms: C_1  and  C_2
REMARK    2  A    between atoms: C_2  and  C_3
REMARK    3  A    between atoms: C_2  and  O_4
REMARK    4  A    between atoms: O_4  and  C_5
REMARK    5  A    between atoms: C_5  and  C_6
REMARK                            x       y       z     vdW  Elec       q    Type
REMARK                         _______ _______ _______ _____ _____    ______ ____
ROOT
ATOM      1  C   UNL     1       4.638   2.759  18.870  0.00  0.00    +0.000 C 
ATOM      2  O   UNL     1       4.899   2.795  20.071  0.00  0.00    +0.000 OA
ATOM      3  N   UNL     1       5.126   3.585  17.881  0.00  0.00    +0.000 N 
ATOM      4  C   UNL     1       6.053   4.551  18.142  0.00  0.00    +0.000 A 
ATOM      5  N   UNL     1       6.761   4.743  19.224  0.00  0.00    +0.000 NA
ATOM      6  C   UNL     1       7.543   5.868  19.065  0.00  0.00    +0.000 A 
ATOM      7  C   UNL     1       7.397   6.526  17.863  0.00  0.00    +0.000 A 
ATOM      8  S   UNL     1       6.299   5.659  16.866  0.00  0.00    +0.000 S 
ATOM      9  H   UNL     1       4.762   3.525  16.942  0.00  0.00    +0.000 HD
ENDROOT
BRANCH   1  10
ATOM     10  C   UNL     1       3.663   1.716  18.321  0.00  0.00    +0.000 C 
BRANCH  10  11
ATOM     11  O   UNL     1       2.515   2.255  17.684  0.00  0.00    +0.000 OA
BRANCH  11  13
ATOM     12  C   UNL     1       1.453   4.481  17.674  0.00  0.00    +0.000 C 
ATOM     13  C   UNL     1       1.799   3.224  18.468  0.00  0.00    +0.000 C 
ATOM     14  C   UNL     1       0.523   2.543  18.951  0.00  0.00    +0.000 C 
ENDBRANCH  11  13
ENDBRANCH  10  11
ENDBRANCH   1  10
TORSDOF 3
ENDMDL
MODEL 5
REMARK VINA RESULT:      -5.4      3.612      5.661
REMARK  Name = 
REMARK  5 active torsions:
REMARK  status: ('A' for Active; 'I' for Inactive)
REMARK    1  A    between atoms: C_1  and  C_2
REMARK    2  A    between atoms: C_2  and  C_3
REMARK    3  A    between atoms: C_2  and  O_4
REMARK    4  A    between atoms: O_4  and  C_5
REMARK    5  A    between atoms: C_5  and  C_6
REMARK                            x       y       z     vdW  Elec       q    Type
REMARK                         _______ _______ _______ _____ _____    ______ ____
ROOT
ATOM      1  C   UNL     1       6.720   4.656  14.512  0.00  0.00    +0.000 C 
ATOM      2  O   UNL     1       7.609   5.405  14.113  0.00  0.00    +0.000 OA
ATOM      3  N   UNL     1       6.269   4.505  15.804  0.00  0.00    +0.000 N 
ATOM      4  C   UNL     1       6.754   5.263  16.830  0.00  0.00    +0.000 A 
ATOM      5  N   UNL     1       7.513   6.326  16.782  0.00  0.00    +0.000 NA
ATOM      6  C   UNL     1       7.797   6.744  18.065  0.00  0.00    +0.000 A 
ATOM      7  C   UNL     1       7.261   5.971  19.072  0.00  0.00    +0.000 A 
ATOM      8  S   UNL     1       6.301   4.722  18.385  0.00  0.00    +0.000 S 
ATOM      9  H   UNL     1       5.600   3.784  16.030  0.00  0.00    +0.000 HD
ENDROOT
BRANCH   1  10
ATOM     10  C   UNL     1       5.980   3.744  13.532  0.00  0.00    +0.000 C 
BRANCH  10  11
ATOM     11  O   UNL     1       6.667   3.501  12.314  0.00  0.00    +0.000 OA
BRANCH  11  13
ATOM     12  C   UNL     1       6.066   1.311  11.353  0.00  0.00    +0.000 C 
ATOM     13  C   UNL     1       5.886   2.826  11.314  0.00  0.00    +0.000 C 
ATOM     14  C   UNL     1       4.428   3.186  11.578  0.00  0.00    +0.000 C 
ENDBRANCH  11  13
ENDBRANCH  10  11
ENDBRANCH   1  10
TORSDOF 3
ENDMDL
MODEL 6
REMARK VINA RESULT:      -5.4      2.552      5.497
REMARK  Name = 
REMARK  5 active torsions:
REMARK  status: ('A' for Active; 'I' for Inactive)
REMARK    1  A    between atoms: C_1  and  C_2
REMARK    2  A    between atoms: C_2  and  C_3
REMARK    3  A    between atoms: C_2  and  O_4
REMARK    4  A    between atoms: O_4  and  C_5
REMARK    5  A    between atoms: C_5  and  C_6
REMARK                            x       y       z     vdW  Elec       q    Type
REMARK                         _______ _______ _______ _____ _____    ______ ____
ROOT
ATOM      1  C   UNL     1       4.596   2.799  19.070  0.00  0.00    +0.000 C 
ATOM      2  O   UNL     1       5.099   2.798  20.191  0.00  0.00    +0.000 OA
ATOM      3  N   UNL     1       4.917   3.615  18.008  0.00  0.00    +0.000 N 
ATOM      4  C   UNL     1       5.932   4.525  18.080  0.00  0.00    +0.000 A 
ATOM      5  N   UNL     1       6.856   4.659  18.995  0.00  0.00    +0.000 NA
ATOM      6  C   UNL     1       7.651   5.742  18.687  0.00  0.00    +0.000 A 
ATOM      7  C   UNL     1       7.299   6.430  17.546  0.00  0.00    +0.000 A 
ATOM      8  S   UNL     1       5.974   5.642  16.789  0.00  0.00    +0.000 S 
ATOM      9  H   UNL     1       4.367   3.593  17.163  0.00  0.00    +0.000 HD
ENDROOT
BRANCH   1  10
ATOM     10  C   UNL     1       3.473   1.820  18.725  0.00  0.00    +0.000 C 
BRANCH  10  11
ATOM     11  O   UNL     1       2.598   2.261  17.697  0.00  0.00    +0.000 OA
BRANCH  11  13
ATOM     12  C   UNL     1       1.178   2.701  19.664  0.00  0.00    +0.000 C 
ATOM     13  C   UNL     1       1.402   2.903  18.167  0.00  0.00    +0.000 C 
ATOM     14  C   UNL     1       1.551   4.389  17.859  0.00  0.00    +0.000 C 
ENDBRANCH  11  13
ENDBRANCH  10  11
ENDBRANCH   1  10
TORSDOF 3
ENDMDL
MODEL 7
REMARK VINA RESULT:      -5.4      2.459      5.445
REMARK  Name = 
REMARK  5 active torsions:
REMARK  status: ('A' for Active; 'I' for Inactive)
REMARK    1  A    between atoms: C_1  and  C_2
REMARK    2  A    between atoms: C_2  and  C_3
REMARK    3  A    between atoms: C_2  and  O_4
REMARK    4  A    between atoms: O_4  and  C_5
REMARK    5  A    between atoms: C_5  and  C_6
REMARK                            x       y       z     vdW  Elec       q    Type
REMARK                         _______ _______ _______ _____ _____    ______ ____
ROOT
ATOM      1  C   UNL     1       3.731   3.094  17.851  0.00  0.00    +0.000 C 
ATOM      2  O   UNL     1       2.928   3.649  17.104  0.00  0.00    +0.000 OA
ATOM      3  N   UNL     1       5.020   3.488  18.135  0.00  0.00    +0.000 N 
ATOM      4  C   UNL     1       5.549   4.639  17.629  0.00  0.00    +0.000 A 
ATOM      5  N   UNL     1       4.949   5.620  17.007  0.00  0.00    +0.000 NA
ATOM      6  C   UNL     1       5.882   6.563  16.632  0.00  0.00    +0.000 A 
ATOM      7  C   UNL     1       7.188   6.269  16.960  0.00  0.00    +0.000 A 
ATOM      8  S   UNL     1       7.237   4.795  17.842  0.00  0.00    +0.000 S 
ATOM      9  H   UNL     1       5.623   2.898  18.688  0.00  0.00    +0.000 HD
ENDROOT
BRANCH   1  10
ATOM     10  C   UNL     1       3.345   1.810  18.586  0.00  0.00    +0.000 C 
BRANCH  10  11
ATOM     11  O   UNL     1       2.179   1.915  19.389  0.00  0.00    +0.000 OA
BRANCH  11  13
ATOM     12  C   UNL     1       0.862   3.866  20.121  0.00  0.00    +0.000 C 
ATOM     13  C   UNL     1       2.153   3.063  20.253  0.00  0.00    +0.000 C 
ATOM     14  C   UNL     1       2.302   2.544  21.679  0.00  0.00    +0.000 C 
ENDBRANCH  11  13
ENDBRANCH  10  11
ENDBRANCH   1  10
TORSDOF 3
ENDMDL
MODEL 8
REMARK VINA RESULT:      -5.4      2.616      5.789
REMARK  Name = 
REMARK  5 active torsions:
REMARK  status: ('A' for Active; 'I' for Inactive)
REMARK    1  A    between atoms: C_1  and  C_2
REMARK    2  A    between atoms: C_2  and  C_3
REMARK    3  A    between atoms: C_2  and  O_4
REMARK    4  A    between atoms: O_4  and  C_5
REMARK    5  A    between atoms: C_5  and  C_6
REMARK                            x       y       z     vdW  Elec       q    Type
REMARK                         _______ _______ _______ _____ _____    ______ ____
ROOT
ATOM      1  C   UNL     1       4.590   3.427  18.639  0.00  0.00    +0.000 C 
ATOM      2  O   UNL     1       5.086   3.088  19.711  0.00  0.00    +0.000 OA
ATOM      3  N   UNL     1       4.995   4.456  17.817  0.00  0.00    +0.000 N 
ATOM      4  C   UNL     1       6.094   5.214  18.100  0.00  0.00    +0.000 A 
ATOM      5  N   UNL     1       7.023   5.017  18.999  0.00  0.00    +0.000 NA
ATOM      6  C   UNL     1       7.922   6.061  18.964  0.00  0.00    +0.000 A 
ATOM      7  C   UNL     1       7.644   7.052  18.047  0.00  0.00    +0.000 A 
ATOM      8  S   UNL     1       6.251   6.618  17.140  0.00  0.00    +0.000 S 
ATOM      9  H   UNL     1       4.449   4.707  17.007  0.00  0.00    +0.000 HD
ENDROOT
BRANCH   1  10
ATOM     10  C   UNL     1       3.377   2.684  18.077  0.00  0.00    +0.000 C 
BRANCH  10  11
ATOM     11  O   UNL     1       2.808   1.728  18.959  0.00  0.00    +0.000 OA
BRANCH  11  13
ATOM     12  C   UNL     1       1.672   2.700  20.920  0.00  0.00    +0.000 C 
ATOM     13  C   UNL     1       1.541   2.113  19.516  0.00  0.00    +0.000 C 
ATOM     14  C   UNL     1       0.941   3.149  18.572  0.00  0.00    +0.000 C 
ENDBRANCH  11  13
ENDBRANCH  10  11
ENDBRANCH   1  10
TORSDOF 3
ENDMDL
MODEL 9
REMARK VINA RESULT:      -5.3      2.710      5.781
REMARK  Name = 
REMARK  5 active torsions:
REMARK  status: ('A' for Active; 'I' for Inactive)
REMARK    1  A    between atoms: C_1  and  C_2
REMARK    2  A    between atoms: C_2  and  C_3
REMARK    3  A    between atoms: C_2  and  O_4
REMARK    4  A    between atoms: O_4  and  C_5
REMARK    5  A    between atoms: C_5  and  C_6
REMARK                            x       y       z     vdW  Elec       q    Type
REMARK                         _______ _______ _______ _____ _____    ______ ____
ROOT
ATOM      1  C   UNL     1       4.516   2.928  18.907  0.00  0.00    +0.000 C 
ATOM      2  O   UNL     1       5.078   2.706  19.977  0.00  0.00    +0.000 OA
ATOM      3  N   UNL     1       4.828   3.900  17.982  0.00  0.00    +0.000 N 
ATOM      4  C   UNL     1       5.897   4.732  18.145  0.00  0.00    +0.000 A 
ATOM      5  N   UNL     1       6.876   4.657  19.008  0.00  0.00    +0.000 NA
ATOM      6  C   UNL     1       7.717   5.737  18.841  0.00  0.00    +0.000 A 
ATOM      7  C   UNL     1       7.345   6.631  17.859  0.00  0.00    +0.000 A 
ATOM      8  S   UNL     1       5.936   6.053  17.064  0.00  0.00    +0.000 S 
ATOM      9  H   UNL     1       4.232   4.053  17.183  0.00  0.00    +0.000 HD
ENDROOT
BRANCH   1  10
ATOM     10  C   UNL     1       3.319   2.081  18.472  0.00  0.00    +0.000 C 
BRANCH  10  11
ATOM     11  O   UNL     1       2.341   1.875  19.480  0.00  0.00    +0.000 OA
BRANCH  11  13
ATOM     12  C   UNL     1       0.766   3.758  19.718  0.00  0.00    +0.000 C 
ATOM     13  C   UNL     1       2.013   3.050  20.240  0.00  0.00    +0.000 C 
ATOM     14  C   UNL     1       1.791   2.595  21.679  0.00  0.00    +0.000 C 
ENDBRANCH  11  13
ENDBRANCH  10  11
ENDBRANCH   1  10
TORSDOF 3
ENDMDL
