MODEL 1
REMARK VINA RESULT:      -7.5      0.000      0.000
REMARK  Name = 
REMARK  7 active torsions:
REMARK  status: ('A' for Active; 'I' for Inactive)
REMARK    1  A    between atoms: C_2  and  C_3
REMARK    2  A    between atoms: C_3  and  C_4
REMARK    3  A    between atoms: C_4  and  C_5
REMARK    4  A    between atoms: C_10  and  C_11
REMARK    5  A    between atoms: C_11  and  O_12
REMARK    6  A    between atoms: C_13  and  C_14
REMARK    7  A    between atoms: C_14  and  N_15
REMARK                            x       y       z     vdW  Elec       q    Type
REMARK                         _______ _______ _______ _____ _____    ______ ____
ROOT
ATOM      1  O   UNL     1       7.809   5.517  14.848  0.00  0.00    +0.000 OA
ATOM      2  C   UNL     1       6.767   4.927  15.131  0.00  0.00    +0.000 C 
ATOM      3  N   UNL     1       5.950   5.352  16.162  0.00  0.00    +0.000 N 
ATOM      4  C   UNL     1       6.313   6.515  16.961  0.00  0.00    +0.000 C 
ATOM      5  C   UNL     1       6.201   6.031  18.410  0.00  0.00    +0.000 C 
ATOM      6  C   UNL     1       4.944   5.140  18.305  0.00  0.00    +0.000 C 
ATOM      7  C   UNL     1       5.098   4.456  16.940  0.00  0.00    +0.000 C 
ENDROOT
BRANCH   2   8
ATOM      8  C   UNL     1       6.297   3.726  14.324  0.00  0.00    +0.000 C 
BRANCH   8   9
ATOM      9  C   UNL     1       5.132   4.056  13.392  0.00  0.00    +0.000 C 
BRANCH   9  10
ATOM     10  C   UNL     1       5.371   3.634  11.969  0.00  0.00    +0.000 C 
ATOM     11  C   UNL     1       5.447   2.183  11.568  0.00  0.00    +0.000 C 
ATOM     12  C   UNL     1       4.254   3.003  11.173  0.00  0.00    +0.000 C 
ENDBRANCH   9  10
ENDBRANCH   8   9
ENDBRANCH   2   8
BRANCH   5  13
ATOM     13  C   UNL     1       7.502   5.347  18.864  0.00  0.00    +0.000 C 
BRANCH  13  14
ATOM     14  O   UNL     1       7.819   5.562  20.238  0.00  0.00    +0.000 OA
ATOM     15  H   UNL     1       7.260   4.956  20.757  0.00  0.00    +0.000 HD
ENDBRANCH  13  14
ENDBRANCH   5  13
BRANCH   6  16
ATOM     16  C   UNL     1       4.683   4.138  19.437  0.00  0.00    +0.000 C 
BRANCH  16  17
ATOM     17  N   UNL     1       3.352   3.502  19.384  0.00  0.00    +0.000 NA
ATOM     18  C   UNL     1       2.284   4.523  19.398  0.00  0.00    +0.000 C 
ATOM     19  C   UNL     1       2.054   4.823  20.867  0.00  0.00    +0.000 C 
ATOM     20  C   UNL     1       2.177   3.455  21.507  0.00  0.00    +0.000 C 
ATOM     21  C   UNL     1       3.061   2.652  20.554  0.00  0.00    +0.000 C 
ENDBRANCH  16  17
ENDBRANCH   6  16
TORSDOF 7
ENDMDL
MODEL 2
REMARK VINA RESULT:      -7.1      0.895      1.010
REMARK  Name = 
REMARK  7 active torsions:
REMARK  status: ('A' for Active; 'I' for Inactive)
REMARK    1  A    between atoms: C_2  and  C_3
REMARK    2  A    between atoms: C_3  and  C_4
REMARK    3  A    between atoms: C_4  and  C_5
REMARK    4  A    between atoms: C_10  and  C_11
REMARK    5  A    between atoms: C_11  and  O_12
REMARK    6  A    between atoms: C_13  and  C_14
REMARK    7  A    between atoms: C_14  and  N_15
REMARK                            x       y       z     vdW  Elec       q    Type
REMARK                         _______ _______ _______ _____ _____    ______ ____
ROOT
ATOM      1  O   UNL     1       7.478   5.691  15.052  0.00  0.00    +0.000 OA
ATOM      2  C   UNL     1       6.515   4.937  15.184  0.00  0.00    +0.000 C 
ATOM      3  N   UNL     1       5.476   5.232  16.049  0.00  0.00    +0.000 N 
ATOM      4  C   UNL     1       5.503   6.450  16.848  0.00  0.00    +0.000 C 
ATOM      5  C   UNL     1       5.229   5.973  18.277  0.00  0.00    +0.000 C 
ATOM      6  C   UNL     1       4.171   4.881  18.004  0.00  0.00    +0.000 C 
ATOM      7  C   UNL     1       4.665   4.215  16.712  0.00  0.00    +0.000 C 
ENDROOT
BRANCH   2   8
ATOM      8  C   UNL     1       6.392   3.664  14.361  0.00  0.00    +0.000 C 
BRANCH   8   9
ATOM      9  C   UNL     1       6.087   3.935  12.889  0.00  0.00    +0.000 C 
BRANCH   9  10
ATOM     10  C   UNL     1       4.903   3.163  12.375  0.00  0.00    +0.000 C 
ATOM     11  C   UNL     1       4.248   3.489  11.057  0.00  0.00    +0.000 C 
ATOM     12  C   UNL     1       5.063   2.236  11.195  0.00  0.00    +0.000 C 
ENDBRANCH   9  10
ENDBRANCH   8   9
ENDBRANCH   2   8
BRANCH   5  13
ATOM     13  C   UNL     1       6.529   5.525  18.967  0.00  0.00    +0.000 C 
BRANCH  13  14
ATOM     14  O   UNL     1       7.711   5.847  18.238  0.00  0.00    +0.000 OA
ATOM     15  H   UNL     1       8.199   6.506  18.764  0.00  0.00    +0.000 HD
ENDBRANCH  13  14
ENDBRANCH   5  13
BRANCH   6  16
ATOM     16  C   UNL     1       3.892   3.864  19.119  0.00  0.00    +0.000 C 
BRANCH  16  17
ATOM     17  N   UNL     1       2.591   3.177  18.994  0.00  0.00    +0.000 NA
ATOM     18  C   UNL     1       1.483   4.154  18.987  0.00  0.00    +0.000 C 
ATOM     19  C   UNL     1       1.181   4.408  20.451  0.00  0.00    +0.000 C 
ATOM     20  C   UNL     1       1.333   3.031  21.065  0.00  0.00    +0.000 C 
ATOM     21  C   UNL     1       2.286   2.288  20.132  0.00  0.00    +0.000 C 
ENDBRANCH  16  17
ENDBRANCH   6  16
TORSDOF 7
ENDMDL
MODEL 3
REMARK VINA RESULT:      -7.0      0.909      1.350
REMARK  Name = 
REMARK  7 active torsions:
REMARK  status: ('A' for Active; 'I' for Inactive)
REMARK    1  A    between atoms: C_2  and  C_3
REMARK    2  A    between atoms: C_3  and  C_4
REMARK    3  A    between atoms: C_4  and  C_5
REMARK    4  A    between atoms: C_10  and  C_11
REMARK    5  A    between atoms: C_11  and  O_12
REMARK    6  A    between atoms: C_13  and  C_14
REMARK    7  A    between atoms: C_14  and  N_15
REMARK                            x       y       z     vdW  Elec       q    Type
REMARK                         _______ _______ _______ _____ _____    ______ ____
ROOT
ATOM      1  O   UNL     1       7.552   5.830  15.293  0.00  0.00    +0.000 OA
ATOM      2  C   UNL     1       6.581   5.075  15.342  0.00  0.00    +0.000 C 
ATOM      3  N   UNL     1       5.534   5.297  16.219  0.00  0.00    +0.000 N 
ATOM      4  C   UNL     1       5.562   6.434  17.130  0.00  0.00    +0.000 C 
ATOM      5  C   UNL     1       5.267   5.827  18.505  0.00  0.00    +0.000 C 
ATOM      6  C   UNL     1       4.203   4.776  18.117  0.00  0.00    +0.000 C 
ATOM      7  C   UNL     1       4.706   4.230  16.774  0.00  0.00    +0.000 C 
ENDROOT
BRANCH   2   8
ATOM      8  C   UNL     1       6.457   3.887  14.401  0.00  0.00    +0.000 C 
BRANCH   8   9
ATOM      9  C   UNL     1       5.834   4.256  13.056  0.00  0.00    +0.000 C 
BRANCH   9  10
ATOM     10  C   UNL     1       4.891   3.209  12.530  0.00  0.00    +0.000 C 
ATOM     11  C   UNL     1       4.334   3.266  11.131  0.00  0.00    +0.000 C 
ATOM     12  C   UNL     1       5.363   2.231  11.481  0.00  0.00    +0.000 C 
ENDBRANCH   9  10
ENDBRANCH   8   9
ENDBRANCH   2   8
BRANCH   5  13
ATOM     13  C   UNL     1       6.554   5.303  19.164  0.00  0.00    +0.000 C 
BRANCH  13  14
ATOM     14  O   UNL     1       7.751   5.800  18.570  0.00  0.00    +0.000 OA
ATOM     15  H   UNL     1       8.191   5.044  18.141  0.00  0.00    +0.000 HD
ENDBRANCH  13  14
ENDBRANCH   5  13
BRANCH   6  16
ATOM     16  C   UNL     1       3.901   3.662  19.128  0.00  0.00    +0.000 C 
BRANCH  16  17
ATOM     17  N   UNL     1       3.214   4.127  20.349  0.00  0.00    +0.000 NA
ATOM     18  C   UNL     1       2.737   2.979  21.149  0.00  0.00    +0.000 C 
ATOM     19  C   UNL     1       1.387   2.626  20.553  0.00  0.00    +0.000 C 
ATOM     20  C   UNL     1       0.793   3.986  20.251  0.00  0.00    +0.000 C 
ATOM     21  C   UNL     1       1.995   4.911  20.073  0.00  0.00    +0.000 C 
ENDBRANCH  16  17
ENDBRANCH   6  16
TORSDOF 7
ENDMDL
MODEL 4
REMARK VINA RESULT:      -6.8      2.802      5.331
REMARK  Name = 
REMARK  7 active torsions:
REMARK  status: ('A' for Active; 'I' for Inactive)
REMARK    1  A    between atoms: C_2  and  C_3
REMARK    2  A    between atoms: C_3  and  C_4
REMARK    3  A    between atoms: C_4  and  C_5
REMARK    4  A    between atoms: C_10  and  C_11
REMARK    5  A    between atoms: C_11  and  O_12
REMARK    6  A    between atoms: C_13  and  C_14
REMARK    7  A    between atoms: C_14  and  N_15
REMARK                            x       y       z     vdW  Elec       q    Type
REMARK                         _______ _______ _______ _____ _____    ______ ____
ROOT
ATOM      1  O   UNL     1       7.971   6.836  16.326  0.00  0.00    +0.000 OA
ATOM      2  C   UNL     1       7.711   6.719  17.524  0.00  0.00    +0.000 C 
ATOM      3  N   UNL     1       7.123   5.574  18.030  0.00  0.00    +0.000 N 
ATOM      4  C   UNL     1       6.776   4.468  17.146  0.00  0.00    +0.000 C 
ATOM      5  C   UNL     1       5.312   4.162  17.478  0.00  0.00    +0.000 C 
ATOM      6  C   UNL     1       5.332   4.358  19.010  0.00  0.00    +0.000 C 
ATOM      7  C   UNL     1       6.261   5.563  19.209  0.00  0.00    +0.000 C 
ENDROOT
BRANCH   2   8
ATOM      8  C   UNL     1       8.074   7.810  18.519  0.00  0.00    +0.000 C 
BRANCH   8   9
ATOM      9  C   UNL     1       8.155   9.195  17.880  0.00  0.00    +0.000 C 
BRANCH   9  10
ATOM     10  C   UNL     1       8.920  10.189  18.710  0.00  0.00    +0.000 C 
ATOM     11  C   UNL     1      10.200  10.818  18.223  0.00  0.00    +0.000 C 
ATOM     12  C   UNL     1       8.949  11.643  18.306  0.00  0.00    +0.000 C 
ENDBRANCH   9  10
ENDBRANCH   8   9
ENDBRANCH   2   8
BRANCH   5  13
ATOM     13  C   UNL     1       4.364   5.067  16.673  0.00  0.00    +0.000 C 
BRANCH  13  14
ATOM     14  O   UNL     1       5.005   5.790  15.625  0.00  0.00    +0.000 OA
ATOM     15  H   UNL     1       5.386   5.131  15.017  0.00  0.00    +0.000 HD
ENDBRANCH  13  14
ENDBRANCH   5  13
BRANCH   6  16
ATOM     16  C   UNL     1       3.985   4.531  19.723  0.00  0.00    +0.000 C 
BRANCH  16  17
ATOM     17  N   UNL     1       3.090   3.362  19.613  0.00  0.00    +0.000 NA
ATOM     18  C   UNL     1       1.737   3.778  19.191  0.00  0.00    +0.000 C 
ATOM     19  C   UNL     1       1.031   4.165  20.477  0.00  0.00    +0.000 C 
ATOM     20  C   UNL     1       1.527   3.119  21.454  0.00  0.00    +0.000 C 
ATOM     21  C   UNL     1       2.874   2.665  20.896  0.00  0.00    +0.000 C 
ENDBRANCH  16  17
ENDBRANCH   6  16
TORSDOF 7
ENDMDL
MODEL 5
REMARK VINA RESULT:      -6.8      1.138      1.371
REMARK  Name = 
REMARK  7 active torsions:
REMARK  status: ('A' for Active; 'I' for Inactive)
REMARK    1  A    between atoms: C_2  and  C_3
REMARK    2  A    between atoms: C_3  and  C_4
REMARK    3  A    between atoms: C_4  and  C_5
REMARK    4  A    between atoms: C_10  and  C_11
REMARK    5  A    between atoms: C_11  and  O_12
REMARK    6  A    between atoms: C_13  and  C_14
REMARK    7  A    between atoms: C_14  and  N_15
REMARK                            x       y       z     vdW  Elec       q    Type
REMARK                         _______ _______ _______ _____ _____    ______ ____
ROOT
ATOM      1  O   UNL     1       7.206   5.133  14.157  0.00  0.00    +0.000 OA
ATOM      2  C   UNL     1       6.084   4.770  14.512  0.00  0.00    +0.000 C 
ATOM      3  N   UNL     1       5.491   5.267  15.659  0.00  0.00    +0.000 N 
ATOM      4  C   UNL     1       6.192   6.233  16.495  0.00  0.00    +0.000 C 
ATOM      5  C   UNL     1       6.105   5.647  17.907  0.00  0.00    +0.000 C 
ATOM      6  C   UNL     1       4.668   5.080  17.880  0.00  0.00    +0.000 C 
ATOM      7  C   UNL     1       4.528   4.516  16.459  0.00  0.00    +0.000 C 
ENDROOT
BRANCH   2   8
ATOM      8  C   UNL     1       5.270   3.794  13.677  0.00  0.00    +0.000 C 
BRANCH   8   9
ATOM      9  C   UNL     1       5.856   3.570  12.284  0.00  0.00    +0.000 C 
BRANCH   9  10
ATOM     10  C   UNL     1       6.485   2.215  12.115  0.00  0.00    +0.000 C 
ATOM     11  C   UNL     1       6.003   1.235  11.075  0.00  0.00    +0.000 C 
ATOM     12  C   UNL     1       7.325   1.923  10.895  0.00  0.00    +0.000 C 
ENDBRANCH   9  10
ENDBRANCH   8   9
ENDBRANCH   2   8
BRANCH   5  13
ATOM     13  C   UNL     1       7.244   4.643  18.158  0.00  0.00    +0.000 C 
BRANCH  13  14
ATOM     14  O   UNL     1       8.097   4.443  17.034  0.00  0.00    +0.000 OA
ATOM     15  H   UNL     1       8.400   3.518  17.068  0.00  0.00    +0.000 HD
ENDBRANCH  13  14
ENDBRANCH   5  13
BRANCH   6  16
ATOM     16  C   UNL     1       4.285   4.057  18.958  0.00  0.00    +0.000 C 
BRANCH  16  17
ATOM     17  N   UNL     1       2.880   3.610  18.891  0.00  0.00    +0.000 NA
ATOM     18  C   UNL     1       1.962   4.724  19.204  0.00  0.00    +0.000 C 
ATOM     19  C   UNL     1       1.862   4.730  20.718  0.00  0.00    +0.000 C 
ATOM     20  C   UNL     1       1.837   3.253  21.053  0.00  0.00    +0.000 C 
ATOM     21  C   UNL     1       2.547   2.572  19.885  0.00  0.00    +0.000 C 
ENDBRANCH  16  17
ENDBRANCH   6  16
TORSDOF 7
ENDMDL
MODEL 6
REMARK VINA RESULT:      -6.6      1.677      2.237
REMARK  Name = 
REMARK  7 active torsions:
REMARK  status: ('A' for Active; 'I' for Inactive)
REMARK    1  A    between atoms: C_2  and  C_3
REMARK    2  A    between atoms: C_3  and  C_4
REMARK    3  A    between atoms: C_4  and  C_5
REMARK    4  A    between atoms: C_10  and  C_11
REMARK    5  A    between atoms: C_11  and  O_12
REMARK    6  A    between atoms: C_13  and  C_14
REMARK    7  A    between atoms: C_14  and  N_15
REMARK                            x       y       z     vdW  Elec       q    Type
REMARK                         _______ _______ _______ _____ _____    ______ ____
ROOT
ATOM      1  O   UNL     1       7.809   4.416  17.111  0.00  0.00    +0.000 OA
ATOM      2  C   UNL     1       6.725   4.831  16.702  0.00  0.00    +0.000 C 
ATOM      3  N   UNL     1       5.686   5.118  17.569  0.00  0.00    +0.000 N 
ATOM      4  C   UNL     1       5.843   4.918  19.004  0.00  0.00    +0.000 C 
ATOM      5  C   UNL     1       4.623   4.086  19.408  0.00  0.00    +0.000 C 
ATOM      6  C   UNL     1       3.541   4.737  18.518  0.00  0.00    +0.000 C 
ATOM      7  C   UNL     1       4.276   5.017  17.200  0.00  0.00    +0.000 C 
ENDROOT
BRANCH   2   8
ATOM      8  C   UNL     1       6.490   5.102  15.224  0.00  0.00    +0.000 C 
BRANCH   8   9
ATOM      9  C   UNL     1       6.262   3.827  14.415  0.00  0.00    +0.000 C 
BRANCH   9  10
ATOM     10  C   UNL     1       5.994   4.087  12.958  0.00  0.00    +0.000 C 
ATOM     11  C   UNL     1       6.911   3.577  11.875  0.00  0.00    +0.000 C 
ATOM     12  C   UNL     1       5.557   2.956  12.060  0.00  0.00    +0.000 C 
ENDBRANCH   9  10
ENDBRANCH   8   9
ENDBRANCH   2   8
BRANCH   5  13
ATOM     13  C   UNL     1       4.886   2.585  19.197  0.00  0.00    +0.000 C 
BRANCH  13  14
ATOM     14  O   UNL     1       5.229   1.885  20.391  0.00  0.00    +0.000 OA
ATOM     15  H   UNL     1       6.042   1.382  20.202  0.00  0.00    +0.000 HD
ENDBRANCH  13  14
ENDBRANCH   5  13
BRANCH   6  16
ATOM     16  C   UNL     1       2.232   3.963  18.306  0.00  0.00    +0.000 C 
BRANCH  16  17
ATOM     17  N   UNL     1       1.180   4.279  19.293  0.00  0.00    +0.000 NA
ATOM     18  C   UNL     1       1.746   5.017  20.442  0.00  0.00    +0.000 C 
ATOM     19  C   UNL     1       2.265   3.940  21.376  0.00  0.00    +0.000 C 
ATOM     20  C   UNL     1       1.200   2.867  21.267  0.00  0.00    +0.000 C 
ATOM     21  C   UNL     1       0.563   3.082  19.896  0.00  0.00    +0.000 C 
ENDBRANCH  16  17
ENDBRANCH   6  16
TORSDOF 7
ENDMDL
MODEL 7
REMARK VINA RESULT:      -6.5      1.148      1.605
REMARK  Name = 
REMARK  7 active torsions:
REMARK  status: ('A' for Active; 'I' for Inactive)
REMARK    1  A    between atoms: C_2  and  C_3
REMARK    2  A    between atoms: C_3  and  C_4
REMARK    3  A    between atoms: C_4  and  C_5
REMARK    4  A    between atoms: C_10  and  C_11
REMARK    5  A    between atoms: C_11  and  O_12
REMARK    6  A    between atoms: C_13  and  C_14
REMARK    7  A    between atoms: C_14  and  N_15
REMARK                            x       y       z     vdW  Elec       q    Type
REMARK                         _______ _______ _______ _____ _____    ______ ____
ROOT
ATOM      1  O   UNL     1       7.390   5.378  14.446  0.00  0.00    +0.000 OA
ATOM      2  C   UNL     1       6.294   4.828  14.557  0.00  0.00    +0.000 C 
ATOM      3  N   UNL     1       5.386   5.212  15.527  0.00  0.00    +0.000 N 
ATOM      4  C   UNL     1       5.711   6.279  16.464  0.00  0.00    +0.000 C 
ATOM      5  C   UNL     1       5.410   5.680  17.842  0.00  0.00    +0.000 C 
ATOM      6  C   UNL     1       4.131   4.878  17.517  0.00  0.00    +0.000 C 
ATOM      7  C   UNL     1       4.407   4.304  16.121  0.00  0.00    +0.000 C 
ENDROOT
BRANCH   2   8
ATOM      8  C   UNL     1       5.861   3.731  13.597  0.00  0.00    +0.000 C 
BRANCH   8   9
ATOM      9  C   UNL     1       6.700   3.692  12.321  0.00  0.00    +0.000 C 
BRANCH   9  10
ATOM     10  C   UNL     1       7.098   2.301  11.913  0.00  0.00    +0.000 C 
ATOM     11  C   UNL     1       6.143   1.372  11.208  0.00  0.00    +0.000 C 
ATOM     12  C   UNL     1       7.293   1.971  10.453  0.00  0.00    +0.000 C 
ENDBRANCH   9  10
ENDBRANCH   8   9
ENDBRANCH   2   8
BRANCH   5  13
ATOM     13  C   UNL     1       6.615   4.884  18.372  0.00  0.00    +0.000 C 
BRANCH  13  14
ATOM     14  O   UNL     1       6.796   4.979  19.783  0.00  0.00    +0.000 OA
ATOM     15  H   UNL     1       6.864   4.069  20.123  0.00  0.00    +0.000 HD
ENDBRANCH  13  14
ENDBRANCH   5  13
BRANCH   6  16
ATOM     16  C   UNL     1       3.693   3.800  18.518  0.00  0.00    +0.000 C 
BRANCH  16  17
ATOM     17  N   UNL     1       3.489   4.302  19.892  0.00  0.00    +0.000 NA
ATOM     18  C   UNL     1       3.024   3.216  20.780  0.00  0.00    +0.000 C 
ATOM     19  C   UNL     1       1.519   3.180  20.595  0.00  0.00    +0.000 C 
ATOM     20  C   UNL     1       1.164   4.650  20.495  0.00  0.00    +0.000 C 
ATOM     21  C   UNL     1       2.434   5.330  19.990  0.00  0.00    +0.000 C 
ENDBRANCH  16  17
ENDBRANCH   6  16
TORSDOF 7
ENDMDL
MODEL 8
REMARK VINA RESULT:      -6.4      3.163      7.475
REMARK  Name = 
REMARK  7 active torsions:
REMARK  status: ('A' for Active; 'I' for Inactive)
REMARK    1  A    between atoms: C_2  and  C_3
REMARK    2  A    between atoms: C_3  and  C_4
REMARK    3  A    between atoms: C_4  and  C_5
REMARK    4  A    between atoms: C_10  and  C_11
REMARK    5  A    between atoms: C_11  and  O_12
REMARK    6  A    between atoms: C_13  and  C_14
REMARK    7  A    between atoms: C_14  and  N_15
REMARK                            x       y       z     vdW  Elec       q    Type
REMARK                         _______ _______ _______ _____ _____    ______ ____
ROOT
ATOM      1  O   UNL     1       1.306   4.048  21.286  0.00  0.00    +0.000 OA
ATOM      2  C   UNL     1       1.656   4.772  20.354  0.00  0.00    +0.000 C 
ATOM      3  N   UNL     1       1.737   4.296  19.057  0.00  0.00    +0.000 N 
ATOM      4  C   UNL     1       1.424   2.905  18.759  0.00  0.00    +0.000 C 
ATOM      5  C   UNL     1       2.628   2.408  17.954  0.00  0.00    +0.000 C 
ATOM      6  C   UNL     1       2.918   3.660  17.096  0.00  0.00    +0.000 C 
ATOM      7  C   UNL     1       2.663   4.826  18.060  0.00  0.00    +0.000 C 
ENDROOT
BRANCH   2   8
ATOM      8  C   UNL     1       1.965   6.245  20.573  0.00  0.00    +0.000 C 
BRANCH   8   9
ATOM      9  C   UNL     1       0.755   7.042  21.057  0.00  0.00    +0.000 C 
BRANCH   9  10
ATOM     10  C   UNL     1       1.105   8.426  21.529  0.00  0.00    +0.000 C 
ATOM     11  C   UNL     1       0.518   9.659  20.891  0.00  0.00    +0.000 C 
ATOM     12  C   UNL     1       0.078   9.251  22.266  0.00  0.00    +0.000 C 
ENDBRANCH   9  10
ENDBRANCH   8   9
ENDBRANCH   2   8
BRANCH   5  13
ATOM     13  C   UNL     1       3.753   1.926  18.885  0.00  0.00    +0.000 C 
BRANCH  13  14
ATOM     14  O   UNL     1       4.291   0.654  18.532  0.00  0.00    +0.000 OA
ATOM     15  H   UNL     1       5.233   0.665  18.781  0.00  0.00    +0.000 HD
ENDBRANCH  13  14
ENDBRANCH   5  13
BRANCH   6  16
ATOM     16  C   UNL     1       4.289   3.752  16.413  0.00  0.00    +0.000 C 
BRANCH  16  17
ATOM     17  N   UNL     1       5.078   4.938  16.803  0.00  0.00    +0.000 NA
ATOM     18  C   UNL     1       5.741   5.534  15.625  0.00  0.00    +0.000 C 
ATOM     19  C   UNL     1       7.034   4.755  15.472  0.00  0.00    +0.000 C 
ATOM     20  C   UNL     1       7.473   4.557  16.908  0.00  0.00    +0.000 C 
ATOM     21  C   UNL     1       6.185   4.627  17.727  0.00  0.00    +0.000 C 
ENDBRANCH  16  17
ENDBRANCH   6  16
TORSDOF 7
ENDMDL
MODEL 9
REMARK VINA RESULT:      -6.3      0.842      1.070
REMARK  Name = 
REMARK  7 active torsions:
REMARK  status: ('A' for Active; 'I' for Inactive)
REMARK    1  A    between atoms: C_2  and  C_3
REMARK    2  A    between atoms: C_3  and  C_4
REMARK    3  A    between atoms: C_4  and  C_5
REMARK    4  A    between atoms: C_10  and  C_11
REMARK    5  A    between atoms: C_11  and  O_12
REMARK    6  A    between atoms: C_13  and  C_14
REMARK    7  A    between atoms: C_14  and  N_15
REMARK                            x       y       z     vdW  Elec       q    Type
REMARK                         _______ _______ _______ _____ _____    ______ ____
ROOT
ATOM      1  O   UNL     1       7.461   5.575  14.774  0.00  0.00    +0.000 OA
ATOM      2  C   UNL     1       6.326   5.315  15.174  0.00  0.00    +0.000 C 
ATOM      3  N   UNL     1       5.821   5.874  16.334  0.00  0.00    +0.000 N 
ATOM      4  C   UNL     1       6.634   6.783  17.132  0.00  0.00    +0.000 C 
ATOM      5  C   UNL     1       6.548   6.221  18.554  0.00  0.00    +0.000 C 
ATOM      6  C   UNL     1       5.067   5.782  18.586  0.00  0.00    +0.000 C 
ATOM      7  C   UNL     1       4.826   5.219  17.179  0.00  0.00    +0.000 C 
ENDROOT
BRANCH   2   8
ATOM      8  C   UNL     1       5.399   4.406  14.382  0.00  0.00    +0.000 C 
BRANCH   8   9
ATOM      9  C   UNL     1       6.137   3.260  13.693  0.00  0.00    +0.000 C 
BRANCH   9  10
ATOM     10  C   UNL     1       6.108   3.350  12.192  0.00  0.00    +0.000 C 
ATOM     11  C   UNL     1       7.247   3.949  11.406  0.00  0.00    +0.000 C 
ATOM     12  C   UNL     1       7.011   2.467  11.367  0.00  0.00    +0.000 C 
ENDBRANCH   9  10
ENDBRANCH   8   9
ENDBRANCH   2   8
BRANCH   5  13
ATOM     13  C   UNL     1       7.603   5.124  18.778  0.00  0.00    +0.000 C 
BRANCH  13  14
ATOM     14  O   UNL     1       8.343   5.272  19.988  0.00  0.00    +0.000 OA
ATOM     15  H   UNL     1       7.787   4.919  20.706  0.00  0.00    +0.000 HD
ENDBRANCH  13  14
ENDBRANCH   5  13
BRANCH   6  16
ATOM     16  C   UNL     1       4.637   4.808  19.690  0.00  0.00    +0.000 C 
BRANCH  16  17
ATOM     17  N   UNL     1       3.453   3.995  19.348  0.00  0.00    +0.000 NA
ATOM     18  C   UNL     1       2.209   4.699  19.724  0.00  0.00    +0.000 C 
ATOM     19  C   UNL     1       1.995   4.351  21.185  0.00  0.00    +0.000 C 
ATOM     20  C   UNL     1       2.410   2.895  21.243  0.00  0.00    +0.000 C 
ATOM     21  C   UNL     1       3.386   2.717  20.083  0.00  0.00    +0.000 C 
ENDBRANCH  16  17
ENDBRANCH   6  16
TORSDOF 7
ENDMDL
