MODEL 1
REMARK VINA RESULT:      -8.1      0.000      0.000
REMARK  Name = 
REMARK  2 active torsions:
REMARK  status: ('A' for Active; 'I' for Inactive)
REMARK    1  A    between atoms: C_3  and  C_4
REMARK    2  A    between atoms: C_11  and  C_12
REMARK                            x       y       z     vdW  Elec       q    Type
REMARK                         _______ _______ _______ _____ _____    ______ ____
ROOT
ATOM      1  O   UNL     1       4.446   2.514  17.676  0.00  0.00    +0.000 OA
ATOM      2  C   UNL     1       4.334   3.708  17.424  0.00  0.00    +0.000 A 
ATOM      3  C   UNL     1       3.452   4.611  18.213  0.00  0.00    +0.000 A 
ATOM      4  C   UNL     1       3.424   5.917  17.873  0.00  0.00    +0.000 A 
ATOM      5  O   UNL     1       4.120   6.480  16.817  0.00  0.00    +0.000 OA
ATOM      6  C   UNL     1       4.925   5.668  16.057  0.00  0.00    +0.000 A 
ATOM      7  C   UNL     1       5.609   6.256  14.993  0.00  0.00    +0.000 A 
ATOM      8  C   UNL     1       6.466   5.484  14.203  0.00  0.00    +0.000 A 
ATOM      9  C   UNL     1       6.643   4.128  14.480  0.00  0.00    +0.000 A 
ATOM     10  C   UNL     1       5.951   3.538  15.537  0.00  0.00    +0.000 A 
ATOM     11  C   UNL     1       5.087   4.313  16.318  0.00  0.00    +0.000 A 
ENDROOT
BRANCH   3  12
ATOM     12  C   UNL     1       2.666   4.044  19.325  0.00  0.00    +0.000 A 
ATOM     13  C   UNL     1       1.329   3.669  19.118  0.00  0.00    +0.000 A 
ATOM     14  C   UNL     1       0.591   3.101  20.158  0.00  0.00    +0.000 A 
ATOM     15  C   UNL     1       1.192   2.907  21.396  0.00  0.00    +0.000 A 
ATOM     16  F   UNL     1       0.489   2.344  22.389  0.00  0.00    +0.000 F 
ATOM     17  C   UNL     1       2.514   3.279  21.619  0.00  0.00    +0.000 A 
ATOM     18  C   UNL     1       3.254   3.849  20.583  0.00  0.00    +0.000 A 
ENDBRANCH   3  12
BRANCH   4  19
ATOM     19  C   UNL     1       2.652   6.913  18.634  0.00  0.00    +0.000 A 
ATOM     20  C   UNL     1       2.175   8.059  17.993  0.00  0.00    +0.000 A 
ATOM     21  C   UNL     1       1.504   9.003  18.749  0.00  0.00    +0.000 A 
ATOM     22  N   UNL     1       1.274   8.878  20.074  0.00  0.00    +0.000 NA
ATOM     23  C   UNL     1       1.734   7.755  20.668  0.00  0.00    +0.000 A 
ATOM     24  C   UNL     1       2.417   6.753  20.000  0.00  0.00    +0.000 A 
ENDBRANCH   4  19
TORSDOF 2
ENDMDL
MODEL 2
REMARK VINA RESULT:      -7.8      2.941      4.139
REMARK  Name = 
REMARK  2 active torsions:
REMARK  status: ('A' for Active; 'I' for Inactive)
REMARK    1  A    between atoms: C_3  and  C_4
REMARK    2  A    between atoms: C_11  and  C_12
REMARK                            x       y       z     vdW  Elec       q    Type
REMARK                         _______ _______ _______ _____ _____    ______ ____
ROOT
ATOM      1  O   UNL     1       3.844   3.656  15.364  0.00  0.00    +0.000 OA
ATOM      2  C   UNL     1       4.908   4.260  15.280  0.00  0.00    +0.000 A 
ATOM      3  C   UNL     1       5.430   5.114  16.381  0.00  0.00    +0.000 A 
ATOM      4  C   UNL     1       6.627   5.711  16.199  0.00  0.00    +0.000 A 
ATOM      5  O   UNL     1       7.392   5.627  15.049  0.00  0.00    +0.000 OA
ATOM      6  C   UNL     1       6.926   4.864  14.008  0.00  0.00    +0.000 A 
ATOM      7  C   UNL     1       7.710   4.802  12.855  0.00  0.00    +0.000 A 
ATOM      8  C   UNL     1       7.299   4.017  11.774  0.00  0.00    +0.000 A 
ATOM      9  C   UNL     1       6.111   3.291  11.846  0.00  0.00    +0.000 A 
ATOM     10  C   UNL     1       5.322   3.361  12.994  0.00  0.00    +0.000 A 
ATOM     11  C   UNL     1       5.732   4.156  14.069  0.00  0.00    +0.000 A 
ENDROOT
BRANCH   3  12
ATOM     12  C   UNL     1       4.628   5.258  17.610  0.00  0.00    +0.000 A 
ATOM     13  C   UNL     1       3.819   6.391  17.790  0.00  0.00    +0.000 A 
ATOM     14  C   UNL     1       3.033   6.516  18.937  0.00  0.00    +0.000 A 
ATOM     15  C   UNL     1       3.055   5.509  19.896  0.00  0.00    +0.000 A 
ATOM     16  F   UNL     1       2.286   5.621  20.987  0.00  0.00    +0.000 F 
ATOM     17  C   UNL     1       3.857   4.384  19.735  0.00  0.00    +0.000 A 
ATOM     18  C   UNL     1       4.646   4.256  18.591  0.00  0.00    +0.000 A 
ENDBRANCH   3  12
BRANCH   4  19
ATOM     19  C   UNL     1       7.277   6.510  17.252  0.00  0.00    +0.000 A 
ATOM     20  C   UNL     1       7.467   7.881  17.063  0.00  0.00    +0.000 A 
ATOM     21  C   UNL     1       8.133   8.592  18.046  0.00  0.00    +0.000 A 
ATOM     22  N   UNL     1       8.604   8.038  19.184  0.00  0.00    +0.000 NA
ATOM     23  C   UNL     1       8.396   6.714  19.348  0.00  0.00    +0.000 A 
ATOM     24  C   UNL     1       7.742   5.915  18.425  0.00  0.00    +0.000 A 
ENDBRANCH   4  19
TORSDOF 2
ENDMDL
MODEL 3
REMARK VINA RESULT:      -7.7      3.562      6.290
REMARK  Name = 
REMARK  2 active torsions:
REMARK  status: ('A' for Active; 'I' for Inactive)
REMARK    1  A    between atoms: C_3  and  C_4
REMARK    2  A    between atoms: C_11  and  C_12
REMARK                            x       y       z     vdW  Elec       q    Type
REMARK                         _______ _______ _______ _____ _____    ______ ____
ROOT
ATOM      1  O   UNL     1       2.783   2.874  16.359  0.00  0.00    +0.000 OA
ATOM      2  C   UNL     1       3.222   3.552  17.282  0.00  0.00    +0.000 A 
ATOM      3  C   UNL     1       4.475   4.346  17.162  0.00  0.00    +0.000 A 
ATOM      4  C   UNL     1       4.855   5.084  18.227  0.00  0.00    +0.000 A 
ATOM      5  O   UNL     1       4.195   5.127  19.442  0.00  0.00    +0.000 OA
ATOM      6  C   UNL     1       3.048   4.388  19.590  0.00  0.00    +0.000 A 
ATOM      7  C   UNL     1       2.404   4.440  20.827  0.00  0.00    +0.000 A 
ATOM      8  C   UNL     1       1.217   3.730  21.025  0.00  0.00    +0.000 A 
ATOM      9  C   UNL     1       0.670   2.974  19.989  0.00  0.00    +0.000 A 
ATOM     10  C   UNL     1       1.319   2.913  18.756  0.00  0.00    +0.000 A 
ATOM     11  C   UNL     1       2.512   3.617  18.566  0.00  0.00    +0.000 A 
ENDROOT
BRANCH   3  12
ATOM     12  C   UNL     1       5.228   4.300  15.895  0.00  0.00    +0.000 A 
ATOM     13  C   UNL     1       4.541   4.322  14.671  0.00  0.00    +0.000 A 
ATOM     14  C   UNL     1       5.250   4.313  13.468  0.00  0.00    +0.000 A 
ATOM     15  C   UNL     1       6.640   4.284  13.494  0.00  0.00    +0.000 A 
ATOM     16  F   UNL     1       7.321   4.294  12.340  0.00  0.00    +0.000 F 
ATOM     17  C   UNL     1       7.335   4.255  14.699  0.00  0.00    +0.000 A 
ATOM     18  C   UNL     1       6.629   4.263  15.903  0.00  0.00    +0.000 A 
ENDBRANCH   3  12
BRANCH   4  19
ATOM     19  C   UNL     1       6.031   5.970  18.192  0.00  0.00    +0.000 A 
ATOM     20  C   UNL     1       7.138   5.686  18.994  0.00  0.00    +0.000 A 
ATOM     21  C   UNL     1       8.202   6.571  18.982  0.00  0.00    +0.000 A 
ATOM     22  N   UNL     1       8.236   7.692  18.231  0.00  0.00    +0.000 NA
ATOM     23  C   UNL     1       7.159   7.938  17.454  0.00  0.00    +0.000 A 
ATOM     24  C   UNL     1       6.046   7.116  17.396  0.00  0.00    +0.000 A 
ENDBRANCH   4  19
TORSDOF 2
ENDMDL
MODEL 4
REMARK VINA RESULT:      -7.7      2.940      4.190
REMARK  Name = 
REMARK  2 active torsions:
REMARK  status: ('A' for Active; 'I' for Inactive)
REMARK    1  A    between atoms: C_3  and  C_4
REMARK    2  A    between atoms: C_11  and  C_12
REMARK                            x       y       z     vdW  Elec       q    Type
REMARK                         _______ _______ _______ _____ _____    ______ ____
ROOT
ATOM      1  O   UNL     1       3.882   3.561  15.256  0.00  0.00    +0.000 OA
ATOM      2  C   UNL     1       4.938   4.180  15.192  0.00  0.00    +0.000 A 
ATOM      3  C   UNL     1       5.446   5.009  16.319  0.00  0.00    +0.000 A 
ATOM      4  C   UNL     1       6.636   5.626  16.158  0.00  0.00    +0.000 A 
ATOM      5  O   UNL     1       7.405   5.584  15.008  0.00  0.00    +0.000 OA
ATOM      6  C   UNL     1       6.953   4.846  13.944  0.00  0.00    +0.000 A 
ATOM      7  C   UNL     1       7.740   4.826  12.792  0.00  0.00    +0.000 A 
ATOM      8  C   UNL     1       7.343   4.067  11.689  0.00  0.00    +0.000 A 
ATOM      9  C   UNL     1       6.163   3.324  11.736  0.00  0.00    +0.000 A 
ATOM     10  C   UNL     1       5.371   3.351  12.883  0.00  0.00    +0.000 A 
ATOM     11  C   UNL     1       5.768   4.121  13.982  0.00  0.00    +0.000 A 
ENDROOT
BRANCH   3  12
ATOM     12  C   UNL     1       4.639   5.108  17.549  0.00  0.00    +0.000 A 
ATOM     13  C   UNL     1       4.674   4.071  18.494  0.00  0.00    +0.000 A 
ATOM     14  C   UNL     1       3.939   4.175  19.676  0.00  0.00    +0.000 A 
ATOM     15  C   UNL     1       3.176   5.313  19.910  0.00  0.00    +0.000 A 
ATOM     16  F   UNL     1       2.485   5.420  21.053  0.00  0.00    +0.000 F 
ATOM     17  C   UNL     1       3.126   6.346  18.980  0.00  0.00    +0.000 A 
ATOM     18  C   UNL     1       3.858   6.246  17.797  0.00  0.00    +0.000 A 
ENDBRANCH   3  12
BRANCH   4  19
ATOM     19  C   UNL     1       7.272   6.404  17.234  0.00  0.00    +0.000 A 
ATOM     20  C   UNL     1       7.473   7.776  17.073  0.00  0.00    +0.000 A 
ATOM     21  C   UNL     1       8.127   8.467  18.079  0.00  0.00    +0.000 A 
ATOM     22  N   UNL     1       8.575   7.891  19.214  0.00  0.00    +0.000 NA
ATOM     23  C   UNL     1       8.358   6.565  19.352  0.00  0.00    +0.000 A 
ATOM     24  C   UNL     1       7.715   5.786  18.404  0.00  0.00    +0.000 A 
ENDBRANCH   4  19
TORSDOF 2
ENDMDL
MODEL 5
REMARK VINA RESULT:      -7.6      3.550      6.275
REMARK  Name = 
REMARK  2 active torsions:
REMARK  status: ('A' for Active; 'I' for Inactive)
REMARK    1  A    between atoms: C_3  and  C_4
REMARK    2  A    between atoms: C_11  and  C_12
REMARK                            x       y       z     vdW  Elec       q    Type
REMARK                         _______ _______ _______ _____ _____    ______ ____
ROOT
ATOM      1  O   UNL     1       2.786   2.798  16.450  0.00  0.00    +0.000 OA
ATOM      2  C   UNL     1       3.216   3.473  17.379  0.00  0.00    +0.000 A 
ATOM      3  C   UNL     1       4.443   4.308  17.257  0.00  0.00    +0.000 A 
ATOM      4  C   UNL     1       4.814   5.038  18.330  0.00  0.00    +0.000 A 
ATOM      5  O   UNL     1       4.167   5.041  19.554  0.00  0.00    +0.000 OA
ATOM      6  C   UNL     1       3.045   4.265  19.703  0.00  0.00    +0.000 A 
ATOM      7  C   UNL     1       2.415   4.276  20.948  0.00  0.00    +0.000 A 
ATOM      8  C   UNL     1       1.252   3.528  21.148  0.00  0.00    +0.000 A 
ATOM      9  C   UNL     1       0.716   2.773  20.105  0.00  0.00    +0.000 A 
ATOM     10  C   UNL     1       1.351   2.752  18.864  0.00  0.00    +0.000 A 
ATOM     11  C   UNL     1       2.520   3.496  18.672  0.00  0.00    +0.000 A 
ENDROOT
BRANCH   3  12
ATOM     12  C   UNL     1       5.181   4.305  15.981  0.00  0.00    +0.000 A 
ATOM     13  C   UNL     1       6.579   4.179  15.981  0.00  0.00    +0.000 A 
ATOM     14  C   UNL     1       7.281   4.142  14.775  0.00  0.00    +0.000 A 
ATOM     15  C   UNL     1       6.583   4.229  13.575  0.00  0.00    +0.000 A 
ATOM     16  F   UNL     1       7.255   4.175  12.417  0.00  0.00    +0.000 F 
ATOM     17  C   UNL     1       5.199   4.361  13.559  0.00  0.00    +0.000 A 
ATOM     18  C   UNL     1       4.494   4.400  14.763  0.00  0.00    +0.000 A 
ENDBRANCH   3  12
BRANCH   4  19
ATOM     19  C   UNL     1       5.961   5.961  18.297  0.00  0.00    +0.000 A 
ATOM     20  C   UNL     1       5.916   7.093  17.481  0.00  0.00    +0.000 A 
ATOM     21  C   UNL     1       7.034   7.908  17.428  0.00  0.00    +0.000 A 
ATOM     22  N   UNL     1       8.165   7.676  18.128  0.00  0.00    +0.000 NA
ATOM     23  C   UNL     1       8.178   6.581  18.918  0.00  0.00    +0.000 A 
ATOM     24  C   UNL     1       7.114   5.704  19.040  0.00  0.00    +0.000 A 
ENDBRANCH   4  19
TORSDOF 2
ENDMDL
MODEL 6
REMARK VINA RESULT:      -7.6      2.918      6.276
REMARK  Name = 
REMARK  2 active torsions:
REMARK  status: ('A' for Active; 'I' for Inactive)
REMARK    1  A    between atoms: C_3  and  C_4
REMARK    2  A    between atoms: C_11  and  C_12
REMARK                            x       y       z     vdW  Elec       q    Type
REMARK                         _______ _______ _______ _____ _____    ______ ____
ROOT
ATOM      1  O   UNL     1       2.924   8.441  17.269  0.00  0.00    +0.000 OA
ATOM      2  C   UNL     1       2.506   7.929  18.302  0.00  0.00    +0.000 A 
ATOM      3  C   UNL     1       2.813   6.522  18.676  0.00  0.00    +0.000 A 
ATOM      4  C   UNL     1       2.329   6.065  19.850  0.00  0.00    +0.000 A 
ATOM      5  O   UNL     1       1.530   6.789  20.718  0.00  0.00    +0.000 OA
ATOM      6  C   UNL     1       1.211   8.082  20.390  0.00  0.00    +0.000 A 
ATOM      7  C   UNL     1       0.397   8.789  21.275  0.00  0.00    +0.000 A 
ATOM      8  C   UNL     1       0.064  10.119  21.006  0.00  0.00    +0.000 A 
ATOM      9  C   UNL     1       0.548  10.745  19.857  0.00  0.00    +0.000 A 
ATOM     10  C   UNL     1       1.354  10.035  18.966  0.00  0.00    +0.000 A 
ATOM     11  C   UNL     1       1.675   8.701  19.235  0.00  0.00    +0.000 A 
ENDROOT
BRANCH   3  12
ATOM     12  C   UNL     1       3.633   5.706  17.762  0.00  0.00    +0.000 A 
ATOM     13  C   UNL     1       4.942   6.104  17.451  0.00  0.00    +0.000 A 
ATOM     14  C   UNL     1       5.734   5.317  16.613  0.00  0.00    +0.000 A 
ATOM     15  C   UNL     1       5.217   4.136  16.093  0.00  0.00    +0.000 A 
ATOM     16  F   UNL     1       5.984   3.372  15.303  0.00  0.00    +0.000 F 
ATOM     17  C   UNL     1       3.919   3.731  16.386  0.00  0.00    +0.000 A 
ATOM     18  C   UNL     1       3.123   4.516  17.222  0.00  0.00    +0.000 A 
ENDBRANCH   3  12
BRANCH   4  19
ATOM     19  C   UNL     1       2.638   4.718  20.359  0.00  0.00    +0.000 A 
ATOM     20  C   UNL     1       1.658   3.990  21.037  0.00  0.00    +0.000 A 
ATOM     21  C   UNL     1       1.998   2.752  21.554  0.00  0.00    +0.000 A 
ATOM     22  N   UNL     1       3.225   2.201  21.433  0.00  0.00    +0.000 NA
ATOM     23  C   UNL     1       4.152   2.920  20.763  0.00  0.00    +0.000 A 
ATOM     24  C   UNL     1       3.911   4.166  20.210  0.00  0.00    +0.000 A 
ENDBRANCH   4  19
TORSDOF 2
ENDMDL
MODEL 7
REMARK VINA RESULT:      -7.5      2.921      6.330
REMARK  Name = 
REMARK  2 active torsions:
REMARK  status: ('A' for Active; 'I' for Inactive)
REMARK    1  A    between atoms: C_3  and  C_4
REMARK    2  A    between atoms: C_11  and  C_12
REMARK                            x       y       z     vdW  Elec       q    Type
REMARK                         _______ _______ _______ _____ _____    ______ ____
ROOT
ATOM      1  O   UNL     1       2.747   8.658  17.466  0.00  0.00    +0.000 OA
ATOM      2  C   UNL     1       2.275   8.143  18.473  0.00  0.00    +0.000 A 
ATOM      3  C   UNL     1       2.505   6.714  18.822  0.00  0.00    +0.000 A 
ATOM      4  C   UNL     1       1.966   6.253  19.970  0.00  0.00    +0.000 A 
ATOM      5  O   UNL     1       1.177   6.994  20.833  0.00  0.00    +0.000 OA
ATOM      6  C   UNL     1       0.929   8.309  20.527  0.00  0.00    +0.000 A 
ATOM      7  C   UNL     1       0.123   9.033  21.406  0.00  0.00    +0.000 A 
ATOM      8  C   UNL     1      -0.139  10.383  21.161  0.00  0.00    +0.000 A 
ATOM      9  C   UNL     1       0.407  11.012  20.041  0.00  0.00    +0.000 A 
ATOM     10  C   UNL     1       1.204  10.285  19.157  0.00  0.00    +0.000 A 
ATOM     11  C   UNL     1       1.455   8.931  19.402  0.00  0.00    +0.000 A 
ENDROOT
BRANCH   3  12
ATOM     12  C   UNL     1       3.312   5.881  17.911  0.00  0.00    +0.000 A 
ATOM     13  C   UNL     1       4.612   6.280  17.564  0.00  0.00    +0.000 A 
ATOM     14  C   UNL     1       5.392   5.478  16.729  0.00  0.00    +0.000 A 
ATOM     15  C   UNL     1       4.873   4.282  16.248  0.00  0.00    +0.000 A 
ATOM     16  F   UNL     1       5.629   3.504  15.462  0.00  0.00    +0.000 F 
ATOM     17  C   UNL     1       3.584   3.876  16.578  0.00  0.00    +0.000 A 
ATOM     18  C   UNL     1       2.800   4.676  17.411  0.00  0.00    +0.000 A 
ENDBRANCH   3  12
BRANCH   4  19
ATOM     19  C   UNL     1       2.197   4.882  20.455  0.00  0.00    +0.000 A 
ATOM     20  C   UNL     1       3.500   4.388  20.540  0.00  0.00    +0.000 A 
ATOM     21  C   UNL     1       3.679   3.076  20.944  0.00  0.00    +0.000 A 
ATOM     22  N   UNL     1       2.665   2.246  21.268  0.00  0.00    +0.000 NA
ATOM     23  C   UNL     1       1.415   2.752  21.188  0.00  0.00    +0.000 A 
ATOM     24  C   UNL     1       1.131   4.049  20.796  0.00  0.00    +0.000 A 
ENDBRANCH   4  19
TORSDOF 2
ENDMDL
MODEL 8
REMARK VINA RESULT:      -7.5      2.938      6.235
REMARK  Name = 
REMARK  2 active torsions:
REMARK  status: ('A' for Active; 'I' for Inactive)
REMARK    1  A    between atoms: C_3  and  C_4
REMARK    2  A    between atoms: C_11  and  C_12
REMARK                            x       y       z     vdW  Elec       q    Type
REMARK                         _______ _______ _______ _____ _____    ______ ____
ROOT
ATOM      1  O   UNL     1       2.836   8.445  17.244  0.00  0.00    +0.000 OA
ATOM      2  C   UNL     1       2.455   7.936  18.293  0.00  0.00    +0.000 A 
ATOM      3  C   UNL     1       2.814   6.545  18.681  0.00  0.00    +0.000 A 
ATOM      4  C   UNL     1       2.369   6.092  19.873  0.00  0.00    +0.000 A 
ATOM      5  O   UNL     1       1.566   6.804  20.747  0.00  0.00    +0.000 OA
ATOM      6  C   UNL     1       1.201   8.082  20.405  0.00  0.00    +0.000 A 
ATOM      7  C   UNL     1       0.383   8.777  21.297  0.00  0.00    +0.000 A 
ATOM      8  C   UNL     1       0.004  10.092  21.015  0.00  0.00    +0.000 A 
ATOM      9  C   UNL     1       0.444  10.714  19.846  0.00  0.00    +0.000 A 
ATOM     10  C   UNL     1       1.252  10.016  18.950  0.00  0.00    +0.000 A 
ATOM     11  C   UNL     1       1.621   8.697  19.232  0.00  0.00    +0.000 A 
ENDROOT
BRANCH   3  12
ATOM     12  C   UNL     1       3.639   5.740  17.763  0.00  0.00    +0.000 A 
ATOM     13  C   UNL     1       3.143   4.529  17.255  0.00  0.00    +0.000 A 
ATOM     14  C   UNL     1       3.906   3.780  16.357  0.00  0.00    +0.000 A 
ATOM     15  C   UNL     1       5.158   4.244  15.970  0.00  0.00    +0.000 A 
ATOM     16  F   UNL     1       5.882   3.533  15.095  0.00  0.00    +0.000 F 
ATOM     17  C   UNL     1       5.666   5.438  16.470  0.00  0.00    +0.000 A 
ATOM     18  C   UNL     1       4.907   6.189  17.368  0.00  0.00    +0.000 A 
ENDBRANCH   3  12
BRANCH   4  19
ATOM     19  C   UNL     1       2.731   4.763  20.395  0.00  0.00    +0.000 A 
ATOM     20  C   UNL     1       3.993   4.231  20.123  0.00  0.00    +0.000 A 
ATOM     21  C   UNL     1       4.280   2.956  20.579  0.00  0.00    +0.000 A 
ATOM     22  N   UNL     1       3.412   2.198  21.281  0.00  0.00    +0.000 NA
ATOM     23  C   UNL     1       2.203   2.740  21.542  0.00  0.00    +0.000 A 
ATOM     24  C   UNL     1       1.819   4.005  21.130  0.00  0.00    +0.000 A 
ENDBRANCH   4  19
TORSDOF 2
ENDMDL
MODEL 9
REMARK VINA RESULT:      -7.4      2.810      5.299
REMARK  Name = 
REMARK  2 active torsions:
REMARK  status: ('A' for Active; 'I' for Inactive)
REMARK    1  A    between atoms: C_3  and  C_4
REMARK    2  A    between atoms: C_11  and  C_12
REMARK                            x       y       z     vdW  Elec       q    Type
REMARK                         _______ _______ _______ _____ _____    ______ ____
ROOT
ATOM      1  O   UNL     1       1.265   5.907  19.823  0.00  0.00    +0.000 OA
ATOM      2  C   UNL     1       2.031   6.551  19.114  0.00  0.00    +0.000 A 
ATOM      3  C   UNL     1       3.182   5.924  18.409  0.00  0.00    +0.000 A 
ATOM      4  C   UNL     1       3.946   6.716  17.627  0.00  0.00    +0.000 A 
ATOM      5  O   UNL     1       3.769   8.079  17.460  0.00  0.00    +0.000 OA
ATOM      6  C   UNL     1       2.729   8.689  18.114  0.00  0.00    +0.000 A 
ATOM      7  C   UNL     1       2.577  10.065  17.939  0.00  0.00    +0.000 A 
ATOM      8  C   UNL     1       1.517  10.734  18.558  0.00  0.00    +0.000 A 
ATOM      9  C   UNL     1       0.608  10.029  19.347  0.00  0.00    +0.000 A 
ATOM     10  C   UNL     1       0.766   8.656  19.531  0.00  0.00    +0.000 A 
ATOM     11  C   UNL     1       1.834   7.993  18.917  0.00  0.00    +0.000 A 
ENDROOT
BRANCH   3  12
ATOM     12  C   UNL     1       3.426   4.481  18.588  0.00  0.00    +0.000 A 
ATOM     13  C   UNL     1       2.805   3.555  17.735  0.00  0.00    +0.000 A 
ATOM     14  C   UNL     1       3.059   2.190  17.878  0.00  0.00    +0.000 A 
ATOM     15  C   UNL     1       3.932   1.757  18.869  0.00  0.00    +0.000 A 
ATOM     16  F   UNL     1       4.189   0.448  18.994  0.00  0.00    +0.000 F 
ATOM     17  C   UNL     1       4.549   2.661  19.726  0.00  0.00    +0.000 A 
ATOM     18  C   UNL     1       4.297   4.026  19.587  0.00  0.00    +0.000 A 
ENDBRANCH   3  12
BRANCH   4  19
ATOM     19  C   UNL     1       5.059   6.189  16.820  0.00  0.00    +0.000 A 
ATOM     20  C   UNL     1       6.360   6.221  17.328  0.00  0.00    +0.000 A 
ATOM     21  C   UNL     1       7.391   5.771  16.521  0.00  0.00    +0.000 A 
ATOM     22  N   UNL     1       7.211   5.295  15.271  0.00  0.00    +0.000 NA
ATOM     23  C   UNL     1       5.943   5.263  14.807  0.00  0.00    +0.000 A 
ATOM     24  C   UNL     1       4.844   5.689  15.535  0.00  0.00    +0.000 A 
ENDBRANCH   4  19
TORSDOF 2
ENDMDL
