MODEL 1
REMARK VINA RESULT:      -7.0      0.000      0.000
REMARK  Name = 
REMARK  7 active torsions:
REMARK  status: ('A' for Active; 'I' for Inactive)
REMARK    1  A    between atoms: C_2  and  C_3
REMARK    2  A    between atoms: C_3  and  O_4
REMARK    3  A    between atoms: O_4  and  C_5
REMARK    4  A    between atoms: N_16  and  C_17
REMARK    5  A    between atoms: C_17  and  C_18
REMARK    6  A    between atoms: C_23  and  C_24
REMARK    7  A    between atoms: C_23  and  C_25
REMARK                            x       y       z     vdW  Elec       q    Type
REMARK                         _______ _______ _______ _____ _____    ______ ____
ROOT
ATOM      1  C   UNL     1       5.292   6.615  16.211  0.00  0.00    +0.000 C 
ATOM      2  C   UNL     1       4.161   7.369  16.823  0.00  0.00    +0.000 C 
ATOM      3  C   UNL     1       3.633   7.145  18.038  0.00  0.00    +0.000 C 
ATOM      4  C   UNL     1       2.478   7.941  18.550  0.00  0.00    +0.000 A 
ATOM      5  C   UNL     1       1.857   8.971  17.807  0.00  0.00    +0.000 A 
ATOM      6  C   UNL     1       0.774   9.629  18.356  0.00  0.00    +0.000 A 
ATOM      7  C   UNL     1       0.334   9.373  19.626  0.00  0.00    +0.000 A 
ATOM      8  C   UNL     1       0.902   8.383  20.393  0.00  0.00    +0.000 A 
ATOM      9  C   UNL     1       1.926   7.616  19.816  0.00  0.00    +0.000 A 
ATOM     10  C   UNL     1       2.168   6.259  20.376  0.00  0.00    +0.000 C 
ATOM     11  O   UNL     1       1.422   5.832  21.255  0.00  0.00    +0.000 OA
ATOM     12  N   UNL     1       3.076   5.462  19.680  0.00  0.00    +0.000 N 
ATOM     13  C   UNL     1       4.221   6.098  18.986  0.00  0.00    +0.000 C 
ATOM     14  C   UNL     1       5.289   5.137  18.350  0.00  0.00    +0.000 C 
ATOM     15  O   UNL     1       6.341   4.784  19.300  0.00  0.00    +0.000 OA
ATOM     16  C   UNL     1       7.569   5.318  18.772  0.00  0.00    +0.000 C 
ATOM     17  C   UNL     1       8.384   4.218  18.062  0.00  0.00    +0.000 C 
ATOM     18  C   UNL     1       8.437   5.880  19.894  0.00  0.00    +0.000 C 
ATOM     19  O   UNL     1       7.203   6.330  17.818  0.00  0.00    +0.000 OA
ATOM     20  C   UNL     1       6.063   5.729  17.182  0.00  0.00    +0.000 C 
ATOM     21  O   UNL     1      -0.757  10.118  19.958  0.00  0.00    +0.000 OA
ATOM     22  C   UNL     1      -1.101  10.642  18.663  0.00  0.00    +0.000 C 
ATOM     23  O   UNL     1      -0.013  10.542  17.717  0.00  0.00    +0.000 OA
ENDROOT
BRANCH   1  24
ATOM     24  O   UNL     1       4.742   5.729  15.219  0.00  0.00    +0.000 OA
BRANCH  24  25
ATOM     25  C   UNL     1       5.364   4.452  15.165  0.00  0.00    +0.000 C 
BRANCH  25  27
ATOM     26  C   UNL     1       5.988   3.618  12.890  0.00  0.00    +0.000 C 
ATOM     27  C   UNL     1       6.213   4.422  13.936  0.00  0.00    +0.000 C 
ENDBRANCH  25  27
ENDBRANCH  24  25
ENDBRANCH   1  24
BRANCH  12  28
ATOM     28  C   UNL     1       2.647   4.092  19.427  0.00  0.00    +0.000 C 
BRANCH  28  29
ATOM     29  C   UNL     1       1.916   4.015  18.129  0.00  0.00    +0.000 C 
ATOM     30  C   UNL     1       2.338   3.352  17.047  0.00  0.00    +0.000 C 
ENDBRANCH  28  29
ENDBRANCH  12  28
TORSDOF 5
ENDMDL
MODEL 2
REMARK VINA RESULT:      -6.8      4.673      8.510
REMARK  Name = 
REMARK  7 active torsions:
REMARK  status: ('A' for Active; 'I' for Inactive)
REMARK    1  A    between atoms: C_2  and  C_3
REMARK    2  A    between atoms: C_3  and  O_4
REMARK    3  A    between atoms: O_4  and  C_5
REMARK    4  A    between atoms: N_16  and  C_17
REMARK    5  A    between atoms: C_17  and  C_18
REMARK    6  A    between atoms: C_23  and  C_24
REMARK    7  A    between atoms: C_23  and  C_25
REMARK                            x       y       z     vdW  Elec       q    Type
REMARK                         _______ _______ _______ _____ _____    ______ ____
ROOT
ATOM      1  C   UNL     1       1.014  11.737  19.011  0.00  0.00    +0.000 C 
ATOM      2  C   UNL     1      -0.474  11.777  18.917  0.00  0.00    +0.000 C 
ATOM      3  C   UNL     1      -1.293  12.475  19.721  0.00  0.00    +0.000 C 
ATOM      4  C   UNL     1      -2.777  12.426  19.561  0.00  0.00    +0.000 A 
ATOM      5  C   UNL     1      -3.424  11.652  18.571  0.00  0.00    +0.000 A 
ATOM      6  C   UNL     1      -4.804  11.649  18.524  0.00  0.00    +0.000 A 
ATOM      7  C   UNL     1      -5.563  12.433  19.350  0.00  0.00    +0.000 A 
ATOM      8  C   UNL     1      -4.985  13.207  20.330  0.00  0.00    +0.000 A 
ATOM      9  C   UNL     1      -3.591  13.137  20.481  0.00  0.00    +0.000 A 
ATOM     10  C   UNL     1      -3.023  13.505  21.805  0.00  0.00    +0.000 C 
ATOM     11  O   UNL     1      -3.787  13.773  22.731  0.00  0.00    +0.000 OA
ATOM     12  N   UNL     1      -1.659  13.269  21.973  0.00  0.00    +0.000 N 
ATOM     13  C   UNL     1      -0.749  13.400  20.811  0.00  0.00    +0.000 C 
ATOM     14  C   UNL     1       0.791  13.272  21.097  0.00  0.00    +0.000 C 
ATOM     15  O   UNL     1       1.392  14.559  21.438  0.00  0.00    +0.000 OA
ATOM     16  C   UNL     1       2.346  14.854  20.401  0.00  0.00    +0.000 C 
ATOM     17  C   UNL     1       3.778  14.507  20.858  0.00  0.00    +0.000 C 
ATOM     18  C   UNL     1       2.322  16.340  20.056  0.00  0.00    +0.000 C 
ATOM     19  O   UNL     1       1.996  14.035  19.271  0.00  0.00    +0.000 OA
ATOM     20  C   UNL     1       1.622  12.804  19.912  0.00  0.00    +0.000 C 
ATOM     21  O   UNL     1      -6.899  12.260  19.150  0.00  0.00    +0.000 OA
ATOM     22  C   UNL     1      -6.873  11.087  18.317  0.00  0.00    +0.000 C 
ATOM     23  O   UNL     1      -5.575  10.854  17.726  0.00  0.00    +0.000 OA
ENDROOT
BRANCH   1  24
ATOM     24  O   UNL     1       1.382  10.472  19.591  0.00  0.00    +0.000 OA
BRANCH  24  25
ATOM     25  C   UNL     1       0.962   9.340  18.840  0.00  0.00    +0.000 C 
BRANCH  25  27
ATOM     26  C   UNL     1       2.843   8.018  17.852  0.00  0.00    +0.000 C 
ATOM     27  C   UNL     1       2.016   9.070  17.817  0.00  0.00    +0.000 C 
ENDBRANCH  25  27
ENDBRANCH  24  25
ENDBRANCH   1  24
BRANCH  12  28
ATOM     28  C   UNL     1      -1.283  12.604  23.215  0.00  0.00    +0.000 C 
BRANCH  28  29
ATOM     29  C   UNL     1      -1.512  11.134  23.099  0.00  0.00    +0.000 C 
ATOM     30  C   UNL     1      -0.550  10.212  22.990  0.00  0.00    +0.000 C 
ENDBRANCH  28  29
ENDBRANCH  12  28
TORSDOF 5
ENDMDL
MODEL 3
REMARK VINA RESULT:      -6.5      7.203      9.578
REMARK  Name = 
REMARK  7 active torsions:
REMARK  status: ('A' for Active; 'I' for Inactive)
REMARK    1  A    between atoms: C_2  and  C_3
REMARK    2  A    between atoms: C_3  and  O_4
REMARK    3  A    between atoms: O_4  and  C_5
REMARK    4  A    between atoms: N_16  and  C_17
REMARK    5  A    between atoms: C_17  and  C_18
REMARK    6  A    between atoms: C_23  and  C_24
REMARK    7  A    between atoms: C_23  and  C_25
REMARK                            x       y       z     vdW  Elec       q    Type
REMARK                         _______ _______ _______ _____ _____    ______ ____
ROOT
ATOM      1  C   UNL     1       0.369  16.288  19.442  0.00  0.00    +0.000 C 
ATOM      2  C   UNL     1      -0.520  15.567  20.398  0.00  0.00    +0.000 C 
ATOM      3  C   UNL     1      -0.367  14.296  20.807  0.00  0.00    +0.000 C 
ATOM      4  C   UNL     1      -1.332  13.655  21.749  0.00  0.00    +0.000 A 
ATOM      5  C   UNL     1      -2.463  14.322  22.272  0.00  0.00    +0.000 A 
ATOM      6  C   UNL     1      -3.313  13.632  23.114  0.00  0.00    +0.000 A 
ATOM      7  C   UNL     1      -3.053  12.352  23.522  0.00  0.00    +0.000 A 
ATOM      8  C   UNL     1      -1.967  11.657  23.045  0.00  0.00    +0.000 A 
ATOM      9  C   UNL     1      -1.151  12.291  22.095  0.00  0.00    +0.000 A 
ATOM     10  C   UNL     1      -0.341  11.425  21.197  0.00  0.00    +0.000 C 
ATOM     11  O   UNL     1      -0.474  10.205  21.261  0.00  0.00    +0.000 OA
ATOM     12  N   UNL     1       0.329  12.075  20.161  0.00  0.00    +0.000 N 
ATOM     13  C   UNL     1       0.833  13.453  20.371  0.00  0.00    +0.000 C 
ATOM     14  C   UNL     1       1.709  14.072  19.223  0.00  0.00    +0.000 C 
ATOM     15  O   UNL     1       3.127  13.761  19.391  0.00  0.00    +0.000 OA
ATOM     16  C   UNL     1       3.802  15.016  19.594  0.00  0.00    +0.000 C 
ATOM     17  C   UNL     1       4.465  15.499  18.288  0.00  0.00    +0.000 C 
ATOM     18  C   UNL     1       4.902  14.871  20.641  0.00  0.00    +0.000 C 
ATOM     19  O   UNL     1       2.798  15.964  19.998  0.00  0.00    +0.000 OA
ATOM     20  C   UNL     1       1.694  15.591  19.157  0.00  0.00    +0.000 C 
ATOM     21  O   UNL     1      -4.030  11.855  24.331  0.00  0.00    +0.000 OA
ATOM     22  C   UNL     1      -5.041  12.861  24.142  0.00  0.00    +0.000 C 
ATOM     23  O   UNL     1      -4.510  14.085  23.587  0.00  0.00    +0.000 OA
ENDROOT
BRANCH   1  24
ATOM     24  O   UNL     1      -0.317  16.365  18.179  0.00  0.00    +0.000 OA
BRANCH  24  25
ATOM     25  C   UNL     1      -0.920  17.625  17.916  0.00  0.00    +0.000 C 
BRANCH  25  27
ATOM     26  C   UNL     1       0.801  18.518  16.334  0.00  0.00    +0.000 C 
ATOM     27  C   UNL     1       0.171  18.563  17.514  0.00  0.00    +0.000 C 
ENDBRANCH  25  27
ENDBRANCH  24  25
ENDBRANCH   1  24
BRANCH  12  28
ATOM     28  C   UNL     1       0.205  11.459  18.845  0.00  0.00    +0.000 C 
BRANCH  28  29
ATOM     29  C   UNL     1      -1.202  11.567  18.360  0.00  0.00    +0.000 C 
ATOM     30  C   UNL     1      -1.895  10.579  17.784  0.00  0.00    +0.000 C 
ENDBRANCH  28  29
ENDBRANCH  12  28
TORSDOF 5
ENDMDL
MODEL 4
REMARK VINA RESULT:      -6.5      5.330      8.817
REMARK  Name = 
REMARK  7 active torsions:
REMARK  status: ('A' for Active; 'I' for Inactive)
REMARK    1  A    between atoms: C_2  and  C_3
REMARK    2  A    between atoms: C_3  and  O_4
REMARK    3  A    between atoms: O_4  and  C_5
REMARK    4  A    between atoms: N_16  and  C_17
REMARK    5  A    between atoms: C_17  and  C_18
REMARK    6  A    between atoms: C_23  and  C_24
REMARK    7  A    between atoms: C_23  and  C_25
REMARK                            x       y       z     vdW  Elec       q    Type
REMARK                         _______ _______ _______ _____ _____    ______ ____
ROOT
ATOM      1  C   UNL     1       0.720  13.012  18.981  0.00  0.00    +0.000 C 
ATOM      2  C   UNL     1      -0.753  12.782  18.971  0.00  0.00    +0.000 C 
ATOM      3  C   UNL     1      -1.569  12.869  20.035  0.00  0.00    +0.000 C 
ATOM      4  C   UNL     1      -3.033  12.592  19.925  0.00  0.00    +0.000 A 
ATOM      5  C   UNL     1      -3.661  12.217  18.716  0.00  0.00    +0.000 A 
ATOM      6  C   UNL     1      -5.016  11.952  18.724  0.00  0.00    +0.000 A 
ATOM      7  C   UNL     1      -5.784  12.118  19.844  0.00  0.00    +0.000 A 
ATOM      8  C   UNL     1      -5.225  12.481  21.047  0.00  0.00    +0.000 A 
ATOM      9  C   UNL     1      -3.831  12.641  21.097  0.00  0.00    +0.000 A 
ATOM     10  C   UNL     1      -3.170  12.497  22.422  0.00  0.00    +0.000 C 
ATOM     11  O   UNL     1      -3.844  12.167  23.395  0.00  0.00    +0.000 OA
ATOM     12  N   UNL     1      -1.775  12.497  22.414  0.00  0.00    +0.000 N 
ATOM     13  C   UNL     1      -1.054  13.311  21.406  0.00  0.00    +0.000 C 
ATOM     14  C   UNL     1       0.510  13.390  21.545  0.00  0.00    +0.000 C 
ATOM     15  O   UNL     1       0.926  14.488  22.413  0.00  0.00    +0.000 OA
ATOM     16  C   UNL     1       1.679  15.399  21.590  0.00  0.00    +0.000 C 
ATOM     17  C   UNL     1       3.194  15.189  21.786  0.00  0.00    +0.000 C 
ATOM     18  C   UNL     1       1.364  16.845  21.962  0.00  0.00    +0.000 C 
ATOM     19  O   UNL     1       1.330  15.108  20.225  0.00  0.00    +0.000 OA
ATOM     20  C   UNL     1       1.251  13.673  20.248  0.00  0.00    +0.000 C 
ATOM     21  O   UNL     1      -7.087  11.779  19.637  0.00  0.00    +0.000 OA
ATOM     22  C   UNL     1      -6.972  11.126  18.360  0.00  0.00    +0.000 C 
ATOM     23  O   UNL     1      -5.738  11.449  17.681  0.00  0.00    +0.000 OA
ENDROOT
BRANCH   1  24
ATOM     24  O   UNL     1       1.364  11.727  18.907  0.00  0.00    +0.000 OA
BRANCH  24  25
ATOM     25  C   UNL     1       0.473  10.637  18.707  0.00  0.00    +0.000 C 
BRANCH  25  27
ATOM     26  C   UNL     1       2.043   8.844  17.942  0.00  0.00    +0.000 C 
ATOM     27  C   UNL     1       1.261   9.381  18.887  0.00  0.00    +0.000 C 
ENDBRANCH  25  27
ENDBRANCH  24  25
ENDBRANCH   1  24
BRANCH  12  28
ATOM     28  C   UNL     1      -1.140  11.447  23.200  0.00  0.00    +0.000 C 
BRANCH  28  29
ATOM     29  C   UNL     1      -0.761  10.305  22.318  0.00  0.00    +0.000 C 
ATOM     30  C   UNL     1      -0.115   9.205  22.720  0.00  0.00    +0.000 C 
ENDBRANCH  28  29
ENDBRANCH  12  28
TORSDOF 5
ENDMDL
MODEL 5
REMARK VINA RESULT:      -6.5      2.690      7.904
REMARK  Name = 
REMARK  7 active torsions:
REMARK  status: ('A' for Active; 'I' for Inactive)
REMARK    1  A    between atoms: C_2  and  C_3
REMARK    2  A    between atoms: C_3  and  O_4
REMARK    3  A    between atoms: O_4  and  C_5
REMARK    4  A    between atoms: N_16  and  C_17
REMARK    5  A    between atoms: C_17  and  C_18
REMARK    6  A    between atoms: C_23  and  C_24
REMARK    7  A    between atoms: C_23  and  C_25
REMARK                            x       y       z     vdW  Elec       q    Type
REMARK                         _______ _______ _______ _____ _____    ______ ____
ROOT
ATOM      1  C   UNL     1       1.684  12.121  18.185  0.00  0.00    +0.000 C 
ATOM      2  C   UNL     1       2.261  10.766  17.951  0.00  0.00    +0.000 C 
ATOM      3  C   UNL     1       1.866   9.630  18.550  0.00  0.00    +0.000 C 
ATOM      4  C   UNL     1       2.530   8.323  18.265  0.00  0.00    +0.000 A 
ATOM      5  C   UNL     1       3.610   8.183  17.363  0.00  0.00    +0.000 A 
ATOM      6  C   UNL     1       4.176   6.935  17.191  0.00  0.00    +0.000 A 
ATOM      7  C   UNL     1       3.676   5.817  17.803  0.00  0.00    +0.000 A 
ATOM      8  C   UNL     1       2.627   5.896  18.688  0.00  0.00    +0.000 A 
ATOM      9  C   UNL     1       2.108   7.169  18.975  0.00  0.00    +0.000 A 
ATOM     10  C   UNL     1       1.390   7.344  20.266  0.00  0.00    +0.000 C 
ATOM     11  O   UNL     1       1.349   6.407  21.060  0.00  0.00    +0.000 OA
ATOM     12  N   UNL     1       1.032   8.651  20.595  0.00  0.00    +0.000 N 
ATOM     13  C   UNL     1       0.680   9.603  19.515  0.00  0.00    +0.000 C 
ATOM     14  C   UNL     1       0.139  11.011  19.957  0.00  0.00    +0.000 C 
ATOM     15  O   UNL     1      -1.311  11.009  20.132  0.00  0.00    +0.000 OA
ATOM     16  C   UNL     1      -1.845  11.918  19.152  0.00  0.00    +0.000 C 
ATOM     17  C   UNL     1      -2.163  13.286  19.790  0.00  0.00    +0.000 C 
ATOM     18  C   UNL     1      -3.142  11.373  18.563  0.00  0.00    +0.000 C 
ATOM     19  O   UNL     1      -0.828  12.086  18.148  0.00  0.00    +0.000 OA
ATOM     20  C   UNL     1       0.365  12.126  18.948  0.00  0.00    +0.000 C 
ATOM     21  O   UNL     1       4.398   4.699  17.513  0.00  0.00    +0.000 OA
ATOM     22  C   UNL     1       5.548   5.301  16.893  0.00  0.00    +0.000 C 
ATOM     23  O   UNL     1       5.302   6.662  16.470  0.00  0.00    +0.000 OA
ENDROOT
BRANCH   1  24
ATOM     24  O   UNL     1       2.614  12.858  19.000  0.00  0.00    +0.000 OA
BRANCH  24  25
ATOM     25  C   UNL     1       2.432  14.268  18.966  0.00  0.00    +0.000 C 
BRANCH  25  27
ATOM     26  C   UNL     1       3.359  16.093  17.526  0.00  0.00    +0.000 C 
ATOM     27  C   UNL     1       3.242  14.793  17.827  0.00  0.00    +0.000 C 
ENDBRANCH  25  27
ENDBRANCH  24  25
ENDBRANCH   1  24
BRANCH  12  28
ATOM     28  C   UNL     1       1.338   9.064  21.959  0.00  0.00    +0.000 C 
BRANCH  28  29
ATOM     29  C   UNL     1       0.104   9.026  22.795  0.00  0.00    +0.000 C 
ATOM     30  C   UNL     1      -0.474  10.090  23.363  0.00  0.00    +0.000 C 
ENDBRANCH  28  29
ENDBRANCH  12  28
TORSDOF 5
ENDMDL
MODEL 6
REMARK VINA RESULT:      -6.4      7.142     11.178
REMARK  Name = 
REMARK  7 active torsions:
REMARK  status: ('A' for Active; 'I' for Inactive)
REMARK    1  A    between atoms: C_2  and  C_3
REMARK    2  A    between atoms: C_3  and  O_4
REMARK    3  A    between atoms: O_4  and  C_5
REMARK    4  A    between atoms: N_16  and  C_17
REMARK    5  A    between atoms: C_17  and  C_18
REMARK    6  A    between atoms: C_23  and  C_24
REMARK    7  A    between atoms: C_23  and  C_25
REMARK                            x       y       z     vdW  Elec       q    Type
REMARK                         _______ _______ _______ _____ _____    ______ ____
ROOT
ATOM      1  C   UNL     1      -1.671  12.375  22.351  0.00  0.00    +0.000 C 
ATOM      2  C   UNL     1      -2.013  12.028  20.942  0.00  0.00    +0.000 C 
ATOM      3  C   UNL     1      -3.173  12.308  20.323  0.00  0.00    +0.000 C 
ATOM      4  C   UNL     1      -3.428  11.893  18.912  0.00  0.00    +0.000 A 
ATOM      5  C   UNL     1      -2.489  11.180  18.133  0.00  0.00    +0.000 A 
ATOM      6  C   UNL     1      -2.833  10.813  16.846  0.00  0.00    +0.000 A 
ATOM      7  C   UNL     1      -4.019  11.187  16.274  0.00  0.00    +0.000 A 
ATOM      8  C   UNL     1      -4.968  11.882  16.987  0.00  0.00    +0.000 A 
ATOM      9  C   UNL     1      -4.696  12.164  18.335  0.00  0.00    +0.000 A 
ATOM     10  C   UNL     1      -5.856  12.407  19.234  0.00  0.00    +0.000 C 
ATOM     11  O   UNL     1      -6.995  12.274  18.792  0.00  0.00    +0.000 OA
ATOM     12  N   UNL     1      -5.564  12.521  20.593  0.00  0.00    +0.000 N 
ATOM     13  C   UNL     1      -4.274  13.117  21.013  0.00  0.00    +0.000 C 
ATOM     14  C   UNL     1      -4.069  13.356  22.552  0.00  0.00    +0.000 C 
ATOM     15  O   UNL     1      -4.562  14.666  22.971  0.00  0.00    +0.000 OA
ATOM     16  C   UNL     1      -3.420  15.404  23.442  0.00  0.00    +0.000 C 
ATOM     17  C   UNL     1      -3.345  15.375  24.982  0.00  0.00    +0.000 C 
ATOM     18  C   UNL     1      -3.510  16.866  23.014  0.00  0.00    +0.000 C 
ATOM     19  O   UNL     1      -2.256  14.757  22.897  0.00  0.00    +0.000 OA
ATOM     20  C   UNL     1      -2.619  13.370  23.009  0.00  0.00    +0.000 C 
ATOM     21  O   UNL     1      -4.163  10.701  15.010  0.00  0.00    +0.000 OA
ATOM     22  C   UNL     1      -3.071   9.764  14.980  0.00  0.00    +0.000 C 
ATOM     23  O   UNL     1      -2.100  10.011  16.022  0.00  0.00    +0.000 OA
ENDROOT
BRANCH   1  24
ATOM     24  O   UNL     1      -1.760  11.169  23.132  0.00  0.00    +0.000 OA
BRANCH  24  25
ATOM     25  C   UNL     1      -0.535  10.456  23.249  0.00  0.00    +0.000 C 
BRANCH  25  27
ATOM     26  C   UNL     1      -0.036   8.758  21.479  0.00  0.00    +0.000 C 
ATOM     27  C   UNL     1      -0.721   9.141  22.564  0.00  0.00    +0.000 C 
ENDBRANCH  25  27
ENDBRANCH  24  25
ENDBRANCH   1  24
BRANCH  12  28
ATOM     28  C   UNL     1      -6.422  11.754  21.488  0.00  0.00    +0.000 C 
BRANCH  28  29
ATOM     29  C   UNL     1      -7.473  12.637  22.071  0.00  0.00    +0.000 C 
ATOM     30  C   UNL     1      -7.743  12.755  23.376  0.00  0.00    +0.000 C 
ENDBRANCH  28  29
ENDBRANCH  12  28
TORSDOF 5
ENDMDL
MODEL 7
REMARK VINA RESULT:      -6.4      3.896      9.268
REMARK  Name = 
REMARK  7 active torsions:
REMARK  status: ('A' for Active; 'I' for Inactive)
REMARK    1  A    between atoms: C_2  and  C_3
REMARK    2  A    between atoms: C_3  and  O_4
REMARK    3  A    between atoms: O_4  and  C_5
REMARK    4  A    between atoms: N_16  and  C_17
REMARK    5  A    between atoms: C_17  and  C_18
REMARK    6  A    between atoms: C_23  and  C_24
REMARK    7  A    between atoms: C_23  and  C_25
REMARK                            x       y       z     vdW  Elec       q    Type
REMARK                         _______ _______ _______ _____ _____    ______ ____
ROOT
ATOM      1  C   UNL     1      -0.813  11.457  22.891  0.00  0.00    +0.000 C 
ATOM      2  C   UNL     1      -0.127  10.267  22.311  0.00  0.00    +0.000 C 
ATOM      3  C   UNL     1       0.449  10.205  21.099  0.00  0.00    +0.000 C 
ATOM      4  C   UNL     1       1.090   8.952  20.598  0.00  0.00    +0.000 A 
ATOM      5  C   UNL     1       1.134   7.753  21.346  0.00  0.00    +0.000 A 
ATOM      6  C   UNL     1       1.722   6.638  20.782  0.00  0.00    +0.000 A 
ATOM      7  C   UNL     1       2.334   6.678  19.558  0.00  0.00    +0.000 A 
ATOM      8  C   UNL     1       2.322   7.818  18.790  0.00  0.00    +0.000 A 
ATOM      9  C   UNL     1       1.627   8.932  19.285  0.00  0.00    +0.000 A 
ATOM     10  C   UNL     1       1.147   9.938  18.299  0.00  0.00    +0.000 C 
ATOM     11  O   UNL     1       1.301   9.721  17.099  0.00  0.00    +0.000 OA
ATOM     12  N   UNL     1       0.322  10.943  18.802  0.00  0.00    +0.000 N 
ATOM     13  C   UNL     1       0.529  11.430  20.186  0.00  0.00    +0.000 C 
ATOM     14  C   UNL     1      -0.330  12.665  20.641  0.00  0.00    +0.000 C 
ATOM     15  O   UNL     1       0.328  13.932  20.328  0.00  0.00    +0.000 OA
ATOM     16  C   UNL     1       0.599  14.576  21.586  0.00  0.00    +0.000 C 
ATOM     17  C   UNL     1      -0.463  15.653  21.890  0.00  0.00    +0.000 C 
ATOM     18  C   UNL     1       1.958  15.269  21.554  0.00  0.00    +0.000 C 
ATOM     19  O   UNL     1       0.541  13.553  22.596  0.00  0.00    +0.000 OA
ATOM     20  C   UNL     1      -0.568  12.760  22.140  0.00  0.00    +0.000 C 
ATOM     21  O   UNL     1       2.828   5.465  19.185  0.00  0.00    +0.000 OA
ATOM     22  C   UNL     1       2.206   4.629  20.177  0.00  0.00    +0.000 C 
ATOM     23  O   UNL     1       1.722   5.381  21.312  0.00  0.00    +0.000 OA
ENDROOT
BRANCH   1  24
ATOM     24  O   UNL     1      -2.231  11.221  22.820  0.00  0.00    +0.000 OA
BRANCH  24  25
ATOM     25  C   UNL     1      -3.024  12.401  22.870  0.00  0.00    +0.000 C 
BRANCH  25  27
ATOM     26  C   UNL     1      -5.057  12.763  24.283  0.00  0.00    +0.000 C 
ATOM     27  C   UNL     1      -3.783  12.372  24.156  0.00  0.00    +0.000 C 
ENDBRANCH  25  27
ENDBRANCH  24  25
ENDBRANCH   1  24
BRANCH  12  28
ATOM     28  C   UNL     1      -0.883  11.215  18.029  0.00  0.00    +0.000 C 
BRANCH  28  29
ATOM     29  C   UNL     1      -1.877  10.120  18.227  0.00  0.00    +0.000 C 
ATOM     30  C   UNL     1      -2.916   9.870  17.423  0.00  0.00    +0.000 C 
ENDBRANCH  28  29
ENDBRANCH  12  28
TORSDOF 5
ENDMDL
MODEL 8
REMARK VINA RESULT:      -6.1      5.696      9.474
REMARK  Name = 
REMARK  7 active torsions:
REMARK  status: ('A' for Active; 'I' for Inactive)
REMARK    1  A    between atoms: C_2  and  C_3
REMARK    2  A    between atoms: C_3  and  O_4
REMARK    3  A    between atoms: O_4  and  C_5
REMARK    4  A    between atoms: N_16  and  C_17
REMARK    5  A    between atoms: C_17  and  C_18
REMARK    6  A    between atoms: C_23  and  C_24
REMARK    7  A    between atoms: C_23  and  C_25
REMARK                            x       y       z     vdW  Elec       q    Type
REMARK                         _______ _______ _______ _____ _____    ______ ____
ROOT
ATOM      1  C   UNL     1      -0.214  13.590  19.625  0.00  0.00    +0.000 C 
ATOM      2  C   UNL     1      -1.620  13.670  20.114  0.00  0.00    +0.000 C 
ATOM      3  C   UNL     1      -2.601  12.795  19.832  0.00  0.00    +0.000 C 
ATOM      4  C   UNL     1      -3.989  12.980  20.351  0.00  0.00    +0.000 A 
ATOM      5  C   UNL     1      -4.374  14.073  21.160  0.00  0.00    +0.000 A 
ATOM      6  C   UNL     1      -5.691  14.172  21.564  0.00  0.00    +0.000 A 
ATOM      7  C   UNL     1      -6.616  13.205  21.276  0.00  0.00    +0.000 A 
ATOM      8  C   UNL     1      -6.295  12.120  20.494  0.00  0.00    +0.000 A 
ATOM      9  C   UNL     1      -4.995  12.055  19.968  0.00  0.00    +0.000 A 
ATOM     10  C   UNL     1      -4.788  11.239  18.742  0.00  0.00    +0.000 C 
ATOM     11  O   UNL     1      -5.762  10.727  18.193  0.00  0.00    +0.000 OA
ATOM     12  N   UNL     1      -3.528  11.327  18.153  0.00  0.00    +0.000 N 
ATOM     13  C   UNL     1      -2.336  11.532  19.010  0.00  0.00    +0.000 C 
ATOM     14  C   UNL     1      -0.934  11.470  18.304  0.00  0.00    +0.000 C 
ATOM     15  O   UNL     1      -0.402  10.110  18.265  0.00  0.00    +0.000 OA
ATOM     16  C   UNL     1       0.803  10.117  19.053  0.00  0.00    +0.000 C 
ATOM     17  C   UNL     1       2.048  10.209  18.147  0.00  0.00    +0.000 C 
ATOM     18  C   UNL     1       0.922   8.831  19.865  0.00  0.00    +0.000 C 
ATOM     19  O   UNL     1       0.740  11.281  19.895  0.00  0.00    +0.000 OA
ATOM     20  C   UNL     1       0.167  12.252  19.003  0.00  0.00    +0.000 C 
ATOM     21  O   UNL     1      -7.855  13.512  21.750  0.00  0.00    +0.000 OA
ATOM     22  C   UNL     1      -7.647  14.890  22.108  0.00  0.00    +0.000 C 
ATOM     23  O   UNL     1      -6.247  15.228  22.225  0.00  0.00    +0.000 OA
ENDROOT
BRANCH   1  24
ATOM     24  O   UNL     1      -0.057  14.569  18.582  0.00  0.00    +0.000 OA
BRANCH  24  25
ATOM     25  C   UNL     1       1.056  15.437  18.758  0.00  0.00    +0.000 C 
BRANCH  25  27
ATOM     26  C   UNL     1      -0.697  17.146  18.239  0.00  0.00    +0.000 C 
ATOM     27  C   UNL     1       0.570  16.832  18.537  0.00  0.00    +0.000 C 
ENDBRANCH  25  27
ENDBRANCH  24  25
ENDBRANCH   1  24
BRANCH  12  28
ATOM     28  C   UNL     1      -3.519  11.523  16.708  0.00  0.00    +0.000 C 
BRANCH  28  29
ATOM     29  C   UNL     1      -3.184  10.243  16.019  0.00  0.00    +0.000 C 
ATOM     30  C   UNL     1      -3.074  10.088  14.695  0.00  0.00    +0.000 C 
ENDBRANCH  28  29
ENDBRANCH  12  28
TORSDOF 5
ENDMDL
MODEL 9
REMARK VINA RESULT:      -6.1      5.438      9.364
REMARK  Name = 
REMARK  7 active torsions:
REMARK  status: ('A' for Active; 'I' for Inactive)
REMARK    1  A    between atoms: C_2  and  C_3
REMARK    2  A    between atoms: C_3  and  O_4
REMARK    3  A    between atoms: O_4  and  C_5
REMARK    4  A    between atoms: N_16  and  C_17
REMARK    5  A    between atoms: C_17  and  C_18
REMARK    6  A    between atoms: C_23  and  C_24
REMARK    7  A    between atoms: C_23  and  C_25
REMARK                            x       y       z     vdW  Elec       q    Type
REMARK                         _______ _______ _______ _____ _____    ______ ____
ROOT
ATOM      1  C   UNL     1      -0.265  12.451  18.503  0.00  0.00    +0.000 C 
ATOM      2  C   UNL     1      -1.702  12.342  18.890  0.00  0.00    +0.000 C 
ATOM      3  C   UNL     1      -2.278  12.936  19.949  0.00  0.00    +0.000 C 
ATOM      4  C   UNL     1      -3.724  12.741  20.266  0.00  0.00    +0.000 A 
ATOM      5  C   UNL     1      -4.583  11.927  19.494  0.00  0.00    +0.000 A 
ATOM      6  C   UNL     1      -5.899  11.787  19.888  0.00  0.00    +0.000 A 
ATOM      7  C   UNL     1      -6.418  12.472  20.952  0.00  0.00    +0.000 A 
ATOM      8  C   UNL     1      -5.627  13.279  21.737  0.00  0.00    +0.000 A 
ATOM      9  C   UNL     1      -4.258  13.347  21.433  0.00  0.00    +0.000 A 
ATOM     10  C   UNL     1      -3.330  13.741  22.525  0.00  0.00    +0.000 C 
ATOM     11  O   UNL     1      -3.775  13.911  23.658  0.00  0.00    +0.000 OA
ATOM     12  N   UNL     1      -1.969  13.641  22.239  0.00  0.00    +0.000 N 
ATOM     13  C   UNL     1      -1.496  13.888  20.856  0.00  0.00    +0.000 C 
ATOM     14  C   UNL     1       0.059  13.909  20.630  0.00  0.00    +0.000 C 
ATOM     15  O   UNL     1       0.621  15.243  20.830  0.00  0.00    +0.000 OA
ATOM     16  C   UNL     1       1.161  15.655  19.560  0.00  0.00    +0.000 C 
ATOM     17  C   UNL     1       2.689  15.445  19.520  0.00  0.00    +0.000 C 
ATOM     18  C   UNL     1       0.896  17.138  19.320  0.00  0.00    +0.000 C 
ATOM     19  O   UNL     1       0.541  14.830  18.559  0.00  0.00    +0.000 OA
ATOM     20  C   UNL     1       0.503  13.554  19.220  0.00  0.00    +0.000 C 
ATOM     21  O   UNL     1      -7.727  12.169  21.178  0.00  0.00    +0.000 OA
ATOM     22  C   UNL     1      -7.866  11.023  20.320  0.00  0.00    +0.000 C 
ATOM     23  O   UNL     1      -6.811  10.935  19.335  0.00  0.00    +0.000 OA
ENDROOT
BRANCH   1  24
ATOM     24  O   UNL     1       0.380  11.217  18.869  0.00  0.00    +0.000 OA
BRANCH  24  25
ATOM     25  C   UNL     1       1.747  11.137  18.487  0.00  0.00    +0.000 C 
BRANCH  25  27
ATOM     26  C   UNL     1       1.824   8.635  18.500  0.00  0.00    +0.000 C 
ATOM     27  C   UNL     1       1.953   9.800  17.852  0.00  0.00    +0.000 C 
ENDBRANCH  25  27
ENDBRANCH  24  25
ENDBRANCH   1  24
BRANCH  12  28
ATOM     28  C   UNL     1      -1.156  12.991  23.259  0.00  0.00    +0.000 C 
BRANCH  28  29
ATOM     29  C   UNL     1      -1.320  11.510  23.179  0.00  0.00    +0.000 C 
ATOM     30  C   UNL     1      -0.550  10.688  22.457  0.00  0.00    +0.000 C 
ENDBRANCH  28  29
ENDBRANCH  12  28
TORSDOF 5
ENDMDL
