MODEL 1
REMARK VINA RESULT:      -9.0      0.000      0.000
REMARK  Name = 
REMARK  5 active torsions:
REMARK  status: ('A' for Active; 'I' for Inactive)
REMARK    1  A    between atoms: C_1  and  O_2
REMARK    2  A    between atoms: O_2  and  C_3
REMARK    3  A    between atoms: C_8  and  N_9
REMARK    4  A    between atoms: C_16  and  C_17
REMARK    5  A    between atoms: C_17  and  C_18
REMARK                            x       y       z     vdW  Elec       q    Type
REMARK                         _______ _______ _______ _____ _____    ______ ____
ROOT
ATOM      1  N   UNL     1       9.394   9.569  19.242  0.00  0.00    +0.000 N 
ATOM      2  C   UNL     1       8.504   8.744  18.553  0.00  0.00    +0.000 C 
ATOM      3  O   UNL     1       7.753   9.158  17.677  0.00  0.00    +0.000 OA
ATOM      4  N   UNL     1       8.539   7.433  18.978  0.00  0.00    +0.000 N 
ATOM      5  C   UNL     1       7.681   6.437  18.551  0.00  0.00    +0.000 A 
ATOM      6  N   UNL     1       7.625   5.243  19.114  0.00  0.00    +0.000 NA
ATOM      7  N   UNL     1       6.681   4.418  18.522  0.00  0.00    +0.000 NA
ATOM      8  C   UNL     1       6.056   5.008  17.522  0.00  0.00    +0.000 A 
ATOM      9  S   UNL     1       6.596   6.612  17.235  0.00  0.00    +0.000 S 
ATOM     10  H   UNL     1      10.270   9.175  19.562  0.00  0.00    +0.000 HD
ATOM     11  H   UNL     1       9.098   7.186  19.779  0.00  0.00    +0.000 HD
ENDROOT
BRANCH   1  17
ATOM     12  C   UNL     1       9.145  11.770  20.331  0.00  0.00    +0.000 A 
ATOM     13  C   UNL     1       9.219  13.172  20.251  0.00  0.00    +0.000 A 
ATOM     14  C   UNL     1       9.425  13.812  19.029  0.00  0.00    +0.000 A 
ATOM     15  C   UNL     1       9.552  13.058  17.873  0.00  0.00    +0.000 A 
ATOM     16  C   UNL     1       9.517  11.666  17.948  0.00  0.00    +0.000 A 
ATOM     17  C   UNL     1       9.364  10.997  19.172  0.00  0.00    +0.000 A 
BRANCH  12  19
ATOM     18  C   UNL     1       8.327  11.921  22.543  0.00  0.00    +0.000 C 
ATOM     19  O   UNL     1       8.898  11.106  21.514  0.00  0.00    +0.000 OA
ENDBRANCH  12  19
ENDBRANCH   1  17
BRANCH   8  20
ATOM     20  C   UNL     1       5.025   4.368  16.638  0.00  0.00    +0.000 C 
BRANCH  20  21
ATOM     21  C   UNL     1       3.772   3.921  17.357  0.00  0.00    +0.000 A 
ATOM     22  C   UNL     1       3.499   2.561  17.567  0.00  0.00    +0.000 A 
ATOM     23  C   UNL     1       2.322   2.162  18.210  0.00  0.00    +0.000 A 
ATOM     24  C   UNL     1       1.399   3.113  18.645  0.00  0.00    +0.000 A 
ATOM     25  C   UNL     1       1.649   4.467  18.428  0.00  0.00    +0.000 A 
ATOM     26  C   UNL     1       2.823   4.857  17.786  0.00  0.00    +0.000 A 
ATOM     27  F   UNL     1       3.027   6.164  17.569  0.00  0.00    +0.000 F 
ENDBRANCH  20  21
ENDBRANCH   8  20
TORSDOF 4
ENDMDL
MODEL 2
REMARK VINA RESULT:      -8.9      0.961      1.359
REMARK  Name = 
REMARK  5 active torsions:
REMARK  status: ('A' for Active; 'I' for Inactive)
REMARK    1  A    between atoms: C_1  and  O_2
REMARK    2  A    between atoms: O_2  and  C_3
REMARK    3  A    between atoms: C_8  and  N_9
REMARK    4  A    between atoms: C_16  and  C_17
REMARK    5  A    between atoms: C_17  and  C_18
REMARK                            x       y       z     vdW  Elec       q    Type
REMARK                         _______ _______ _______ _____ _____    ______ ____
ROOT
ATOM      1  N   UNL     1       9.362   9.407  19.186  0.00  0.00    +0.000 N 
ATOM      2  C   UNL     1       8.448   8.592  18.518  0.00  0.00    +0.000 C 
ATOM      3  O   UNL     1       7.706   9.008  17.635  0.00  0.00    +0.000 OA
ATOM      4  N   UNL     1       8.449   7.289  18.970  0.00  0.00    +0.000 N 
ATOM      5  C   UNL     1       7.564   6.309  18.566  0.00  0.00    +0.000 A 
ATOM      6  N   UNL     1       7.478   5.128  19.153  0.00  0.00    +0.000 NA
ATOM      7  N   UNL     1       6.510   4.317  18.580  0.00  0.00    +0.000 NA
ATOM      8  C   UNL     1       5.898   4.903  17.570  0.00  0.00    +0.000 A 
ATOM      9  S   UNL     1       6.479   6.485  17.249  0.00  0.00    +0.000 S 
ATOM     10  H   UNL     1      10.228   8.997  19.512  0.00  0.00    +0.000 HD
ATOM     11  H   UNL     1       9.004   7.044  19.774  0.00  0.00    +0.000 HD
ENDROOT
BRANCH   1  17
ATOM     12  C   UNL     1       9.231  11.636  20.239  0.00  0.00    +0.000 A 
ATOM     13  C   UNL     1       9.341  13.033  20.125  0.00  0.00    +0.000 A 
ATOM     14  C   UNL     1       9.506  13.642  18.881  0.00  0.00    +0.000 A 
ATOM     15  C   UNL     1       9.553  12.861  17.737  0.00  0.00    +0.000 A 
ATOM     16  C   UNL     1       9.481  11.473  17.844  0.00  0.00    +0.000 A 
ATOM     17  C   UNL     1       9.370  10.834  19.087  0.00  0.00    +0.000 A 
BRANCH  12  19
ATOM     18  C   UNL     1       8.280  11.773  22.398  0.00  0.00    +0.000 C 
ATOM     19  O   UNL     1       9.024  11.003  21.446  0.00  0.00    +0.000 OA
ENDBRANCH  12  19
ENDBRANCH   1  17
BRANCH   8  20
ATOM     20  C   UNL     1       4.847   4.273  16.702  0.00  0.00    +0.000 C 
BRANCH  20  21
ATOM     21  C   UNL     1       3.569   3.912  17.425  0.00  0.00    +0.000 A 
ATOM     22  C   UNL     1       2.648   4.897  17.812  0.00  0.00    +0.000 A 
ATOM     23  C   UNL     1       1.482   4.550  18.504  0.00  0.00    +0.000 A 
ATOM     24  C   UNL     1       1.224   3.218  18.826  0.00  0.00    +0.000 A 
ATOM     25  C   UNL     1       2.138   2.231  18.462  0.00  0.00    +0.000 A 
ATOM     26  C   UNL     1       3.297   2.583  17.774  0.00  0.00    +0.000 A 
ATOM     27  F   UNL     1       4.170   1.616  17.457  0.00  0.00    +0.000 F 
ENDBRANCH  20  21
ENDBRANCH   8  20
TORSDOF 4
ENDMDL
MODEL 3
REMARK VINA RESULT:      -8.1      1.005      1.873
REMARK  Name = 
REMARK  5 active torsions:
REMARK  status: ('A' for Active; 'I' for Inactive)
REMARK    1  A    between atoms: C_1  and  O_2
REMARK    2  A    between atoms: O_2  and  C_3
REMARK    3  A    between atoms: C_8  and  N_9
REMARK    4  A    between atoms: C_16  and  C_17
REMARK    5  A    between atoms: C_17  and  C_18
REMARK                            x       y       z     vdW  Elec       q    Type
REMARK                         _______ _______ _______ _____ _____    ______ ____
ROOT
ATOM      1  N   UNL     1       9.519   9.713  19.573  0.00  0.00    +0.000 N 
ATOM      2  C   UNL     1       8.603   8.977  18.820  0.00  0.00    +0.000 C 
ATOM      3  O   UNL     1       7.789   9.499  18.067  0.00  0.00    +0.000 OA
ATOM      4  N   UNL     1       8.692   7.618  19.033  0.00  0.00    +0.000 N 
ATOM      5  C   UNL     1       7.829   6.675  18.509  0.00  0.00    +0.000 A 
ATOM      6  N   UNL     1       7.834   5.407  18.881  0.00  0.00    +0.000 NA
ATOM      7  N   UNL     1       6.870   4.655  18.226  0.00  0.00    +0.000 NA
ATOM      8  C   UNL     1       6.170   5.373  17.370  0.00  0.00    +0.000 A 
ATOM      9  S   UNL     1       6.658   7.018  17.305  0.00  0.00    +0.000 S 
ATOM     10  H   UNL     1      10.422   9.301  19.774  0.00  0.00    +0.000 HD
ATOM     11  H   UNL     1       9.307   7.267  19.750  0.00  0.00    +0.000 HD
ENDROOT
BRANCH   1  17
ATOM     12  C   UNL     1      10.011  11.989  18.755  0.00  0.00    +0.000 A 
ATOM     13  C   UNL     1       9.848  13.380  18.884  0.00  0.00    +0.000 A 
ATOM     14  C   UNL     1       9.217  13.929  20.000  0.00  0.00    +0.000 A 
ATOM     15  C   UNL     1       8.749  13.094  21.002  0.00  0.00    +0.000 A 
ATOM     16  C   UNL     1       8.874  11.712  20.866  0.00  0.00    +0.000 A 
ATOM     17  C   UNL     1       9.456  11.133  19.729  0.00  0.00    +0.000 A 
BRANCH  12  19
ATOM     18  C   UNL     1      11.659  12.253  17.080  0.00  0.00    +0.000 C 
ATOM     19  O   UNL     1      10.669  11.414  17.688  0.00  0.00    +0.000 OA
ENDBRANCH  12  19
ENDBRANCH   1  17
BRANCH   8  20
ATOM     20  C   UNL     1       5.097   4.847  16.462  0.00  0.00    +0.000 C 
BRANCH  20  21
ATOM     21  C   UNL     1       3.918   4.226  17.176  0.00  0.00    +0.000 A 
ATOM     22  C   UNL     1       3.759   2.835  17.250  0.00  0.00    +0.000 A 
ATOM     23  C   UNL     1       2.648   2.276  17.892  0.00  0.00    +0.000 A 
ATOM     24  C   UNL     1       1.677   3.099  18.462  0.00  0.00    +0.000 A 
ATOM     25  C   UNL     1       1.813   4.484  18.382  0.00  0.00    +0.000 A 
ATOM     26  C   UNL     1       2.921   5.033  17.741  0.00  0.00    +0.000 A 
ATOM     27  F   UNL     1       3.014   6.368  17.659  0.00  0.00    +0.000 F 
ENDBRANCH  20  21
ENDBRANCH   8  20
TORSDOF 4
ENDMDL
MODEL 4
REMARK VINA RESULT:      -8.0      5.921      8.471
REMARK  Name = 
REMARK  5 active torsions:
REMARK  status: ('A' for Active; 'I' for Inactive)
REMARK    1  A    between atoms: C_1  and  O_2
REMARK    2  A    between atoms: O_2  and  C_3
REMARK    3  A    between atoms: C_8  and  N_9
REMARK    4  A    between atoms: C_16  and  C_17
REMARK    5  A    between atoms: C_17  and  C_18
REMARK                            x       y       z     vdW  Elec       q    Type
REMARK                         _______ _______ _______ _____ _____    ______ ____
ROOT
ATOM      1  N   UNL     1       3.983   5.582  19.390  0.00  0.00    +0.000 N 
ATOM      2  C   UNL     1       3.201   6.707  19.130  0.00  0.00    +0.000 C 
ATOM      3  O   UNL     1       3.288   7.355  18.093  0.00  0.00    +0.000 OA
ATOM      4  N   UNL     1       2.347   7.026  20.166  0.00  0.00    +0.000 N 
ATOM      5  C   UNL     1       1.553   8.155  20.220  0.00  0.00    +0.000 A 
ATOM      6  N   UNL     1       0.890   8.519  21.303  0.00  0.00    +0.000 NA
ATOM      7  N   UNL     1       0.172   9.692  21.120  0.00  0.00    +0.000 NA
ATOM      8  C   UNL     1       0.304  10.175  19.901  0.00  0.00    +0.000 A 
ATOM      9  S   UNL     1       1.309   9.216  18.895  0.00  0.00    +0.000 S 
ATOM     10  H   UNL     1       3.591   4.839  19.954  0.00  0.00    +0.000 HD
ATOM     11  H   UNL     1       2.409   6.518  21.033  0.00  0.00    +0.000 HD
ENDROOT
BRANCH   1  17
ATOM     12  C   UNL     1       4.962   4.350  17.487  0.00  0.00    +0.000 A 
ATOM     13  C   UNL     1       6.072   4.076  16.670  0.00  0.00    +0.000 A 
ATOM     14  C   UNL     1       7.338   4.570  16.987  0.00  0.00    +0.000 A 
ATOM     15  C   UNL     1       7.507   5.337  18.128  0.00  0.00    +0.000 A 
ATOM     16  C   UNL     1       6.405   5.645  18.925  0.00  0.00    +0.000 A 
ATOM     17  C   UNL     1       5.113   5.205  18.599  0.00  0.00    +0.000 A 
BRANCH  12  19
ATOM     18  C   UNL     1       3.486   2.521  17.736  0.00  0.00    +0.000 C 
ATOM     19  O   UNL     1       3.706   3.842  17.229  0.00  0.00    +0.000 OA
ENDBRANCH  12  19
ENDBRANCH   1  17
BRANCH   8  20
ATOM     20  C   UNL     1      -0.392  11.394  19.366  0.00  0.00    +0.000 C 
BRANCH  20  21
ATOM     21  C   UNL     1      -1.750  11.126  18.759  0.00  0.00    +0.000 A 
ATOM     22  C   UNL     1      -1.941  10.098  17.823  0.00  0.00    +0.000 A 
ATOM     23  C   UNL     1      -3.199   9.880  17.250  0.00  0.00    +0.000 A 
ATOM     24  C   UNL     1      -4.280  10.689  17.597  0.00  0.00    +0.000 A 
ATOM     25  C   UNL     1      -4.102  11.725  18.512  0.00  0.00    +0.000 A 
ATOM     26  C   UNL     1      -2.847  11.937  19.078  0.00  0.00    +0.000 A 
ATOM     27  F   UNL     1      -2.698  12.955  19.938  0.00  0.00    +0.000 F 
ENDBRANCH  20  21
ENDBRANCH   8  20
TORSDOF 4
ENDMDL
MODEL 5
REMARK VINA RESULT:      -7.9      7.142      9.766
REMARK  Name = 
REMARK  5 active torsions:
REMARK  status: ('A' for Active; 'I' for Inactive)
REMARK    1  A    between atoms: C_1  and  O_2
REMARK    2  A    between atoms: O_2  and  C_3
REMARK    3  A    between atoms: C_8  and  N_9
REMARK    4  A    between atoms: C_16  and  C_17
REMARK    5  A    between atoms: C_17  and  C_18
REMARK                            x       y       z     vdW  Elec       q    Type
REMARK                         _______ _______ _______ _____ _____    ______ ____
ROOT
ATOM      1  N   UNL     1       2.635   5.892  20.326  0.00  0.00    +0.000 N 
ATOM      2  C   UNL     1       2.031   7.143  20.201  0.00  0.00    +0.000 C 
ATOM      3  O   UNL     1       1.929   7.730  19.130  0.00  0.00    +0.000 OA
ATOM      4  N   UNL     1       1.592   7.657  21.404  0.00  0.00    +0.000 N 
ATOM      5  C   UNL     1       1.069   8.923  21.581  0.00  0.00    +0.000 A 
ATOM      6  N   UNL     1       0.831   9.445  22.772  0.00  0.00    +0.000 NA
ATOM      7  N   UNL     1       0.319  10.731  22.698  0.00  0.00    +0.000 NA
ATOM      8  C   UNL     1       0.174  11.143  21.454  0.00  0.00    +0.000 A 
ATOM      9  S   UNL     1       0.648   9.972  20.292  0.00  0.00    +0.000 S 
ATOM     10  H   UNL     1       2.296   5.260  21.040  0.00  0.00    +0.000 HD
ATOM     11  H   UNL     1       1.810   7.172  22.259  0.00  0.00    +0.000 HD
ENDROOT
BRANCH   1  17
ATOM     12  C   UNL     1       2.778   4.401  18.363  0.00  0.00    +0.000 A 
ATOM     13  C   UNL     1       3.528   3.885  17.292  0.00  0.00    +0.000 A 
ATOM     14  C   UNL     1       4.891   4.157  17.172  0.00  0.00    +0.000 A 
ATOM     15  C   UNL     1       5.520   4.941  18.126  0.00  0.00    +0.000 A 
ATOM     16  C   UNL     1       4.777   5.487  19.172  0.00  0.00    +0.000 A 
ATOM     17  C   UNL     1       3.395   5.273  19.285  0.00  0.00    +0.000 A 
BRANCH  12  19
ATOM     18  C   UNL     1       1.136   2.719  18.605  0.00  0.00    +0.000 C 
ATOM     19  O   UNL     1       1.441   4.117  18.539  0.00  0.00    +0.000 OA
ENDBRANCH  12  19
ENDBRANCH   1  17
BRANCH   8  20
ATOM     20  C   UNL     1      -0.411  12.460  21.033  0.00  0.00    +0.000 C 
BRANCH  20  21
ATOM     21  C   UNL     1      -1.923  12.499  21.017  0.00  0.00    +0.000 A 
ATOM     22  C   UNL     1      -2.642  12.407  19.817  0.00  0.00    +0.000 A 
ATOM     23  C   UNL     1      -4.040  12.472  19.816  0.00  0.00    +0.000 A 
ATOM     24  C   UNL     1      -4.737  12.638  21.013  0.00  0.00    +0.000 A 
ATOM     25  C   UNL     1      -4.035  12.747  22.212  0.00  0.00    +0.000 A 
ATOM     26  C   UNL     1      -2.644  12.682  22.204  0.00  0.00    +0.000 A 
ATOM     27  F   UNL     1      -1.993  12.814  23.369  0.00  0.00    +0.000 F 
ENDBRANCH  20  21
ENDBRANCH   8  20
TORSDOF 4
ENDMDL
MODEL 6
REMARK VINA RESULT:      -7.9      6.992      9.632
REMARK  Name = 
REMARK  5 active torsions:
REMARK  status: ('A' for Active; 'I' for Inactive)
REMARK    1  A    between atoms: C_1  and  O_2
REMARK    2  A    between atoms: O_2  and  C_3
REMARK    3  A    between atoms: C_8  and  N_9
REMARK    4  A    between atoms: C_16  and  C_17
REMARK    5  A    between atoms: C_17  and  C_18
REMARK                            x       y       z     vdW  Elec       q    Type
REMARK                         _______ _______ _______ _____ _____    ______ ____
ROOT
ATOM      1  N   UNL     1       2.677   5.914  20.251  0.00  0.00    +0.000 N 
ATOM      2  C   UNL     1       2.086   7.172  20.128  0.00  0.00    +0.000 C 
ATOM      3  O   UNL     1       2.022   7.777  19.064  0.00  0.00    +0.000 OA
ATOM      4  N   UNL     1       1.610   7.668  21.324  0.00  0.00    +0.000 N 
ATOM      5  C   UNL     1       1.090   8.935  21.506  0.00  0.00    +0.000 A 
ATOM      6  N   UNL     1       0.816   9.438  22.696  0.00  0.00    +0.000 NA
ATOM      7  N   UNL     1       0.315  10.729  22.628  0.00  0.00    +0.000 NA
ATOM      8  C   UNL     1       0.214  11.162  21.387  0.00  0.00    +0.000 A 
ATOM      9  S   UNL     1       0.718  10.008  20.221  0.00  0.00    +0.000 S 
ATOM     10  H   UNL     1       2.311   5.272  20.943  0.00  0.00    +0.000 HD
ATOM     11  H   UNL     1       1.797   7.167  22.177  0.00  0.00    +0.000 HD
ENDROOT
BRANCH   1  17
ATOM     12  C   UNL     1       2.867   4.500  18.237  0.00  0.00    +0.000 A 
ATOM     13  C   UNL     1       3.653   3.997  17.184  0.00  0.00    +0.000 A 
ATOM     14  C   UNL     1       5.030   4.218  17.146  0.00  0.00    +0.000 A 
ATOM     15  C   UNL     1       5.636   4.936  18.164  0.00  0.00    +0.000 A 
ATOM     16  C   UNL     1       4.861   5.470  19.193  0.00  0.00    +0.000 A 
ATOM     17  C   UNL     1       3.468   5.308  19.225  0.00  0.00    +0.000 A 
BRANCH  12  19
ATOM     18  C   UNL     1       1.169   2.931  18.728  0.00  0.00    +0.000 C 
ATOM     19  O   UNL     1       1.512   4.264  18.330  0.00  0.00    +0.000 OA
ENDBRANCH  12  19
ENDBRANCH   1  17
BRANCH   8  20
ATOM     20  C   UNL     1      -0.349  12.490  20.969  0.00  0.00    +0.000 C 
BRANCH  20  21
ATOM     21  C   UNL     1      -1.859  12.562  20.976  0.00  0.00    +0.000 A 
ATOM     22  C   UNL     1      -2.575  12.751  22.167  0.00  0.00    +0.000 A 
ATOM     23  C   UNL     1      -3.973  12.789  22.160  0.00  0.00    +0.000 A 
ATOM     24  C   UNL     1      -4.676  12.631  20.966  0.00  0.00    +0.000 A 
ATOM     25  C   UNL     1      -3.979  12.427  19.777  0.00  0.00    +0.000 A 
ATOM     26  C   UNL     1      -2.587  12.389  19.791  0.00  0.00    +0.000 A 
ATOM     27  F   UNL     1      -1.943  12.167  18.636  0.00  0.00    +0.000 F 
ENDBRANCH  20  21
ENDBRANCH   8  20
TORSDOF 4
ENDMDL
MODEL 7
REMARK VINA RESULT:      -7.8      5.633      8.070
REMARK  Name = 
REMARK  5 active torsions:
REMARK  status: ('A' for Active; 'I' for Inactive)
REMARK    1  A    between atoms: C_1  and  O_2
REMARK    2  A    between atoms: O_2  and  C_3
REMARK    3  A    between atoms: C_8  and  N_9
REMARK    4  A    between atoms: C_16  and  C_17
REMARK    5  A    between atoms: C_17  and  C_18
REMARK                            x       y       z     vdW  Elec       q    Type
REMARK                         _______ _______ _______ _____ _____    ______ ____
ROOT
ATOM      1  N   UNL     1       4.050   5.293  18.547  0.00  0.00    +0.000 N 
ATOM      2  C   UNL     1       3.301   6.468  18.461  0.00  0.00    +0.000 C 
ATOM      3  O   UNL     1       3.345   7.217  17.492  0.00  0.00    +0.000 OA
ATOM      4  N   UNL     1       2.536   6.708  19.583  0.00  0.00    +0.000 N 
ATOM      5  C   UNL     1       1.798   7.854  19.810  0.00  0.00    +0.000 A 
ATOM      6  N   UNL     1       1.229   8.127  20.970  0.00  0.00    +0.000 NA
ATOM      7  N   UNL     1       0.552   9.337  20.961  0.00  0.00    +0.000 NA
ATOM      8  C   UNL     1       0.620   9.940  19.790  0.00  0.00    +0.000 A 
ATOM      9  S   UNL     1       1.511   9.055  18.621  0.00  0.00    +0.000 S 
ATOM     10  H   UNL     1       3.665   4.511  19.060  0.00  0.00    +0.000 HD
ATOM     11  H   UNL     1       2.635   6.110  20.388  0.00  0.00    +0.000 HD
ENDROOT
BRANCH   1  17
ATOM     12  C   UNL     1       6.446   4.930  18.078  0.00  0.00    +0.000 A 
ATOM     13  C   UNL     1       7.452   4.504  17.192  0.00  0.00    +0.000 A 
ATOM     14  C   UNL     1       7.155   4.188  15.866  0.00  0.00    +0.000 A 
ATOM     15  C   UNL     1       5.852   4.303  15.410  0.00  0.00    +0.000 A 
ATOM     16  C   UNL     1       4.842   4.689  16.290  0.00  0.00    +0.000 A 
ATOM     17  C   UNL     1       5.105   4.960  17.641  0.00  0.00    +0.000 A 
BRANCH  12  19
ATOM     18  C   UNL     1       8.043   5.764  19.608  0.00  0.00    +0.000 C 
ATOM     19  O   UNL     1       6.709   5.293  19.382  0.00  0.00    +0.000 OA
ENDBRANCH  12  19
ENDBRANCH   1  17
BRANCH   8  20
ATOM     20  C   UNL     1      -0.056  11.233  19.434  0.00  0.00    +0.000 C 
BRANCH  20  21
ATOM     21  C   UNL     1      -1.417  11.074  18.795  0.00  0.00    +0.000 A 
ATOM     22  C   UNL     1      -1.631  10.163  17.750  0.00  0.00    +0.000 A 
ATOM     23  C   UNL     1      -2.889  10.047  17.151  0.00  0.00    +0.000 A 
ATOM     24  C   UNL     1      -3.950  10.844  17.581  0.00  0.00    +0.000 A 
ATOM     25  C   UNL     1      -3.749  11.766  18.607  0.00  0.00    +0.000 A 
ATOM     26  C   UNL     1      -2.493  11.876  19.198  0.00  0.00    +0.000 A 
ATOM     27  F   UNL     1      -2.321  12.787  20.167  0.00  0.00    +0.000 F 
ENDBRANCH  20  21
ENDBRANCH   8  20
TORSDOF 4
ENDMDL
MODEL 8
REMARK VINA RESULT:      -7.8      7.250      9.910
REMARK  Name = 
REMARK  5 active torsions:
REMARK  status: ('A' for Active; 'I' for Inactive)
REMARK    1  A    between atoms: C_1  and  O_2
REMARK    2  A    between atoms: O_2  and  C_3
REMARK    3  A    between atoms: C_8  and  N_9
REMARK    4  A    between atoms: C_16  and  C_17
REMARK    5  A    between atoms: C_17  and  C_18
REMARK                            x       y       z     vdW  Elec       q    Type
REMARK                         _______ _______ _______ _____ _____    ______ ____
ROOT
ATOM      1  N   UNL     1       2.950   6.048  20.000  0.00  0.00    +0.000 N 
ATOM      2  C   UNL     1       2.148   7.188  19.963  0.00  0.00    +0.000 C 
ATOM      3  O   UNL     1       1.781   7.711  18.916  0.00  0.00    +0.000 OA
ATOM      4  N   UNL     1       1.837   7.675  21.215  0.00  0.00    +0.000 N 
ATOM      5  C   UNL     1       1.161   8.854  21.463  0.00  0.00    +0.000 A 
ATOM      6  N   UNL     1       1.044   9.379  22.670  0.00  0.00    +0.000 NA
ATOM      7  N   UNL     1       0.333  10.570  22.667  0.00  0.00    +0.000 NA
ATOM      8  C   UNL     1      -0.076  10.907  21.460  0.00  0.00    +0.000 A 
ATOM      9  S   UNL     1       0.376   9.777  20.249  0.00  0.00    +0.000 S 
ATOM     10  H   UNL     1       2.835   5.400  20.768  0.00  0.00    +0.000 HD
ATOM     11  H   UNL     1       2.266   7.262  22.028  0.00  0.00    +0.000 HD
ENDROOT
BRANCH   1  17
ATOM     12  C   UNL     1       3.380   4.184  18.439  0.00  0.00    +0.000 A 
ATOM     13  C   UNL     1       3.972   3.714  17.253  0.00  0.00    +0.000 A 
ATOM     14  C   UNL     1       4.851   4.514  16.523  0.00  0.00    +0.000 A 
ATOM     15  C   UNL     1       5.154   5.789  16.976  0.00  0.00    +0.000 A 
ATOM     16  C   UNL     1       4.544   6.276  18.131  0.00  0.00    +0.000 A 
ATOM     17  C   UNL     1       3.616   5.512  18.853  0.00  0.00    +0.000 A 
BRANCH  12  19
ATOM     18  C   UNL     1       1.306   3.058  18.574  0.00  0.00    +0.000 C 
ATOM     19  O   UNL     1       2.542   3.406  19.210  0.00  0.00    +0.000 OA
ENDBRANCH  12  19
ENDBRANCH   1  17
BRANCH   8  20
ATOM     20  C   UNL     1      -0.919  12.104  21.127  0.00  0.00    +0.000 C 
BRANCH  20  21
ATOM     21  C   UNL     1      -1.621  12.727  22.312  0.00  0.00    +0.000 A 
ATOM     22  C   UNL     1      -2.867  12.255  22.752  0.00  0.00    +0.000 A 
ATOM     23  C   UNL     1      -3.517  12.860  23.834  0.00  0.00    +0.000 A 
ATOM     24  C   UNL     1      -2.935  13.947  24.486  0.00  0.00    +0.000 A 
ATOM     25  C   UNL     1      -1.706  14.437  24.050  0.00  0.00    +0.000 A 
ATOM     26  C   UNL     1      -1.066  13.831  22.971  0.00  0.00    +0.000 A 
ATOM     27  F   UNL     1       0.105  14.337  22.558  0.00  0.00    +0.000 F 
ENDBRANCH  20  21
ENDBRANCH   8  20
TORSDOF 4
ENDMDL
MODEL 9
REMARK VINA RESULT:      -7.7      6.693      9.384
REMARK  Name = 
REMARK  5 active torsions:
REMARK  status: ('A' for Active; 'I' for Inactive)
REMARK    1  A    between atoms: C_1  and  O_2
REMARK    2  A    between atoms: O_2  and  C_3
REMARK    3  A    between atoms: C_8  and  N_9
REMARK    4  A    between atoms: C_16  and  C_17
REMARK    5  A    between atoms: C_17  and  C_18
REMARK                            x       y       z     vdW  Elec       q    Type
REMARK                         _______ _______ _______ _____ _____    ______ ____
ROOT
ATOM      1  N   UNL     1       2.765   5.916  20.401  0.00  0.00    +0.000 N 
ATOM      2  C   UNL     1       2.107   7.109  20.103  0.00  0.00    +0.000 C 
ATOM      3  O   UNL     1       1.922   7.500  18.956  0.00  0.00    +0.000 OA
ATOM      4  N   UNL     1       1.715   7.809  21.226  0.00  0.00    +0.000 N 
ATOM      5  C   UNL     1       1.154   9.071  21.218  0.00  0.00    +0.000 A 
ATOM      6  N   UNL     1       0.962   9.782  22.315  0.00  0.00    +0.000 NA
ATOM      7  N   UNL     1       0.396  11.021  22.056  0.00  0.00    +0.000 NA
ATOM      8  C   UNL     1       0.167  11.208  20.771  0.00  0.00    +0.000 A 
ATOM      9  S   UNL     1       0.620   9.870  19.798  0.00  0.00    +0.000 S 
ATOM     10  H   UNL     1       2.491   5.406  21.232  0.00  0.00    +0.000 HD
ATOM     11  H   UNL     1       1.999   7.484  22.136  0.00  0.00    +0.000 HD
ENDROOT
BRANCH   1  17
ATOM     12  C   UNL     1       2.864   4.100  18.732  0.00  0.00    +0.000 A 
ATOM     13  C   UNL     1       3.570   3.429  17.719  0.00  0.00    +0.000 A 
ATOM     14  C   UNL     1       4.906   3.731  17.453  0.00  0.00    +0.000 A 
ATOM     15  C   UNL     1       5.551   4.702  18.203  0.00  0.00    +0.000 A 
ATOM     16  C   UNL     1       4.848   5.398  19.186  0.00  0.00    +0.000 A 
ATOM     17  C   UNL     1       3.490   5.150  19.435  0.00  0.00    +0.000 A 
BRANCH  12  19
ATOM     18  C   UNL     1       1.402   2.624  19.860  0.00  0.00    +0.000 C 
ATOM     19  O   UNL     1       1.557   3.797  19.052  0.00  0.00    +0.000 OA
ENDBRANCH  12  19
ENDBRANCH   1  17
BRANCH   8  20
ATOM     20  C   UNL     1      -0.492  12.416  20.170  0.00  0.00    +0.000 C 
BRANCH  20  21
ATOM     21  C   UNL     1      -1.715  12.113  19.333  0.00  0.00    +0.000 A 
ATOM     22  C   UNL     1      -1.603  11.742  17.985  0.00  0.00    +0.000 A 
ATOM     23  C   UNL     1      -2.745  11.491  17.217  0.00  0.00    +0.000 A 
ATOM     24  C   UNL     1      -4.014  11.615  17.782  0.00  0.00    +0.000 A 
ATOM     25  C   UNL     1      -4.142  11.999  19.115  0.00  0.00    +0.000 A 
ATOM     26  C   UNL     1      -3.000  12.248  19.874  0.00  0.00    +0.000 A 
ATOM     27  F   UNL     1      -3.153  12.639  21.147  0.00  0.00    +0.000 F 
ENDBRANCH  20  21
ENDBRANCH   8  20
TORSDOF 4
ENDMDL
