MODEL 1
REMARK VINA RESULT:      -7.5      0.000      0.000
REMARK  Name = 
REMARK  4 active torsions:
REMARK  status: ('A' for Active; 'I' for Inactive)
REMARK    1  A    between atoms: C_2  and  C_3
REMARK    2  A    between atoms: C_13  and  C_14
REMARK    3  A    between atoms: N_17  and  C_18
REMARK    4  A    between atoms: C_18  and  C_19
REMARK                            x       y       z     vdW  Elec       q    Type
REMARK                         _______ _______ _______ _____ _____    ______ ____
ROOT
ATOM      1  O   UNL     1       4.799   2.368  19.804  0.00  0.00    +0.000 OA
ATOM      2  C   UNL     1       4.302   3.422  19.379  0.00  0.00    +0.000 C 
ATOM      3  N   UNL     1       3.124   3.918  19.936  0.00  0.00    +0.000 N 
ATOM      4  C   UNL     1       2.499   3.204  21.041  0.00  0.00    +0.000 C 
ATOM      5  C   UNL     1       1.018   3.351  20.770  0.00  0.00    +0.000 C 
ATOM      6  C   UNL     1       0.903   4.755  20.189  0.00  0.00    +0.000 C 
ATOM      7  C   UNL     1       2.254   5.022  19.504  0.00  0.00    +0.000 C 
ENDROOT
BRANCH   2   8
ATOM      8  C   UNL     1       5.072   4.123  18.321  0.00  0.00    +0.000 A 
ATOM      9  C   UNL     1       4.860   4.066  16.939  0.00  0.00    +0.000 A 
ATOM     10  C   UNL     1       5.528   4.943  16.083  0.00  0.00    +0.000 A 
ATOM     11  C   UNL     1       6.474   5.794  16.623  0.00  0.00    +0.000 A 
ATOM     12  N   UNL     1       6.794   5.809  17.930  0.00  0.00    +0.000 NA
ATOM     13  C   UNL     1       6.085   4.978  18.743  0.00  0.00    +0.000 A 
ENDBRANCH   2   8
BRANCH   7  14
ATOM     14  C   UNL     1       2.893   6.425  19.705  0.00  0.00    +0.000 C 
ATOM     15  C   UNL     1       2.239   7.362  20.728  0.00  0.00    +0.000 C 
ATOM     16  C   UNL     1       1.143   8.275  20.180  0.00  0.00    +0.000 C 
ATOM     17  N   UNL     1       1.531   8.946  18.933  0.00  0.00    +0.000 NA
ATOM     18  C   UNL     1       1.966   7.990  17.907  0.00  0.00    +0.000 C 
ATOM     19  C   UNL     1       3.146   7.151  18.377  0.00  0.00    +0.000 C 
BRANCH  17  20
ATOM     20  C   UNL     1       0.415   9.749  18.392  0.00  0.00    +0.000 C 
BRANCH  20  21
ATOM     21  C   UNL     1       0.584  11.242  18.555  0.00  0.00    +0.000 A 
ATOM     22  C   UNL     1      -0.521  12.065  18.807  0.00  0.00    +0.000 A 
ATOM     23  C   UNL     1      -0.358  13.438  18.977  0.00  0.00    +0.000 A 
ATOM     24  C   UNL     1       0.914  14.003  18.895  0.00  0.00    +0.000 A 
ATOM     25  C   UNL     1       2.021  13.198  18.640  0.00  0.00    +0.000 A 
ATOM     26  C   UNL     1       1.859  11.822  18.470  0.00  0.00    +0.000 A 
ENDBRANCH  20  21
ENDBRANCH  17  20
ENDBRANCH   7  14
TORSDOF 4
ENDMDL
MODEL 2
REMARK VINA RESULT:      -7.5      0.632      1.187
REMARK  Name = 
REMARK  4 active torsions:
REMARK  status: ('A' for Active; 'I' for Inactive)
REMARK    1  A    between atoms: C_2  and  C_3
REMARK    2  A    between atoms: C_13  and  C_14
REMARK    3  A    between atoms: N_17  and  C_18
REMARK    4  A    between atoms: C_18  and  C_19
REMARK                            x       y       z     vdW  Elec       q    Type
REMARK                         _______ _______ _______ _____ _____    ______ ____
ROOT
ATOM      1  O   UNL     1       4.888   2.332  19.784  0.00  0.00    +0.000 OA
ATOM      2  C   UNL     1       4.376   3.374  19.347  0.00  0.00    +0.000 C 
ATOM      3  N   UNL     1       3.202   3.872  19.913  0.00  0.00    +0.000 N 
ATOM      4  C   UNL     1       2.601   3.174  21.040  0.00  0.00    +0.000 C 
ATOM      5  C   UNL     1       1.114   3.306  20.790  0.00  0.00    +0.000 C 
ATOM      6  C   UNL     1       0.980   4.697  20.185  0.00  0.00    +0.000 C 
ATOM      7  C   UNL     1       2.318   4.961  19.474  0.00  0.00    +0.000 C 
ENDROOT
BRANCH   2   8
ATOM      8  C   UNL     1       5.124   4.060  18.263  0.00  0.00    +0.000 A 
ATOM      9  C   UNL     1       4.849   4.030  16.892  0.00  0.00    +0.000 A 
ATOM     10  C   UNL     1       5.511   4.894  16.017  0.00  0.00    +0.000 A 
ATOM     11  C   UNL     1       6.511   5.702  16.525  0.00  0.00    +0.000 A 
ATOM     12  N   UNL     1       6.888   5.687  17.816  0.00  0.00    +0.000 NA
ATOM     13  C   UNL     1       6.186   4.872  18.650  0.00  0.00    +0.000 A 
ENDBRANCH   2   8
BRANCH   7  14
ATOM     14  C   UNL     1       2.949   6.373  19.639  0.00  0.00    +0.000 C 
ATOM     15  C   UNL     1       2.254   7.354  20.591  0.00  0.00    +0.000 C 
ATOM     16  C   UNL     1       1.183   8.240  19.959  0.00  0.00    +0.000 C 
ATOM     17  N   UNL     1       1.623   8.856  18.699  0.00  0.00    +0.000 NA
ATOM     18  C   UNL     1       2.099   7.855  17.737  0.00  0.00    +0.000 C 
ATOM     19  C   UNL     1       3.257   7.039  18.291  0.00  0.00    +0.000 C 
BRANCH  17  20
ATOM     20  C   UNL     1       0.531   9.633  18.079  0.00  0.00    +0.000 C 
BRANCH  20  21
ATOM     21  C   UNL     1       0.135  10.874  18.844  0.00  0.00    +0.000 A 
ATOM     22  C   UNL     1       1.091  11.840  19.185  0.00  0.00    +0.000 A 
ATOM     23  C   UNL     1       0.719  12.993  19.873  0.00  0.00    +0.000 A 
ATOM     24  C   UNL     1      -0.615  13.191  20.229  0.00  0.00    +0.000 A 
ATOM     25  C   UNL     1      -1.575  12.237  19.901  0.00  0.00    +0.000 A 
ATOM     26  C   UNL     1      -1.203  11.082  19.212  0.00  0.00    +0.000 A 
ENDBRANCH  20  21
ENDBRANCH  17  20
ENDBRANCH   7  14
TORSDOF 4
ENDMDL
MODEL 3
REMARK VINA RESULT:      -7.4      0.616      1.343
REMARK  Name = 
REMARK  4 active torsions:
REMARK  status: ('A' for Active; 'I' for Inactive)
REMARK    1  A    between atoms: C_2  and  C_3
REMARK    2  A    between atoms: C_13  and  C_14
REMARK    3  A    between atoms: N_17  and  C_18
REMARK    4  A    between atoms: C_18  and  C_19
REMARK                            x       y       z     vdW  Elec       q    Type
REMARK                         _______ _______ _______ _____ _____    ______ ____
ROOT
ATOM      1  O   UNL     1       4.870   2.481  19.834  0.00  0.00    +0.000 OA
ATOM      2  C   UNL     1       4.368   3.528  19.398  0.00  0.00    +0.000 C 
ATOM      3  N   UNL     1       3.166   4.003  19.920  0.00  0.00    +0.000 N 
ATOM      4  C   UNL     1       2.519   3.275  21.003  0.00  0.00    +0.000 C 
ATOM      5  C   UNL     1       1.045   3.399  20.688  0.00  0.00    +0.000 C 
ATOM      6  C   UNL     1       0.925   4.803  20.108  0.00  0.00    +0.000 C 
ATOM      7  C   UNL     1       2.292   5.095  19.465  0.00  0.00    +0.000 C 
ENDROOT
BRANCH   2   8
ATOM      8  C   UNL     1       5.159   4.246  18.365  0.00  0.00    +0.000 A 
ATOM      9  C   UNL     1       6.204   5.152  18.576  0.00  0.00    +0.000 A 
ATOM     10  C   UNL     1       6.991   5.585  17.507  0.00  0.00    +0.000 A 
ATOM     11  C   UNL     1       6.649   5.178  16.231  0.00  0.00    +0.000 A 
ATOM     12  N   UNL     1       5.586   4.396  15.966  0.00  0.00    +0.000 NA
ATOM     13  C   UNL     1       4.872   3.949  17.036  0.00  0.00    +0.000 A 
ENDBRANCH   2   8
BRANCH   7  14
ATOM     14  C   UNL     1       2.901   6.508  19.691  0.00  0.00    +0.000 C 
ATOM     15  C   UNL     1       2.234   7.409  20.737  0.00  0.00    +0.000 C 
ATOM     16  C   UNL     1       1.115   8.309  20.215  0.00  0.00    +0.000 C 
ATOM     17  N   UNL     1       1.479   9.013  18.979  0.00  0.00    +0.000 NA
ATOM     18  C   UNL     1       1.928   8.087  17.931  0.00  0.00    +0.000 C 
ATOM     19  C   UNL     1       3.128   7.265  18.376  0.00  0.00    +0.000 C 
BRANCH  17  20
ATOM     20  C   UNL     1       0.342   9.802  18.463  0.00  0.00    +0.000 C 
BRANCH  20  21
ATOM     21  C   UNL     1       0.522  11.298  18.568  0.00  0.00    +0.000 A 
ATOM     22  C   UNL     1       1.799  11.858  18.709  0.00  0.00    +0.000 A 
ATOM     23  C   UNL     1       1.963  13.239  18.786  0.00  0.00    +0.000 A 
ATOM     24  C   UNL     1       0.849  14.076  18.723  0.00  0.00    +0.000 A 
ATOM     25  C   UNL     1      -0.427  13.534  18.588  0.00  0.00    +0.000 A 
ATOM     26  C   UNL     1      -0.592  12.150  18.511  0.00  0.00    +0.000 A 
ENDBRANCH  20  21
ENDBRANCH  17  20
ENDBRANCH   7  14
TORSDOF 4
ENDMDL
MODEL 4
REMARK VINA RESULT:      -7.4      0.793      1.118
REMARK  Name = 
REMARK  4 active torsions:
REMARK  status: ('A' for Active; 'I' for Inactive)
REMARK    1  A    between atoms: C_2  and  C_3
REMARK    2  A    between atoms: C_13  and  C_14
REMARK    3  A    between atoms: N_17  and  C_18
REMARK    4  A    between atoms: C_18  and  C_19
REMARK                            x       y       z     vdW  Elec       q    Type
REMARK                         _______ _______ _______ _____ _____    ______ ____
ROOT
ATOM      1  O   UNL     1       4.884   2.316  19.861  0.00  0.00    +0.000 OA
ATOM      2  C   UNL     1       4.387   3.362  19.416  0.00  0.00    +0.000 C 
ATOM      3  N   UNL     1       3.198   3.857  19.948  0.00  0.00    +0.000 N 
ATOM      4  C   UNL     1       2.560   3.152  21.052  0.00  0.00    +0.000 C 
ATOM      5  C   UNL     1       1.083   3.288  20.756  0.00  0.00    +0.000 C 
ATOM      6  C   UNL     1       0.969   4.684  20.157  0.00  0.00    +0.000 C 
ATOM      7  C   UNL     1       2.329   4.951  19.490  0.00  0.00    +0.000 C 
ENDROOT
BRANCH   2   8
ATOM      8  C   UNL     1       5.170   4.055  18.361  0.00  0.00    +0.000 A 
ATOM      9  C   UNL     1       6.286   4.880  18.537  0.00  0.00    +0.000 A 
ATOM     10  C   UNL     1       7.043   5.291  17.438  0.00  0.00    +0.000 A 
ATOM     11  C   UNL     1       6.605   4.948  16.173  0.00  0.00    +0.000 A 
ATOM     12  N   UNL     1       5.476   4.251  15.947  0.00  0.00    +0.000 NA
ATOM     13  C   UNL     1       4.792   3.821  17.042  0.00  0.00    +0.000 A 
ENDBRANCH   2   8
BRANCH   7  14
ATOM     14  C   UNL     1       2.956   6.361  19.685  0.00  0.00    +0.000 C 
ATOM     15  C   UNL     1       2.248   7.326  20.644  0.00  0.00    +0.000 C 
ATOM     16  C   UNL     1       1.184   8.221  20.012  0.00  0.00    +0.000 C 
ATOM     17  N   UNL     1       1.638   8.856  18.768  0.00  0.00    +0.000 NA
ATOM     18  C   UNL     1       2.128   7.871  17.795  0.00  0.00    +0.000 C 
ATOM     19  C   UNL     1       3.280   7.048  18.352  0.00  0.00    +0.000 C 
BRANCH  17  20
ATOM     20  C   UNL     1       0.553   9.642  18.145  0.00  0.00    +0.000 C 
BRANCH  20  21
ATOM     21  C   UNL     1       0.321  10.995  18.776  0.00  0.00    +0.000 A 
ATOM     22  C   UNL     1      -0.907  11.306  19.374  0.00  0.00    +0.000 A 
ATOM     23  C   UNL     1      -1.110  12.547  19.973  0.00  0.00    +0.000 A 
ATOM     24  C   UNL     1      -0.084  13.492  19.980  0.00  0.00    +0.000 A 
ATOM     25  C   UNL     1       1.140  13.199  19.384  0.00  0.00    +0.000 A 
ATOM     26  C   UNL     1       1.344  11.956  18.784  0.00  0.00    +0.000 A 
ENDBRANCH  20  21
ENDBRANCH  17  20
ENDBRANCH   7  14
TORSDOF 4
ENDMDL
MODEL 5
REMARK VINA RESULT:      -7.0      4.252      6.212
REMARK  Name = 
REMARK  4 active torsions:
REMARK  status: ('A' for Active; 'I' for Inactive)
REMARK    1  A    between atoms: C_2  and  C_3
REMARK    2  A    between atoms: C_13  and  C_14
REMARK    3  A    between atoms: N_17  and  C_18
REMARK    4  A    between atoms: C_18  and  C_19
REMARK                            x       y       z     vdW  Elec       q    Type
REMARK                         _______ _______ _______ _____ _____    ______ ____
ROOT
ATOM      1  O   UNL     1       2.393   3.277  16.437  0.00  0.00    +0.000 OA
ATOM      2  C   UNL     1       3.273   3.568  17.262  0.00  0.00    +0.000 C 
ATOM      3  N   UNL     1       4.516   4.028  16.831  0.00  0.00    +0.000 N 
ATOM      4  C   UNL     1       4.763   4.192  15.405  0.00  0.00    +0.000 C 
ATOM      5  C   UNL     1       6.205   3.764  15.240  0.00  0.00    +0.000 C 
ATOM      6  C   UNL     1       6.870   4.265  16.516  0.00  0.00    +0.000 C 
ATOM      7  C   UNL     1       5.759   4.264  17.580  0.00  0.00    +0.000 C 
ENDROOT
BRANCH   2   8
ATOM      8  C   UNL     1       2.884   3.461  18.691  0.00  0.00    +0.000 A 
ATOM      9  C   UNL     1       3.390   2.569  19.643  0.00  0.00    +0.000 A 
ATOM     10  C   UNL     1       3.081   2.727  20.996  0.00  0.00    +0.000 A 
ATOM     11  C   UNL     1       2.188   3.719  21.354  0.00  0.00    +0.000 A 
ATOM     12  N   UNL     1       1.589   4.531  20.463  0.00  0.00    +0.000 NA
ATOM     13  C   UNL     1       1.953   4.384  19.160  0.00  0.00    +0.000 A 
ENDBRANCH   2   8
BRANCH   7  14
ATOM     14  C   UNL     1       5.682   5.490  18.534  0.00  0.00    +0.000 C 
ATOM     15  C   UNL     1       5.109   6.794  17.967  0.00  0.00    +0.000 C 
ATOM     16  C   UNL     1       6.126   7.740  17.330  0.00  0.00    +0.000 C 
ATOM     17  N   UNL     1       7.322   7.934  18.160  0.00  0.00    +0.000 NA
ATOM     18  C   UNL     1       7.956   6.659  18.518  0.00  0.00    +0.000 C 
ATOM     19  C   UNL     1       7.003   5.743  19.272  0.00  0.00    +0.000 C 
BRANCH  17  20
ATOM     20  C   UNL     1       8.315   8.783  17.470  0.00  0.00    +0.000 C 
BRANCH  20  21
ATOM     21  C   UNL     1       8.728  10.014  18.244  0.00  0.00    +0.000 A 
ATOM     22  C   UNL     1       8.655  11.285  17.658  0.00  0.00    +0.000 A 
ATOM     23  C   UNL     1       9.017  12.420  18.381  0.00  0.00    +0.000 A 
ATOM     24  C   UNL     1       9.457  12.295  19.698  0.00  0.00    +0.000 A 
ATOM     25  C   UNL     1       9.539  11.037  20.291  0.00  0.00    +0.000 A 
ATOM     26  C   UNL     1       9.176   9.900  19.568  0.00  0.00    +0.000 A 
ENDBRANCH  20  21
ENDBRANCH  17  20
ENDBRANCH   7  14
TORSDOF 4
ENDMDL
MODEL 6
REMARK VINA RESULT:      -7.0      2.045      4.339
REMARK  Name = 
REMARK  4 active torsions:
REMARK  status: ('A' for Active; 'I' for Inactive)
REMARK    1  A    between atoms: C_2  and  C_3
REMARK    2  A    between atoms: C_13  and  C_14
REMARK    3  A    between atoms: N_17  and  C_18
REMARK    4  A    between atoms: C_18  and  C_19
REMARK                            x       y       z     vdW  Elec       q    Type
REMARK                         _______ _______ _______ _____ _____    ______ ____
ROOT
ATOM      1  O   UNL     1       4.201   2.047  17.521  0.00  0.00    +0.000 OA
ATOM      2  C   UNL     1       3.804   3.066  18.105  0.00  0.00    +0.000 C 
ATOM      3  N   UNL     1       4.082   4.329  17.584  0.00  0.00    +0.000 N 
ATOM      4  C   UNL     1       4.817   4.439  16.331  0.00  0.00    +0.000 C 
ATOM      5  C   UNL     1       5.698   5.652  16.539  0.00  0.00    +0.000 C 
ATOM      6  C   UNL     1       4.823   6.587  17.364  0.00  0.00    +0.000 C 
ATOM      7  C   UNL     1       3.885   5.666  18.163  0.00  0.00    +0.000 C 
ENDROOT
BRANCH   2   8
ATOM      8  C   UNL     1       2.978   2.839  19.319  0.00  0.00    +0.000 A 
ATOM      9  C   UNL     1       3.417   2.794  20.647  0.00  0.00    +0.000 A 
ATOM     10  C   UNL     1       2.496   2.783  21.696  0.00  0.00    +0.000 A 
ATOM     11  C   UNL     1       1.150   2.716  21.389  0.00  0.00    +0.000 A 
ATOM     12  N   UNL     1       0.683   2.645  20.128  0.00  0.00    +0.000 NA
ATOM     13  C   UNL     1       1.605   2.712  19.129  0.00  0.00    +0.000 A 
ENDBRANCH   2   8
BRANCH   7  14
ATOM     14  C   UNL     1       2.390   6.081  18.264  0.00  0.00    +0.000 C 
ATOM     15  C   UNL     1       1.938   7.306  17.459  0.00  0.00    +0.000 C 
ATOM     16  C   UNL     1       2.044   8.647  18.183  0.00  0.00    +0.000 C 
ATOM     17  N   UNL     1       1.496   8.604  19.545  0.00  0.00    +0.000 NA
ATOM     18  C   UNL     1       2.103   7.535  20.348  0.00  0.00    +0.000 C 
ATOM     19  C   UNL     1       1.901   6.166  19.716  0.00  0.00    +0.000 C 
BRANCH  17  20
ATOM     20  C   UNL     1       1.696   9.893  20.238  0.00  0.00    +0.000 C 
BRANCH  20  21
ATOM     21  C   UNL     1       0.609  10.246  21.226  0.00  0.00    +0.000 A 
ATOM     22  C   UNL     1       0.472   9.534  22.425  0.00  0.00    +0.000 A 
ATOM     23  C   UNL     1      -0.520   9.875  23.342  0.00  0.00    +0.000 A 
ATOM     24  C   UNL     1      -1.386  10.933  23.069  0.00  0.00    +0.000 A 
ATOM     25  C   UNL     1      -1.265  11.646  21.879  0.00  0.00    +0.000 A 
ATOM     26  C   UNL     1      -0.272  11.305  20.959  0.00  0.00    +0.000 A 
ENDBRANCH  20  21
ENDBRANCH  17  20
ENDBRANCH   7  14
TORSDOF 4
ENDMDL
MODEL 7
REMARK VINA RESULT:      -7.0      4.340      6.281
REMARK  Name = 
REMARK  4 active torsions:
REMARK  status: ('A' for Active; 'I' for Inactive)
REMARK    1  A    between atoms: C_2  and  C_3
REMARK    2  A    between atoms: C_13  and  C_14
REMARK    3  A    between atoms: N_17  and  C_18
REMARK    4  A    between atoms: C_18  and  C_19
REMARK                            x       y       z     vdW  Elec       q    Type
REMARK                         _______ _______ _______ _____ _____    ______ ____
ROOT
ATOM      1  O   UNL     1       2.536   3.230  16.639  0.00  0.00    +0.000 OA
ATOM      2  C   UNL     1       3.428   3.546  17.441  0.00  0.00    +0.000 C 
ATOM      3  N   UNL     1       4.653   4.023  16.978  0.00  0.00    +0.000 N 
ATOM      4  C   UNL     1       4.866   4.176  15.546  0.00  0.00    +0.000 C 
ATOM      5  C   UNL     1       6.311   3.772  15.353  0.00  0.00    +0.000 C 
ATOM      6  C   UNL     1       6.995   4.299  16.609  0.00  0.00    +0.000 C 
ATOM      7  C   UNL     1       5.908   4.290  17.697  0.00  0.00    +0.000 C 
ENDROOT
BRANCH   2   8
ATOM      8  C   UNL     1       3.072   3.448  18.880  0.00  0.00    +0.000 A 
ATOM      9  C   UNL     1       2.151   4.234  19.581  0.00  0.00    +0.000 A 
ATOM     10  C   UNL     1       1.768   3.887  20.879  0.00  0.00    +0.000 A 
ATOM     11  C   UNL     1       2.395   2.814  21.484  0.00  0.00    +0.000 A 
ATOM     12  N   UNL     1       3.366   2.096  20.891  0.00  0.00    +0.000 NA
ATOM     13  C   UNL     1       3.677   2.428  19.608  0.00  0.00    +0.000 A 
ENDBRANCH   2   8
BRANCH   7  14
ATOM     14  C   UNL     1       5.829   5.524  18.640  0.00  0.00    +0.000 C 
ATOM     15  C   UNL     1       5.230   6.815  18.069  0.00  0.00    +0.000 C 
ATOM     16  C   UNL     1       6.223   7.767  17.406  0.00  0.00    +0.000 C 
ATOM     17  N   UNL     1       7.430   7.987  18.214  0.00  0.00    +0.000 NA
ATOM     18  C   UNL     1       8.086   6.724  18.575  0.00  0.00    +0.000 C 
ATOM     19  C   UNL     1       7.158   5.803  19.353  0.00  0.00    +0.000 C 
BRANCH  17  20
ATOM     20  C   UNL     1       8.400   8.841  17.500  0.00  0.00    +0.000 C 
BRANCH  20  21
ATOM     21  C   UNL     1       8.822  10.077  18.261  0.00  0.00    +0.000 A 
ATOM     22  C   UNL     1       9.259   9.984  19.589  0.00  0.00    +0.000 A 
ATOM     23  C   UNL     1       9.666  11.123  20.281  0.00  0.00    +0.000 A 
ATOM     24  C   UNL     1       9.641  12.367  19.651  0.00  0.00    +0.000 A 
ATOM     25  C   UNL     1       9.205  12.474  18.333  0.00  0.00    +0.000 A 
ATOM     26  C   UNL     1       8.796  11.334  17.639  0.00  0.00    +0.000 A 
ENDBRANCH  20  21
ENDBRANCH  17  20
ENDBRANCH   7  14
TORSDOF 4
ENDMDL
MODEL 8
REMARK VINA RESULT:      -6.9      1.976      4.134
REMARK  Name = 
REMARK  4 active torsions:
REMARK  status: ('A' for Active; 'I' for Inactive)
REMARK    1  A    between atoms: C_2  and  C_3
REMARK    2  A    between atoms: C_13  and  C_14
REMARK    3  A    between atoms: N_17  and  C_18
REMARK    4  A    between atoms: C_18  and  C_19
REMARK                            x       y       z     vdW  Elec       q    Type
REMARK                         _______ _______ _______ _____ _____    ______ ____
ROOT
ATOM      1  O   UNL     1       4.307   2.857  17.147  0.00  0.00    +0.000 OA
ATOM      2  C   UNL     1       3.844   3.766  17.853  0.00  0.00    +0.000 C 
ATOM      3  N   UNL     1       4.073   5.101  17.520  0.00  0.00    +0.000 N 
ATOM      4  C   UNL     1       4.836   5.417  16.321  0.00  0.00    +0.000 C 
ATOM      5  C   UNL     1       5.650   6.627  16.724  0.00  0.00    +0.000 C 
ATOM      6  C   UNL     1       4.707   7.399  17.639  0.00  0.00    +0.000 C 
ATOM      7  C   UNL     1       3.795   6.334  18.271  0.00  0.00    +0.000 C 
ENDROOT
BRANCH   2   8
ATOM      8  C   UNL     1       2.996   3.336  18.994  0.00  0.00    +0.000 A 
ATOM      9  C   UNL     1       3.381   3.202  20.333  0.00  0.00    +0.000 A 
ATOM     10  C   UNL     1       2.423   2.993  21.327  0.00  0.00    +0.000 A 
ATOM     11  C   UNL     1       1.106   2.819  20.944  0.00  0.00    +0.000 A 
ATOM     12  N   UNL     1       0.703   2.828  19.660  0.00  0.00    +0.000 NA
ATOM     13  C   UNL     1       1.654   3.088  18.721  0.00  0.00    +0.000 A 
ENDBRANCH   2   8
BRANCH   7  14
ATOM     14  C   UNL     1       2.278   6.663  18.376  0.00  0.00    +0.000 C 
ATOM     15  C   UNL     1       1.790   7.968  17.736  0.00  0.00    +0.000 C 
ATOM     16  C   UNL     1       1.808   9.196  18.645  0.00  0.00    +0.000 C 
ATOM     17  N   UNL     1       1.225   8.935  19.968  0.00  0.00    +0.000 NA
ATOM     18  C   UNL     1       1.861   7.791  20.632  0.00  0.00    +0.000 C 
ATOM     19  C   UNL     1       1.744   6.518  19.807  0.00  0.00    +0.000 C 
BRANCH  17  20
ATOM     20  C   UNL     1       1.341  10.120  20.842  0.00  0.00    +0.000 C 
BRANCH  20  21
ATOM     21  C   UNL     1       0.041  10.853  21.077  0.00  0.00    +0.000 A 
ATOM     22  C   UNL     1      -0.463  11.020  22.373  0.00  0.00    +0.000 A 
ATOM     23  C   UNL     1      -1.652  11.714  22.587  0.00  0.00    +0.000 A 
ATOM     24  C   UNL     1      -2.351  12.247  21.504  0.00  0.00    +0.000 A 
ATOM     25  C   UNL     1      -1.865  12.083  20.210  0.00  0.00    +0.000 A 
ATOM     26  C   UNL     1      -0.674  11.389  19.994  0.00  0.00    +0.000 A 
ENDBRANCH  20  21
ENDBRANCH  17  20
ENDBRANCH   7  14
TORSDOF 4
ENDMDL
MODEL 9
REMARK VINA RESULT:      -6.9      1.436      3.839
REMARK  Name = 
REMARK  4 active torsions:
REMARK  status: ('A' for Active; 'I' for Inactive)
REMARK    1  A    between atoms: C_2  and  C_3
REMARK    2  A    between atoms: C_13  and  C_14
REMARK    3  A    between atoms: N_17  and  C_18
REMARK    4  A    between atoms: C_18  and  C_19
REMARK                            x       y       z     vdW  Elec       q    Type
REMARK                         _______ _______ _______ _____ _____    ______ ____
ROOT
ATOM      1  O   UNL     1       4.419   2.696  17.265  0.00  0.00    +0.000 OA
ATOM      2  C   UNL     1       3.932   3.628  17.922  0.00  0.00    +0.000 C 
ATOM      3  N   UNL     1       4.165   4.951  17.545  0.00  0.00    +0.000 N 
ATOM      4  C   UNL     1       4.960   5.226  16.356  0.00  0.00    +0.000 C 
ATOM      5  C   UNL     1       5.757   6.455  16.736  0.00  0.00    +0.000 C 
ATOM      6  C   UNL     1       4.785   7.255  17.594  0.00  0.00    +0.000 C 
ATOM      7  C   UNL     1       3.860   6.210  18.241  0.00  0.00    +0.000 C 
ENDROOT
BRANCH   2   8
ATOM      8  C   UNL     1       3.055   3.237  19.055  0.00  0.00    +0.000 A 
ATOM      9  C   UNL     1       3.411   3.127  20.403  0.00  0.00    +0.000 A 
ATOM     10  C   UNL     1       2.430   2.954  21.382  0.00  0.00    +0.000 A 
ATOM     11  C   UNL     1       1.119   2.794  20.977  0.00  0.00    +0.000 A 
ATOM     12  N   UNL     1       0.741   2.781  19.685  0.00  0.00    +0.000 NA
ATOM     13  C   UNL     1       1.715   3.005  18.761  0.00  0.00    +0.000 A 
ENDBRANCH   2   8
BRANCH   7  14
ATOM     14  C   UNL     1       2.340   6.534  18.291  0.00  0.00    +0.000 C 
ATOM     15  C   UNL     1       1.854   7.775  17.532  0.00  0.00    +0.000 C 
ATOM     16  C   UNL     1       1.848   9.077  18.331  0.00  0.00    +0.000 C 
ATOM     17  N   UNL     1       1.244   8.928  19.661  0.00  0.00    +0.000 NA
ATOM     18  C   UNL     1       1.875   7.851  20.433  0.00  0.00    +0.000 C 
ATOM     19  C   UNL     1       1.782   6.510  19.720  0.00  0.00    +0.000 C 
BRANCH  17  20
ATOM     20  C   UNL     1       1.337  10.185  20.431  0.00  0.00    +0.000 C 
BRANCH  20  21
ATOM     21  C   UNL     1       0.737  11.386  19.738  0.00  0.00    +0.000 A 
ATOM     22  C   UNL     1       1.529  12.497  19.418  0.00  0.00    +0.000 A 
ATOM     23  C   UNL     1       0.976  13.595  18.761  0.00  0.00    +0.000 A 
ATOM     24  C   UNL     1      -0.375  13.593  18.418  0.00  0.00    +0.000 A 
ATOM     25  C   UNL     1      -1.176  12.498  18.735  0.00  0.00    +0.000 A 
ATOM     26  C   UNL     1      -0.623  11.397  19.393  0.00  0.00    +0.000 A 
ENDBRANCH  20  21
ENDBRANCH  17  20
ENDBRANCH   7  14
TORSDOF 4
ENDMDL
