MODEL 1
REMARK VINA RESULT:      -8.9      0.000      0.000
REMARK  Name = 
REMARK  7 active torsions:
REMARK  status: ('A' for Active; 'I' for Inactive)
REMARK    1  A    between atoms: C_1  and  C_2
REMARK    2  A    between atoms: C_2  and  C_3
REMARK    3  A    between atoms: C_2  and  C_4
REMARK    4  A    between atoms: C_2  and  N_5
REMARK    5  A    between atoms: C_7  and  C_8
REMARK    6  A    between atoms: C_19  and  C_20
REMARK    7  A    between atoms: C_23  and  N_24
REMARK                            x       y       z     vdW  Elec       q    Type
REMARK                         _______ _______ _______ _____ _____    ______ ____
ROOT
ATOM      1  N   UNL     1       5.282   5.605  17.258  0.00  0.00    +0.000 N 
ATOM      2  N   UNL     1       4.665   6.777  17.551  0.00  0.00    +0.000 NA
ATOM      3  C   UNL     1       3.423   6.446  17.956  0.00  0.00    +0.000 A 
ATOM      4  C   UNL     1       3.205   5.039  17.812  0.00  0.00    +0.000 A 
ATOM      5  C   UNL     1       4.417   4.535  17.362  0.00  0.00    +0.000 A 
ENDROOT
BRANCH   3   6
ATOM      6  C   UNL     1       2.538   7.492  18.508  0.00  0.00    +0.000 A 
ATOM      7  C   UNL     1       2.118   8.571  17.708  0.00  0.00    +0.000 A 
ATOM      8  C   UNL     1       1.342   9.606  18.244  0.00  0.00    +0.000 A 
ATOM      9  C   UNL     1       0.972   9.556  19.585  0.00  0.00    +0.000 A 
ATOM     10  O   UNL     1       0.232  10.638  20.105  0.00  0.00    +0.000 OA
ATOM     11  C   UNL     1      -0.119  10.689  21.450  0.00  0.00    +0.000 A 
ATOM     12  O   UNL     1      -0.707  11.649  21.938  0.00  0.00    +0.000 OA
ATOM     13  C   UNL     1       0.225   9.517  22.271  0.00  0.00    +0.000 A 
ATOM     14  C   UNL     1       0.911   8.479  21.784  0.00  0.00    +0.000 A 
ATOM     15  C   UNL     1       1.349   8.493  20.397  0.00  0.00    +0.000 A 
ATOM     16  C   UNL     1       2.147   7.474  19.859  0.00  0.00    +0.000 A 
ENDBRANCH   3   6
BRANCH   4  17
ATOM     17  C   UNL     1       2.055   4.192  18.088  0.00  0.00    +0.000 C 
ATOM     18  N   UNL     1       1.999   3.584  19.309  0.00  0.00    +0.000 N 
ATOM     19  O   UNL     1       1.130   4.030  17.296  0.00  0.00    +0.000 OA
ATOM     20  H   UNL     1       2.607   3.849  20.068  0.00  0.00    +0.000 HD
ATOM     21  H   UNL     1       1.143   3.088  19.520  0.00  0.00    +0.000 HD
ENDBRANCH   4  17
BRANCH   1  23
ATOM     22  C   UNL     1       7.520   4.611  17.840  0.00  0.00    +0.000 C 
ATOM     23  C   UNL     1       6.729   5.596  16.940  0.00  0.00    +0.000 C 
ATOM     24  C   UNL     1       7.354   6.991  17.151  0.00  0.00    +0.000 C 
ATOM     25  C   UNL     1       6.965   5.133  15.485  0.00  0.00    +0.000 C 
ENDBRANCH   1  23
BRANCH   5  26
ATOM     26  N   UNL     1       4.730   3.250  17.077  0.00  0.00    +0.000 N 
ATOM     27  H   UNL     1       5.721   2.994  17.080  0.00  0.00    +0.000 HD
ATOM     28  H   UNL     1       4.190   2.656  16.459  0.00  0.00    +0.000 HD
ENDBRANCH   5  26
TORSDOF 4
ENDMDL
MODEL 2
REMARK VINA RESULT:      -8.4      1.261      1.592
REMARK  Name = 
REMARK  7 active torsions:
REMARK  status: ('A' for Active; 'I' for Inactive)
REMARK    1  A    between atoms: C_1  and  C_2
REMARK    2  A    between atoms: C_2  and  C_3
REMARK    3  A    between atoms: C_2  and  C_4
REMARK    4  A    between atoms: C_2  and  N_5
REMARK    5  A    between atoms: C_7  and  C_8
REMARK    6  A    between atoms: C_19  and  C_20
REMARK    7  A    between atoms: C_23  and  N_24
REMARK                            x       y       z     vdW  Elec       q    Type
REMARK                         _______ _______ _______ _____ _____    ______ ____
ROOT
ATOM      1  N   UNL     1       5.454   5.596  18.230  0.00  0.00    +0.000 N 
ATOM      2  N   UNL     1       4.690   6.711  18.110  0.00  0.00    +0.000 NA
ATOM      3  C   UNL     1       3.516   6.416  18.700  0.00  0.00    +0.000 A 
ATOM      4  C   UNL     1       3.488   5.044  19.108  0.00  0.00    +0.000 A 
ATOM      5  C   UNL     1       4.746   4.553  18.789  0.00  0.00    +0.000 A 
ENDROOT
BRANCH   3   6
ATOM      6  C   UNL     1       2.510   7.481  18.887  0.00  0.00    +0.000 A 
ATOM      7  C   UNL     1       2.139   8.312  17.813  0.00  0.00    +0.000 A 
ATOM      8  C   UNL     1       1.244   9.373  17.999  0.00  0.00    +0.000 A 
ATOM      9  C   UNL     1       0.707   9.597  19.263  0.00  0.00    +0.000 A 
ATOM     10  O   UNL     1      -0.154  10.702  19.428  0.00  0.00    +0.000 OA
ATOM     11  C   UNL     1      -0.679  11.028  20.674  0.00  0.00    +0.000 A 
ATOM     12  O   UNL     1      -1.377  12.020  20.853  0.00  0.00    +0.000 OA
ATOM     13  C   UNL     1      -0.380  10.105  21.781  0.00  0.00    +0.000 A 
ATOM     14  C   UNL     1       0.420   9.044  21.633  0.00  0.00    +0.000 A 
ATOM     15  C   UNL     1       1.033   8.781  20.340  0.00  0.00    +0.000 A 
ATOM     16  C   UNL     1       1.948   7.737  20.151  0.00  0.00    +0.000 A 
ENDBRANCH   3   6
BRANCH   4  17
ATOM     17  C   UNL     1       2.472   4.236  19.764  0.00  0.00    +0.000 C 
ATOM     18  N   UNL     1       1.333   3.966  19.062  0.00  0.00    +0.000 N 
ATOM     19  O   UNL     1       2.606   3.765  20.891  0.00  0.00    +0.000 OA
ATOM     20  H   UNL     1       1.260   4.138  18.071  0.00  0.00    +0.000 HD
ATOM     21  H   UNL     1       0.688   3.317  19.493  0.00  0.00    +0.000 HD
ENDBRANCH   4  17
BRANCH   1  23
ATOM     22  C   UNL     1       7.285   7.013  17.240  0.00  0.00    +0.000 C 
ATOM     23  C   UNL     1       6.881   5.637  17.831  0.00  0.00    +0.000 C 
ATOM     24  C   UNL     1       7.186   4.581  16.748  0.00  0.00    +0.000 C 
ATOM     25  C   UNL     1       7.796   5.408  19.054  0.00  0.00    +0.000 C 
ENDBRANCH   1  23
BRANCH   5  26
ATOM     26  N   UNL     1       5.225   3.301  18.982  0.00  0.00    +0.000 N 
ATOM     27  H   UNL     1       6.145   3.211  19.421  0.00  0.00    +0.000 HD
ATOM     28  H   UNL     1       5.015   2.513  18.380  0.00  0.00    +0.000 HD
ENDBRANCH   5  26
TORSDOF 4
ENDMDL
MODEL 3
REMARK VINA RESULT:      -8.3      0.769      1.614
REMARK  Name = 
REMARK  7 active torsions:
REMARK  status: ('A' for Active; 'I' for Inactive)
REMARK    1  A    between atoms: C_1  and  C_2
REMARK    2  A    between atoms: C_2  and  C_3
REMARK    3  A    between atoms: C_2  and  C_4
REMARK    4  A    between atoms: C_2  and  N_5
REMARK    5  A    between atoms: C_7  and  C_8
REMARK    6  A    between atoms: C_19  and  C_20
REMARK    7  A    between atoms: C_23  and  N_24
REMARK                            x       y       z     vdW  Elec       q    Type
REMARK                         _______ _______ _______ _____ _____    ______ ____
ROOT
ATOM      1  N   UNL     1       5.299   5.548  17.307  0.00  0.00    +0.000 N 
ATOM      2  N   UNL     1       4.696   6.675  17.761  0.00  0.00    +0.000 NA
ATOM      3  C   UNL     1       3.472   6.295  18.176  0.00  0.00    +0.000 A 
ATOM      4  C   UNL     1       3.246   4.913  17.878  0.00  0.00    +0.000 A 
ATOM      5  C   UNL     1       4.438   4.470  17.321  0.00  0.00    +0.000 A 
ENDROOT
BRANCH   3   6
ATOM      6  C   UNL     1       2.612   7.265  18.883  0.00  0.00    +0.000 A 
ATOM      7  C   UNL     1       2.194   7.021  20.205  0.00  0.00    +0.000 A 
ATOM      8  C   UNL     1       1.317   7.897  20.857  0.00  0.00    +0.000 A 
ATOM      9  C   UNL     1       0.864   9.030  20.188  0.00  0.00    +0.000 A 
ATOM     10  O   UNL     1      -0.056   9.866  20.854  0.00  0.00    +0.000 OA
ATOM     11  C   UNL     1      -0.601  10.981  20.228  0.00  0.00    +0.000 A 
ATOM     12  O   UNL     1      -1.450  11.686  20.764  0.00  0.00    +0.000 OA
ATOM     13  C   UNL     1      -0.092  11.303  18.884  0.00  0.00    +0.000 A 
ATOM     14  C   UNL     1       0.793  10.528  18.250  0.00  0.00    +0.000 A 
ATOM     15  C   UNL     1       1.276   9.314  18.891  0.00  0.00    +0.000 A 
ATOM     16  C   UNL     1       2.134   8.420  18.237  0.00  0.00    +0.000 A 
ENDBRANCH   3   6
BRANCH   4  17
ATOM     17  C   UNL     1       2.107   4.035  18.100  0.00  0.00    +0.000 C 
ATOM     18  N   UNL     1       2.083   3.318  19.261  0.00  0.00    +0.000 N 
ATOM     19  O   UNL     1       1.165   3.939  17.317  0.00  0.00    +0.000 OA
ATOM     20  H   UNL     1       2.707   3.516  20.027  0.00  0.00    +0.000 HD
ATOM     21  H   UNL     1       1.235   2.798  19.445  0.00  0.00    +0.000 HD
ENDBRANCH   4  17
BRANCH   1  23
ATOM     22  C   UNL     1       7.579   4.581  17.759  0.00  0.00    +0.000 C 
ATOM     23  C   UNL     1       6.731   5.581  16.930  0.00  0.00    +0.000 C 
ATOM     24  C   UNL     1       7.336   6.980  17.167  0.00  0.00    +0.000 C 
ATOM     25  C   UNL     1       6.915   5.177  15.450  0.00  0.00    +0.000 C 
ENDBRANCH   1  23
BRANCH   5  26
ATOM     26  N   UNL     1       4.737   3.228  16.875  0.00  0.00    +0.000 N 
ATOM     27  H   UNL     1       5.450   2.702  17.387  0.00  0.00    +0.000 HD
ATOM     28  H   UNL     1       4.685   2.944  15.903  0.00  0.00    +0.000 HD
ENDBRANCH   5  26
TORSDOF 4
ENDMDL
MODEL 4
REMARK VINA RESULT:      -8.2      2.018      3.268
REMARK  Name = 
REMARK  7 active torsions:
REMARK  status: ('A' for Active; 'I' for Inactive)
REMARK    1  A    between atoms: C_1  and  C_2
REMARK    2  A    between atoms: C_2  and  C_3
REMARK    3  A    between atoms: C_2  and  C_4
REMARK    4  A    between atoms: C_2  and  N_5
REMARK    5  A    between atoms: C_7  and  C_8
REMARK    6  A    between atoms: C_19  and  C_20
REMARK    7  A    between atoms: C_23  and  N_24
REMARK                            x       y       z     vdW  Elec       q    Type
REMARK                         _______ _______ _______ _____ _____    ______ ____
ROOT
ATOM      1  N   UNL     1       3.739   4.026  18.884  0.00  0.00    +0.000 N 
ATOM      2  N   UNL     1       2.924   5.024  19.309  0.00  0.00    +0.000 NA
ATOM      3  C   UNL     1       3.336   6.133  18.665  0.00  0.00    +0.000 A 
ATOM      4  C   UNL     1       4.511   5.861  17.894  0.00  0.00    +0.000 A 
ATOM      5  C   UNL     1       4.739   4.502  18.061  0.00  0.00    +0.000 A 
ENDROOT
BRANCH   3   6
ATOM      6  C   UNL     1       2.546   7.376  18.783  0.00  0.00    +0.000 A 
ATOM      7  C   UNL     1       2.468   8.279  17.706  0.00  0.00    +0.000 A 
ATOM      8  C   UNL     1       1.785   9.495  17.835  0.00  0.00    +0.000 A 
ATOM      9  C   UNL     1       1.167   9.805  19.042  0.00  0.00    +0.000 A 
ATOM     10  O   UNL     1       0.529  11.058  19.154  0.00  0.00    +0.000 OA
ATOM     11  C   UNL     1      -0.056  11.465  20.349  0.00  0.00    +0.000 A 
ATOM     12  O   UNL     1      -0.560  12.574  20.488  0.00  0.00    +0.000 OA
ATOM     13  C   UNL     1      -0.070  10.485  21.447  0.00  0.00    +0.000 A 
ATOM     14  C   UNL     1       0.516   9.288  21.347  0.00  0.00    +0.000 A 
ATOM     15  C   UNL     1       1.204   8.925  20.117  0.00  0.00    +0.000 A 
ATOM     16  C   UNL     1       1.910   7.722  19.989  0.00  0.00    +0.000 A 
ENDBRANCH   3   6
BRANCH   4  17
ATOM     17  C   UNL     1       5.343   6.699  17.045  0.00  0.00    +0.000 C 
ATOM     18  N   UNL     1       5.070   6.706  15.707  0.00  0.00    +0.000 N 
ATOM     19  O   UNL     1       6.242   7.416  17.476  0.00  0.00    +0.000 OA
ATOM     20  H   UNL     1       4.220   6.315  15.331  0.00  0.00    +0.000 HD
ATOM     21  H   UNL     1       5.587   7.374  15.151  0.00  0.00    +0.000 HD
ENDBRANCH   4  17
BRANCH   1  23
ATOM     22  C   UNL     1       2.104   2.495  20.032  0.00  0.00    +0.000 C 
ATOM     23  C   UNL     1       3.450   2.626  19.273  0.00  0.00    +0.000 C 
ATOM     24  C   UNL     1       4.544   2.072  20.210  0.00  0.00    +0.000 C 
ATOM     25  C   UNL     1       3.329   1.726  18.023  0.00  0.00    +0.000 C 
ENDBRANCH   1  23
BRANCH   5  26
ATOM     26  N   UNL     1       5.733   3.753  17.529  0.00  0.00    +0.000 N 
ATOM     27  H   UNL     1       5.528   2.769  17.333  0.00  0.00    +0.000 HD
ATOM     28  H   UNL     1       6.718   3.904  17.709  0.00  0.00    +0.000 HD
ENDBRANCH   5  26
TORSDOF 4
ENDMDL
MODEL 5
REMARK VINA RESULT:      -8.1      1.568      1.774
REMARK  Name = 
REMARK  7 active torsions:
REMARK  status: ('A' for Active; 'I' for Inactive)
REMARK    1  A    between atoms: C_1  and  C_2
REMARK    2  A    between atoms: C_2  and  C_3
REMARK    3  A    between atoms: C_2  and  C_4
REMARK    4  A    between atoms: C_2  and  N_5
REMARK    5  A    between atoms: C_7  and  C_8
REMARK    6  A    between atoms: C_19  and  C_20
REMARK    7  A    between atoms: C_23  and  N_24
REMARK                            x       y       z     vdW  Elec       q    Type
REMARK                         _______ _______ _______ _____ _____    ______ ____
ROOT
ATOM      1  N   UNL     1       4.356   5.250  18.075  0.00  0.00    +0.000 N 
ATOM      2  N   UNL     1       3.710   6.443  18.101  0.00  0.00    +0.000 NA
ATOM      3  C   UNL     1       2.786   6.339  19.074  0.00  0.00    +0.000 A 
ATOM      4  C   UNL     1       2.764   5.011  19.608  0.00  0.00    +0.000 A 
ATOM      5  C   UNL     1       3.782   4.343  18.942  0.00  0.00    +0.000 A 
ENDROOT
BRANCH   3   6
ATOM      6  C   UNL     1       2.015   7.534  19.473  0.00  0.00    +0.000 A 
ATOM      7  C   UNL     1       1.840   8.606  18.578  0.00  0.00    +0.000 A 
ATOM      8  C   UNL     1       1.177   9.774  18.973  0.00  0.00    +0.000 A 
ATOM      9  C   UNL     1       0.674   9.867  20.267  0.00  0.00    +0.000 A 
ATOM     10  O   UNL     1       0.054  11.075  20.648  0.00  0.00    +0.000 OA
ATOM     11  C   UNL     1      -0.416  11.266  21.943  0.00  0.00    +0.000 A 
ATOM     12  O   UNL     1      -0.901  12.330  22.315  0.00  0.00    +0.000 OA
ATOM     13  C   UNL     1      -0.332  10.115  22.856  0.00  0.00    +0.000 A 
ATOM     14  C   UNL     1       0.238   8.959  22.501  0.00  0.00    +0.000 A 
ATOM     15  C   UNL     1       0.807   8.818  21.169  0.00  0.00    +0.000 A 
ATOM     16  C   UNL     1       1.494   7.663  20.774  0.00  0.00    +0.000 A 
ENDBRANCH   3   6
BRANCH   4  17
ATOM     17  C   UNL     1       1.959   4.384  20.645  0.00  0.00    +0.000 C 
ATOM     18  N   UNL     1       0.656   4.106  20.348  0.00  0.00    +0.000 N 
ATOM     19  O   UNL     1       2.403   4.066  21.746  0.00  0.00    +0.000 OA
ATOM     20  H   UNL     1       0.302   4.142  19.404  0.00  0.00    +0.000 HD
ATOM     21  H   UNL     1       0.146   3.574  21.041  0.00  0.00    +0.000 HD
ENDBRANCH   4  17
BRANCH   1  23
ATOM     22  C   UNL     1       5.386   3.934  16.193  0.00  0.00    +0.000 C 
ATOM     23  C   UNL     1       5.556   5.082  17.223  0.00  0.00    +0.000 C 
ATOM     24  C   UNL     1       6.797   4.737  18.072  0.00  0.00    +0.000 C 
ATOM     25  C   UNL     1       5.825   6.361  16.400  0.00  0.00    +0.000 C 
ENDBRANCH   1  23
BRANCH   5  26
ATOM     26  N   UNL     1       4.172   3.056  19.094  0.00  0.00    +0.000 N 
ATOM     27  H   UNL     1       3.466   2.329  18.944  0.00  0.00    +0.000 HD
ATOM     28  H   UNL     1       4.896   2.752  19.735  0.00  0.00    +0.000 HD
ENDBRANCH   5  26
TORSDOF 4
ENDMDL
MODEL 6
REMARK VINA RESULT:      -7.7      1.618      2.390
REMARK  Name = 
REMARK  7 active torsions:
REMARK  status: ('A' for Active; 'I' for Inactive)
REMARK    1  A    between atoms: C_1  and  C_2
REMARK    2  A    between atoms: C_2  and  C_3
REMARK    3  A    between atoms: C_2  and  C_4
REMARK    4  A    between atoms: C_2  and  N_5
REMARK    5  A    between atoms: C_7  and  C_8
REMARK    6  A    between atoms: C_19  and  C_20
REMARK    7  A    between atoms: C_23  and  N_24
REMARK                            x       y       z     vdW  Elec       q    Type
REMARK                         _______ _______ _______ _____ _____    ______ ____
ROOT
ATOM      1  N   UNL     1       4.524   5.040  17.935  0.00  0.00    +0.000 N 
ATOM      2  N   UNL     1       3.892   6.232  18.076  0.00  0.00    +0.000 NA
ATOM      3  C   UNL     1       2.969   6.045  19.039  0.00  0.00    +0.000 A 
ATOM      4  C   UNL     1       2.935   4.673  19.445  0.00  0.00    +0.000 A 
ATOM      5  C   UNL     1       3.943   4.061  18.715  0.00  0.00    +0.000 A 
ENDROOT
BRANCH   3   6
ATOM      6  C   UNL     1       2.212   7.205  19.553  0.00  0.00    +0.000 A 
ATOM      7  C   UNL     1       1.678   7.192  20.855  0.00  0.00    +0.000 A 
ATOM      8  C   UNL     1       0.895   8.255  21.323  0.00  0.00    +0.000 A 
ATOM      9  C   UNL     1       0.653   9.342  20.489  0.00  0.00    +0.000 A 
ATOM     10  O   UNL     1      -0.179  10.373  20.973  0.00  0.00    +0.000 OA
ATOM     11  C   UNL     1      -0.517  11.461  20.175  0.00  0.00    +0.000 A 
ATOM     12  O   UNL     1      -1.289  12.336  20.552  0.00  0.00    +0.000 OA
ATOM     13  C   UNL     1       0.120  11.535  18.850  0.00  0.00    +0.000 A 
ATOM     14  C   UNL     1       0.925  10.573  18.388  0.00  0.00    +0.000 A 
ATOM     15  C   UNL     1       1.186   9.399  19.206  0.00  0.00    +0.000 A 
ATOM     16  C   UNL     1       1.948   8.321  18.737  0.00  0.00    +0.000 A 
ENDBRANCH   3   6
BRANCH   4  17
ATOM     17  C   UNL     1       2.126   3.959  20.421  0.00  0.00    +0.000 C 
ATOM     18  N   UNL     1       0.784   3.872  20.184  0.00  0.00    +0.000 N 
ATOM     19  O   UNL     1       2.594   3.409  21.415  0.00  0.00    +0.000 OA
ATOM     20  H   UNL     1       0.381   4.110  19.290  0.00  0.00    +0.000 HD
ATOM     21  H   UNL     1       0.258   3.283  20.815  0.00  0.00    +0.000 HD
ENDBRANCH   4  17
BRANCH   1  23
ATOM     22  C   UNL     1       5.994   6.259  16.295  0.00  0.00    +0.000 C 
ATOM     23  C   UNL     1       5.720   4.940  17.066  0.00  0.00    +0.000 C 
ATOM     24  C   UNL     1       5.547   3.833  16.006  0.00  0.00    +0.000 C 
ATOM     25  C   UNL     1       6.985   4.663  17.908  0.00  0.00    +0.000 C 
ENDBRANCH   1  23
BRANCH   5  26
ATOM     26  N   UNL     1       4.319   2.761  18.742  0.00  0.00    +0.000 N 
ATOM     27  H   UNL     1       5.284   2.555  19.017  0.00  0.00    +0.000 HD
ATOM     28  H   UNL     1       3.940   2.046  18.132  0.00  0.00    +0.000 HD
ENDBRANCH   5  26
TORSDOF 4
ENDMDL
MODEL 7
REMARK VINA RESULT:      -7.3      4.549      5.925
REMARK  Name = 
REMARK  7 active torsions:
REMARK  status: ('A' for Active; 'I' for Inactive)
REMARK    1  A    between atoms: C_1  and  C_2
REMARK    2  A    between atoms: C_2  and  C_3
REMARK    3  A    between atoms: C_2  and  C_4
REMARK    4  A    between atoms: C_2  and  N_5
REMARK    5  A    between atoms: C_7  and  C_8
REMARK    6  A    between atoms: C_19  and  C_20
REMARK    7  A    between atoms: C_23  and  N_24
REMARK                            x       y       z     vdW  Elec       q    Type
REMARK                         _______ _______ _______ _____ _____    ______ ____
ROOT
ATOM      1  N   UNL     1       6.171   4.007  13.792  0.00  0.00    +0.000 N 
ATOM      2  N   UNL     1       5.243   3.457  14.615  0.00  0.00    +0.000 NA
ATOM      3  C   UNL     1       5.396   4.073  15.803  0.00  0.00    +0.000 A 
ATOM      4  C   UNL     1       6.521   4.959  15.770  0.00  0.00    +0.000 A 
ATOM      5  C   UNL     1       6.991   4.888  14.467  0.00  0.00    +0.000 A 
ENDROOT
BRANCH   3   6
ATOM      6  C   UNL     1       4.422   3.818  16.884  0.00  0.00    +0.000 A 
ATOM      7  C   UNL     1       3.098   4.285  16.779  0.00  0.00    +0.000 A 
ATOM      8  C   UNL     1       2.189   4.114  17.831  0.00  0.00    +0.000 A 
ATOM      9  C   UNL     1       2.601   3.463  18.989  0.00  0.00    +0.000 A 
ATOM     10  O   UNL     1       1.677   3.350  20.048  0.00  0.00    +0.000 OA
ATOM     11  C   UNL     1       2.035   2.769  21.259  0.00  0.00    +0.000 A 
ATOM     12  O   UNL     1       1.268   2.717  22.215  0.00  0.00    +0.000 OA
ATOM     13  C   UNL     1       3.384   2.185  21.341  0.00  0.00    +0.000 A 
ATOM     14  C   UNL     1       4.263   2.270  20.338  0.00  0.00    +0.000 A 
ATOM     15  C   UNL     1       3.894   2.968  19.116  0.00  0.00    +0.000 A 
ATOM     16  C   UNL     1       4.805   3.164  18.069  0.00  0.00    +0.000 A 
ENDBRANCH   3   6
BRANCH   4  17
ATOM     17  C   UNL     1       7.112   5.831  16.774  0.00  0.00    +0.000 C 
ATOM     18  N   UNL     1       7.701   5.240  17.853  0.00  0.00    +0.000 N 
ATOM     19  O   UNL     1       7.134   7.055  16.675  0.00  0.00    +0.000 OA
ATOM     20  H   UNL     1       7.904   4.252  17.880  0.00  0.00    +0.000 HD
ATOM     21  H   UNL     1       8.198   5.856  18.482  0.00  0.00    +0.000 HD
ENDBRANCH   4  17
BRANCH   1  23
ATOM     22  C   UNL     1       6.690   2.237  12.079  0.00  0.00    +0.000 C 
ATOM     23  C   UNL     1       6.164   3.672  12.349  0.00  0.00    +0.000 C 
ATOM     24  C   UNL     1       7.067   4.634  11.550  0.00  0.00    +0.000 C 
ATOM     25  C   UNL     1       4.726   3.716  11.785  0.00  0.00    +0.000 C 
ENDBRANCH   1  23
BRANCH   5  26
ATOM     26  N   UNL     1       8.041   5.546  13.924  0.00  0.00    +0.000 N 
ATOM     27  H   UNL     1       8.012   5.732  12.918  0.00  0.00    +0.000 HD
ATOM     28  H   UNL     1       8.993   5.482  14.268  0.00  0.00    +0.000 HD
ENDBRANCH   5  26
TORSDOF 4
ENDMDL
MODEL 8
REMARK VINA RESULT:      -7.2      3.705      7.578
REMARK  Name = 
REMARK  7 active torsions:
REMARK  status: ('A' for Active; 'I' for Inactive)
REMARK    1  A    between atoms: C_1  and  C_2
REMARK    2  A    between atoms: C_2  and  C_3
REMARK    3  A    between atoms: C_2  and  C_4
REMARK    4  A    between atoms: C_2  and  N_5
REMARK    5  A    between atoms: C_7  and  C_8
REMARK    6  A    between atoms: C_19  and  C_20
REMARK    7  A    between atoms: C_23  and  N_24
REMARK                            x       y       z     vdW  Elec       q    Type
REMARK                         _______ _______ _______ _____ _____    ______ ____
ROOT
ATOM      1  N   UNL     1      -0.497  10.904  19.542  0.00  0.00    +0.000 N 
ATOM      2  N   UNL     1       0.268   9.938  18.974  0.00  0.00    +0.000 NA
ATOM      3  C   UNL     1       0.813   9.253  19.997  0.00  0.00    +0.000 A 
ATOM      4  C   UNL     1       0.479   9.865  21.247  0.00  0.00    +0.000 A 
ATOM      5  C   UNL     1      -0.360  10.919  20.914  0.00  0.00    +0.000 A 
ENDROOT
BRANCH   3   6
ATOM      6  C   UNL     1       1.578   8.021  19.720  0.00  0.00    +0.000 A 
ATOM      7  C   UNL     1       2.384   7.922  18.570  0.00  0.00    +0.000 A 
ATOM      8  C   UNL     1       3.052   6.730  18.259  0.00  0.00    +0.000 A 
ATOM      9  C   UNL     1       2.923   5.635  19.108  0.00  0.00    +0.000 A 
ATOM     10  O   UNL     1       3.569   4.437  18.741  0.00  0.00    +0.000 OA
ATOM     11  C   UNL     1       3.434   3.282  19.505  0.00  0.00    +0.000 A 
ATOM     12  O   UNL     1       3.934   2.213  19.172  0.00  0.00    +0.000 OA
ATOM     13  C   UNL     1       2.679   3.404  20.763  0.00  0.00    +0.000 A 
ATOM     14  C   UNL     1       2.077   4.540  21.130  0.00  0.00    +0.000 A 
ATOM     15  C   UNL     1       2.155   5.706  20.264  0.00  0.00    +0.000 A 
ATOM     16  C   UNL     1       1.470   6.894  20.555  0.00  0.00    +0.000 A 
ENDBRANCH   3   6
BRANCH   4  17
ATOM     17  C   UNL     1       0.819   9.535  22.623  0.00  0.00    +0.000 C 
ATOM     18  N   UNL     1      -0.207   9.235  23.470  0.00  0.00    +0.000 N 
ATOM     19  O   UNL     1       1.974   9.482  23.039  0.00  0.00    +0.000 OA
ATOM     20  H   UNL     1      -1.142   9.051  23.138  0.00  0.00    +0.000 HD
ATOM     21  H   UNL     1       0.056   8.905  24.389  0.00  0.00    +0.000 HD
ENDBRANCH   4  17
BRANCH   1  23
ATOM     22  C   UNL     1      -2.687  12.139  19.421  0.00  0.00    +0.000 C 
ATOM     23  C   UNL     1      -1.378  11.739  18.692  0.00  0.00    +0.000 C 
ATOM     24  C   UNL     1      -1.795  10.984  17.413  0.00  0.00    +0.000 C 
ATOM     25  C   UNL     1      -0.676  13.061  18.311  0.00  0.00    +0.000 C 
ENDBRANCH   1  23
BRANCH   5  26
ATOM     26  N   UNL     1      -0.953  11.806  21.747  0.00  0.00    +0.000 N 
ATOM     27  H   UNL     1      -1.483  11.428  22.538  0.00  0.00    +0.000 HD
ATOM     28  H   UNL     1      -1.302  12.713  21.458  0.00  0.00    +0.000 HD
ENDBRANCH   5  26
TORSDOF 4
ENDMDL
