MODEL 1
REMARK VINA RESULT:      -7.3      0.000      0.000
REMARK  Name = 
REMARK  9 active torsions:
REMARK  status: ('A' for Active; 'I' for Inactive)
REMARK    1  A    between atoms: C_1  and  C_2
REMARK    2  A    between atoms: C_2  and  C_3
REMARK    3  A    between atoms: C_3  and  S_4
REMARK    4  A    between atoms: S_4  and  C_7
REMARK    5  A    between atoms: C_7  and  C_8
REMARK    6  A    between atoms: C_8  and  C_9
REMARK    7  A    between atoms: C_8  and  O_10
REMARK    8  A    between atoms: C_8  and  C_11
REMARK    9  A    between atoms: N_21  and  C_22
REMARK                            x       y       z     vdW  Elec       q    Type
REMARK                         _______ _______ _______ _____ _____    ______ ____
ROOT
ATOM      1  C   UNL     1       3.945   5.319  18.258  0.00  0.00    +0.000 A 
ATOM      2  N   UNL     1       3.783   6.438  17.570  0.00  0.00    +0.000 NA
ATOM      3  C   UNL     1       2.937   7.232  18.300  0.00  0.00    +0.000 A 
ATOM      4  C   UNL     1       2.424   8.504  18.006  0.00  0.00    +0.000 A 
ATOM      5  C   UNL     1       1.556   9.114  18.925  0.00  0.00    +0.000 A 
ATOM      6 CL   UNL     1       0.936  10.678  18.518  0.00  0.00    +0.000 Cl
ATOM      7  C   UNL     1       1.211   8.470  20.120  0.00  0.00    +0.000 A 
ATOM      8 CL   UNL     1       0.138   9.179  21.278  0.00  0.00    +0.000 Cl
ATOM      9  C   UNL     1       1.725   7.202  20.426  0.00  0.00    +0.000 A 
ATOM     10  C   UNL     1       2.592   6.612  19.496  0.00  0.00    +0.000 A 
ATOM     11  N   UNL     1       3.268   5.409  19.465  0.00  0.00    +0.000 N 
ATOM     12  C   UNL     1       3.258   4.435  20.533  0.00  0.00    +0.000 C 
ENDROOT
BRANCH   1  13
ATOM     13  C   UNL     1       4.763   4.121  17.768  0.00  0.00    +0.000 C 
ATOM     14  C   UNL     1       3.947   2.839  18.003  0.00  0.00    +0.000 C 
BRANCH  13  15
ATOM     15  O   UNL     1       5.935   4.072  18.582  0.00  0.00    +0.000 OA
ATOM     16  H   UNL     1       6.714   4.060  17.994  0.00  0.00    +0.000 HD
ENDBRANCH  13  15
BRANCH  13  17
ATOM     17  C   UNL     1       5.152   4.345  16.306  0.00  0.00    +0.000 C 
BRANCH  17  18
ATOM     18  S   UNL     1       6.795   4.995  16.016  0.00  0.00    +0.000 S 
ATOM     19  O   UNL     1       7.719   4.063  16.644  0.00  0.00    +0.000 OA
ATOM     20  O   UNL     1       6.817   6.394  16.383  0.00  0.00    +0.000 OA
BRANCH  18  21
ATOM     21  C   UNL     1       7.056   4.882  14.250  0.00  0.00    +0.000 C 
BRANCH  21  23
ATOM     22  C   UNL     1       6.599   3.611  12.149  0.00  0.00    +0.000 C 
ATOM     23  C   UNL     1       6.150   3.858  13.583  0.00  0.00    +0.000 C 
ENDBRANCH  21  23
ENDBRANCH  18  21
ENDBRANCH  17  18
ENDBRANCH  13  17
ENDBRANCH   1  13
TORSDOF 6
ENDMDL
MODEL 2
REMARK VINA RESULT:      -6.9      1.841      2.501
REMARK  Name = 
REMARK  9 active torsions:
REMARK  status: ('A' for Active; 'I' for Inactive)
REMARK    1  A    between atoms: C_1  and  C_2
REMARK    2  A    between atoms: C_2  and  C_3
REMARK    3  A    between atoms: C_3  and  S_4
REMARK    4  A    between atoms: S_4  and  C_7
REMARK    5  A    between atoms: C_7  and  C_8
REMARK    6  A    between atoms: C_8  and  C_9
REMARK    7  A    between atoms: C_8  and  O_10
REMARK    8  A    between atoms: C_8  and  C_11
REMARK    9  A    between atoms: N_21  and  C_22
REMARK                            x       y       z     vdW  Elec       q    Type
REMARK                         _______ _______ _______ _____ _____    ______ ____
ROOT
ATOM      1  C   UNL     1       3.706   5.856  18.175  0.00  0.00    +0.000 A 
ATOM      2  N   UNL     1       3.514   7.000  17.538  0.00  0.00    +0.000 NA
ATOM      3  C   UNL     1       2.679   7.754  18.322  0.00  0.00    +0.000 A 
ATOM      4  C   UNL     1       2.145   9.031  18.094  0.00  0.00    +0.000 A 
ATOM      5  C   UNL     1       1.296   9.593  19.059  0.00  0.00    +0.000 A 
ATOM      6 CL   UNL     1       0.649  11.165  18.732  0.00  0.00    +0.000 Cl
ATOM      7  C   UNL     1       0.988   8.897  20.235  0.00  0.00    +0.000 A 
ATOM      8 CL   UNL     1      -0.061   9.546  21.448  0.00  0.00    +0.000 Cl
ATOM      9  C   UNL     1       1.524   7.623  20.475  0.00  0.00    +0.000 A 
ATOM     10  C   UNL     1       2.372   7.082  19.499  0.00  0.00    +0.000 A 
ATOM     11  N   UNL     1       3.059   5.889  19.402  0.00  0.00    +0.000 N 
ATOM     12  C   UNL     1       3.087   4.872  20.428  0.00  0.00    +0.000 C 
ENDROOT
BRANCH   1  13
ATOM     13  C   UNL     1       4.523   4.688  17.615  0.00  0.00    +0.000 C 
ATOM     14  C   UNL     1       3.561   3.545  17.251  0.00  0.00    +0.000 C 
BRANCH  13  15
ATOM     15  O   UNL     1       5.376   4.249  18.672  0.00  0.00    +0.000 OA
ATOM     16  H   UNL     1       5.533   3.292  18.560  0.00  0.00    +0.000 HD
ENDBRANCH  13  15
BRANCH  13  17
ATOM     17  C   UNL     1       5.364   5.185  16.438  0.00  0.00    +0.000 C 
BRANCH  17  18
ATOM     18  S   UNL     1       7.107   5.437  16.764  0.00  0.00    +0.000 S 
ATOM     19  O   UNL     1       7.687   5.927  15.523  0.00  0.00    +0.000 OA
ATOM     20  O   UNL     1       7.643   4.250  17.393  0.00  0.00    +0.000 OA
BRANCH  18  21
ATOM     21  C   UNL     1       7.190   6.776  17.946  0.00  0.00    +0.000 C 
BRANCH  21  23
ATOM     22  C   UNL     1       8.358   8.970  18.197  0.00  0.00    +0.000 C 
ATOM     23  C   UNL     1       7.471   8.123  17.295  0.00  0.00    +0.000 C 
ENDBRANCH  21  23
ENDBRANCH  18  21
ENDBRANCH  17  18
ENDBRANCH  13  17
ENDBRANCH   1  13
TORSDOF 6
ENDMDL
MODEL 3
REMARK VINA RESULT:      -6.8      1.110      1.171
REMARK  Name = 
REMARK  9 active torsions:
REMARK  status: ('A' for Active; 'I' for Inactive)
REMARK    1  A    between atoms: C_1  and  C_2
REMARK    2  A    between atoms: C_2  and  C_3
REMARK    3  A    between atoms: C_3  and  S_4
REMARK    4  A    between atoms: S_4  and  C_7
REMARK    5  A    between atoms: C_7  and  C_8
REMARK    6  A    between atoms: C_8  and  C_9
REMARK    7  A    between atoms: C_8  and  O_10
REMARK    8  A    between atoms: C_8  and  C_11
REMARK    9  A    between atoms: N_21  and  C_22
REMARK                            x       y       z     vdW  Elec       q    Type
REMARK                         _______ _______ _______ _____ _____    ______ ____
ROOT
ATOM      1  C   UNL     1       3.731   6.406  17.945  0.00  0.00    +0.000 A 
ATOM      2  N   UNL     1       3.441   7.555  17.354  0.00  0.00    +0.000 NA
ATOM      3  C   UNL     1       2.566   8.213  18.178  0.00  0.00    +0.000 A 
ATOM      4  C   UNL     1       1.932   9.453  18.007  0.00  0.00    +0.000 A 
ATOM      5  C   UNL     1       1.060   9.913  19.005  0.00  0.00    +0.000 A 
ATOM      6 CL   UNL     1       0.290  11.441  18.748  0.00  0.00    +0.000 Cl
ATOM      7  C   UNL     1       0.828   9.153  20.159  0.00  0.00    +0.000 A 
ATOM      8 CL   UNL     1      -0.245   9.676  21.412  0.00  0.00    +0.000 Cl
ATOM      9  C   UNL     1       1.464   7.916  20.343  0.00  0.00    +0.000 A 
ATOM     10  C   UNL     1       2.333   7.477  19.334  0.00  0.00    +0.000 A 
ATOM     11  N   UNL     1       3.107   6.345  19.182  0.00  0.00    +0.000 N 
ATOM     12  C   UNL     1       3.231   5.297  20.169  0.00  0.00    +0.000 C 
ENDROOT
BRANCH   1  13
ATOM     13  C   UNL     1       4.624   5.325  17.329  0.00  0.00    +0.000 C 
ATOM     14  C   UNL     1       3.765   4.084  17.039  0.00  0.00    +0.000 C 
BRANCH  13  15
ATOM     15  O   UNL     1       5.594   4.989  18.321  0.00  0.00    +0.000 OA
ATOM     16  H   UNL     1       5.971   4.118  18.096  0.00  0.00    +0.000 HD
ENDBRANCH  13  15
BRANCH  13  17
ATOM     17  C   UNL     1       5.320   5.896  16.092  0.00  0.00    +0.000 C 
BRANCH  17  18
ATOM     18  S   UNL     1       6.497   4.819  15.279  0.00  0.00    +0.000 S 
ATOM     19  O   UNL     1       6.883   3.820  16.263  0.00  0.00    +0.000 OA
ATOM     20  O   UNL     1       7.507   5.629  14.635  0.00  0.00    +0.000 OA
BRANCH  18  21
ATOM     21  C   UNL     1       5.574   3.968  14.004  0.00  0.00    +0.000 C 
BRANCH  21  23
ATOM     22  C   UNL     1       5.620   2.819  11.787  0.00  0.00    +0.000 C 
ATOM     23  C   UNL     1       6.403   3.691  12.760  0.00  0.00    +0.000 C 
ENDBRANCH  21  23
ENDBRANCH  18  21
ENDBRANCH  17  18
ENDBRANCH  13  17
ENDBRANCH   1  13
TORSDOF 6
ENDMDL
MODEL 4
REMARK VINA RESULT:      -6.8      1.727      2.365
REMARK  Name = 
REMARK  9 active torsions:
REMARK  status: ('A' for Active; 'I' for Inactive)
REMARK    1  A    between atoms: C_1  and  C_2
REMARK    2  A    between atoms: C_2  and  C_3
REMARK    3  A    between atoms: C_3  and  S_4
REMARK    4  A    between atoms: S_4  and  C_7
REMARK    5  A    between atoms: C_7  and  C_8
REMARK    6  A    between atoms: C_8  and  C_9
REMARK    7  A    between atoms: C_8  and  O_10
REMARK    8  A    between atoms: C_8  and  C_11
REMARK    9  A    between atoms: N_21  and  C_22
REMARK                            x       y       z     vdW  Elec       q    Type
REMARK                         _______ _______ _______ _____ _____    ______ ____
ROOT
ATOM      1  C   UNL     1       3.418   5.082  18.534  0.00  0.00    +0.000 A 
ATOM      2  N   UNL     1       3.334   6.198  17.827  0.00  0.00    +0.000 NA
ATOM      3  C   UNL     1       2.603   7.086  18.573  0.00  0.00    +0.000 A 
ATOM      4  C   UNL     1       2.203   8.395  18.270  0.00  0.00    +0.000 A 
ATOM      5  C   UNL     1       1.441   9.106  19.210  0.00  0.00    +0.000 A 
ATOM      6 CL   UNL     1       0.957  10.715  18.790  0.00  0.00    +0.000 Cl
ATOM      7  C   UNL     1       1.089   8.524  20.434  0.00  0.00    +0.000 A 
ATOM      8 CL   UNL     1       0.144   9.358  21.619  0.00  0.00    +0.000 Cl
ATOM      9  C   UNL     1       1.491   7.218  20.748  0.00  0.00    +0.000 A 
ATOM     10  C   UNL     1       2.254   6.527  19.797  0.00  0.00    +0.000 A 
ATOM     11  N   UNL     1       2.808   5.263  19.767  0.00  0.00    +0.000 N 
ATOM     12  C   UNL     1       2.752   4.317  20.858  0.00  0.00    +0.000 C 
ENDROOT
BRANCH   1  13
ATOM     13  C   UNL     1       4.092   3.800  18.039  0.00  0.00    +0.000 C 
ATOM     14  C   UNL     1       3.017   2.879  17.440  0.00  0.00    +0.000 C 
BRANCH  13  15
ATOM     15  O   UNL     1       4.648   3.166  19.192  0.00  0.00    +0.000 OA
ATOM     16  H   UNL     1       4.464   2.209  19.132  0.00  0.00    +0.000 HD
ENDBRANCH  13  15
BRANCH  13  17
ATOM     17  C   UNL     1       5.207   4.168  17.058  0.00  0.00    +0.000 C 
BRANCH  17  18
ATOM     18  S   UNL     1       6.645   4.971  17.760  0.00  0.00    +0.000 S 
ATOM     19  O   UNL     1       7.788   4.510  16.986  0.00  0.00    +0.000 OA
ATOM     20  O   UNL     1       6.626   4.796  19.196  0.00  0.00    +0.000 OA
BRANCH  18  21
ATOM     21  C   UNL     1       6.445   6.714  17.411  0.00  0.00    +0.000 C 
BRANCH  21  23
ATOM     22  C   UNL     1       8.137   8.426  18.077  0.00  0.00    +0.000 C 
ATOM     23  C   UNL     1       7.751   7.393  17.027  0.00  0.00    +0.000 C 
ENDBRANCH  21  23
ENDBRANCH  18  21
ENDBRANCH  17  18
ENDBRANCH  13  17
ENDBRANCH   1  13
TORSDOF 6
ENDMDL
MODEL 5
REMARK VINA RESULT:      -6.7      2.582      3.749
REMARK  Name = 
REMARK  9 active torsions:
REMARK  status: ('A' for Active; 'I' for Inactive)
REMARK    1  A    between atoms: C_1  and  C_2
REMARK    2  A    between atoms: C_2  and  C_3
REMARK    3  A    between atoms: C_3  and  S_4
REMARK    4  A    between atoms: S_4  and  C_7
REMARK    5  A    between atoms: C_7  and  C_8
REMARK    6  A    between atoms: C_8  and  C_9
REMARK    7  A    between atoms: C_8  and  O_10
REMARK    8  A    between atoms: C_8  and  C_11
REMARK    9  A    between atoms: N_21  and  C_22
REMARK                            x       y       z     vdW  Elec       q    Type
REMARK                         _______ _______ _______ _____ _____    ______ ____
ROOT
ATOM      1  C   UNL     1       2.275   6.792  19.614  0.00  0.00    +0.000 A 
ATOM      2  N   UNL     1       1.642   6.824  20.776  0.00  0.00    +0.000 NA
ATOM      3  C   UNL     1       1.126   8.087  20.911  0.00  0.00    +0.000 A 
ATOM      4  C   UNL     1       0.396   8.649  21.969  0.00  0.00    +0.000 A 
ATOM      5  C   UNL     1      -0.020   9.986  21.870  0.00  0.00    +0.000 A 
ATOM      6 CL   UNL     1      -0.906  10.644  23.203  0.00  0.00    +0.000 Cl
ATOM      7  C   UNL     1       0.281  10.747  20.734  0.00  0.00    +0.000 A 
ATOM      8 CL   UNL     1      -0.203  12.401  20.572  0.00  0.00    +0.000 Cl
ATOM      9  C   UNL     1       1.003  10.191  19.668  0.00  0.00    +0.000 A 
ATOM     10  C   UNL     1       1.406   8.853  19.786  0.00  0.00    +0.000 A 
ATOM     11  N   UNL     1       2.111   8.003  18.958  0.00  0.00    +0.000 N 
ATOM     12  C   UNL     1       2.576   8.346  17.634  0.00  0.00    +0.000 C 
ENDROOT
BRANCH   1  13
ATOM     13  C   UNL     1       3.062   5.584  19.098  0.00  0.00    +0.000 C 
ATOM     14  C   UNL     1       2.231   4.884  18.010  0.00  0.00    +0.000 C 
BRANCH  13  15
ATOM     15  O   UNL     1       3.208   4.694  20.205  0.00  0.00    +0.000 OA
ATOM     16  H   UNL     1       2.951   3.800  19.913  0.00  0.00    +0.000 HD
ENDBRANCH  13  15
BRANCH  13  17
ATOM     17  C   UNL     1       4.437   6.051  18.618  0.00  0.00    +0.000 C 
BRANCH  17  18
ATOM     18  S   UNL     1       5.639   4.765  18.291  0.00  0.00    +0.000 S 
ATOM     19  O   UNL     1       5.378   4.297  16.939  0.00  0.00    +0.000 OA
ATOM     20  O   UNL     1       5.636   3.828  19.394  0.00  0.00    +0.000 OA
BRANCH  18  21
ATOM     21  C   UNL     1       7.229   5.583  18.264  0.00  0.00    +0.000 C 
BRANCH  21  23
ATOM     22  C   UNL     1       7.819   7.958  17.764  0.00  0.00    +0.000 C 
ATOM     23  C   UNL     1       7.331   6.641  17.176  0.00  0.00    +0.000 C 
ENDBRANCH  21  23
ENDBRANCH  18  21
ENDBRANCH  17  18
ENDBRANCH  13  17
ENDBRANCH   1  13
TORSDOF 6
ENDMDL
MODEL 6
REMARK VINA RESULT:      -6.7      2.089      3.411
REMARK  Name = 
REMARK  9 active torsions:
REMARK  status: ('A' for Active; 'I' for Inactive)
REMARK    1  A    between atoms: C_1  and  C_2
REMARK    2  A    between atoms: C_2  and  C_3
REMARK    3  A    between atoms: C_3  and  S_4
REMARK    4  A    between atoms: S_4  and  C_7
REMARK    5  A    between atoms: C_7  and  C_8
REMARK    6  A    between atoms: C_8  and  C_9
REMARK    7  A    between atoms: C_8  and  O_10
REMARK    8  A    between atoms: C_8  and  C_11
REMARK    9  A    between atoms: N_21  and  C_22
REMARK                            x       y       z     vdW  Elec       q    Type
REMARK                         _______ _______ _______ _____ _____    ______ ____
ROOT
ATOM      1  C   UNL     1       2.233   6.855  19.748  0.00  0.00    +0.000 A 
ATOM      2  N   UNL     1       1.600   7.008  20.900  0.00  0.00    +0.000 NA
ATOM      3  C   UNL     1       1.095   8.283  20.908  0.00  0.00    +0.000 A 
ATOM      4  C   UNL     1       0.370   8.954  21.903  0.00  0.00    +0.000 A 
ATOM      5  C   UNL     1      -0.032  10.279  21.672  0.00  0.00    +0.000 A 
ATOM      6 CL   UNL     1      -0.914  11.075  22.932  0.00  0.00    +0.000 Cl
ATOM      7  C   UNL     1       0.277  10.921  20.467  0.00  0.00    +0.000 A 
ATOM      8 CL   UNL     1      -0.190  12.555  20.141  0.00  0.00    +0.000 Cl
ATOM      9  C   UNL     1       0.995  10.255  19.463  0.00  0.00    +0.000 A 
ATOM     10  C   UNL     1       1.384   8.932  19.713  0.00  0.00    +0.000 A 
ATOM     11  N   UNL     1       2.082   7.997  18.976  0.00  0.00    +0.000 N 
ATOM     12  C   UNL     1       2.552   8.202  17.624  0.00  0.00    +0.000 C 
ENDROOT
BRANCH   1  13
ATOM     13  C   UNL     1       3.009   5.594  19.356  0.00  0.00    +0.000 C 
ATOM     14  C   UNL     1       2.127   4.744  18.427  0.00  0.00    +0.000 C 
BRANCH  13  15
ATOM     15  O   UNL     1       3.235   4.867  20.564  0.00  0.00    +0.000 OA
ATOM     16  H   UNL     1       3.438   5.508  21.272  0.00  0.00    +0.000 HD
ENDBRANCH  13  15
BRANCH  13  17
ATOM     17  C   UNL     1       4.345   6.003  18.734  0.00  0.00    +0.000 C 
BRANCH  17  18
ATOM     18  S   UNL     1       5.689   4.833  18.912  0.00  0.00    +0.000 S 
ATOM     19  O   UNL     1       5.075   3.545  19.195  0.00  0.00    +0.000 OA
ATOM     20  O   UNL     1       6.672   5.382  19.821  0.00  0.00    +0.000 OA
BRANCH  18  21
ATOM     21  C   UNL     1       6.441   4.710  17.293  0.00  0.00    +0.000 C 
BRANCH  21  23
ATOM     22  C   UNL     1       6.023   4.467  14.843  0.00  0.00    +0.000 C 
ATOM     23  C   UNL     1       5.486   4.173  16.237  0.00  0.00    +0.000 C 
ENDBRANCH  21  23
ENDBRANCH  18  21
ENDBRANCH  17  18
ENDBRANCH  13  17
ENDBRANCH   1  13
TORSDOF 6
ENDMDL
MODEL 7
REMARK VINA RESULT:      -6.7      3.116      4.824
REMARK  Name = 
REMARK  9 active torsions:
REMARK  status: ('A' for Active; 'I' for Inactive)
REMARK    1  A    between atoms: C_1  and  C_2
REMARK    2  A    between atoms: C_2  and  C_3
REMARK    3  A    between atoms: C_3  and  S_4
REMARK    4  A    between atoms: S_4  and  C_7
REMARK    5  A    between atoms: C_7  and  C_8
REMARK    6  A    between atoms: C_8  and  C_9
REMARK    7  A    between atoms: C_8  and  O_10
REMARK    8  A    between atoms: C_8  and  C_11
REMARK    9  A    between atoms: N_21  and  C_22
REMARK                            x       y       z     vdW  Elec       q    Type
REMARK                         _______ _______ _______ _____ _____    ______ ____
ROOT
ATOM      1  C   UNL     1       2.403   6.907  19.339  0.00  0.00    +0.000 A 
ATOM      2  N   UNL     1       1.851   6.823  20.539  0.00  0.00    +0.000 NA
ATOM      3  C   UNL     1       1.253   8.032  20.786  0.00  0.00    +0.000 A 
ATOM      4  C   UNL     1       0.558   8.474  21.921  0.00  0.00    +0.000 A 
ATOM      5  C   UNL     1       0.038   9.777  21.933  0.00  0.00    +0.000 A 
ATOM      6 CL   UNL     1      -0.800  10.287  23.359  0.00  0.00    +0.000 Cl
ATOM      7  C   UNL     1       0.202  10.624  20.829  0.00  0.00    +0.000 A 
ATOM      8 CL   UNL     1      -0.413  12.241  20.803  0.00  0.00    +0.000 Cl
ATOM      9  C   UNL     1       0.888  10.187  19.687  0.00  0.00    +0.000 A 
ATOM     10  C   UNL     1       1.397   8.881  19.695  0.00  0.00    +0.000 A 
ATOM     11  N   UNL     1       2.104   8.137  18.772  0.00  0.00    +0.000 N 
ATOM     12  C   UNL     1       2.449   8.591  17.444  0.00  0.00    +0.000 C 
ENDROOT
BRANCH   1  13
ATOM     13  C   UNL     1       3.240   5.796  18.699  0.00  0.00    +0.000 C 
ATOM     14  C   UNL     1       4.471   6.431  18.032  0.00  0.00    +0.000 C 
BRANCH  13  15
ATOM     15  O   UNL     1       2.423   5.209  17.685  0.00  0.00    +0.000 OA
ATOM     16  H   UNL     1       3.007   4.756  17.048  0.00  0.00    +0.000 HD
ENDBRANCH  13  15
BRANCH  13  17
ATOM     17  C   UNL     1       3.583   4.752  19.762  0.00  0.00    +0.000 C 
BRANCH  17  18
ATOM     18  S   UNL     1       3.853   3.083  19.173  0.00  0.00    +0.000 S 
ATOM     19  O   UNL     1       4.799   2.473  20.095  0.00  0.00    +0.000 OA
ATOM     20  O   UNL     1       4.146   3.127  17.758  0.00  0.00    +0.000 OA
BRANCH  18  21
ATOM     21  C   UNL     1       2.292   2.235  19.389  0.00  0.00    +0.000 C 
BRANCH  21  23
ATOM     22  C   UNL     1       1.462   2.610  21.715  0.00  0.00    +0.000 C 
ATOM     23  C   UNL     1       1.311   3.013  20.254  0.00  0.00    +0.000 C 
ENDBRANCH  21  23
ENDBRANCH  18  21
ENDBRANCH  17  18
ENDBRANCH  13  17
ENDBRANCH   1  13
TORSDOF 6
ENDMDL
MODEL 8
REMARK VINA RESULT:      -6.6      1.044      1.225
REMARK  Name = 
REMARK  9 active torsions:
REMARK  status: ('A' for Active; 'I' for Inactive)
REMARK    1  A    between atoms: C_1  and  C_2
REMARK    2  A    between atoms: C_2  and  C_3
REMARK    3  A    between atoms: C_3  and  S_4
REMARK    4  A    between atoms: S_4  and  C_7
REMARK    5  A    between atoms: C_7  and  C_8
REMARK    6  A    between atoms: C_8  and  C_9
REMARK    7  A    between atoms: C_8  and  O_10
REMARK    8  A    between atoms: C_8  and  C_11
REMARK    9  A    between atoms: N_21  and  C_22
REMARK                            x       y       z     vdW  Elec       q    Type
REMARK                         _______ _______ _______ _____ _____    ______ ____
ROOT
ATOM      1  C   UNL     1       3.015   5.435  18.726  0.00  0.00    +0.000 A 
ATOM      2  N   UNL     1       2.987   6.523  17.973  0.00  0.00    +0.000 NA
ATOM      3  C   UNL     1       2.317   7.482  18.688  0.00  0.00    +0.000 A 
ATOM      4  C   UNL     1       1.989   8.799  18.335  0.00  0.00    +0.000 A 
ATOM      5  C   UNL     1       1.281   9.591  19.251  0.00  0.00    +0.000 A 
ATOM      6 CL   UNL     1       0.885  11.206  18.770  0.00  0.00    +0.000 Cl
ATOM      7  C   UNL     1       0.911   9.081  20.502  0.00  0.00    +0.000 A 
ATOM      8 CL   UNL     1       0.030  10.017  21.661  0.00  0.00    +0.000 Cl
ATOM      9  C   UNL     1       1.242   7.768  20.867  0.00  0.00    +0.000 A 
ATOM     10  C   UNL     1       1.952   6.995  19.938  0.00  0.00    +0.000 A 
ATOM     11  N   UNL     1       2.432   5.701  19.956  0.00  0.00    +0.000 N 
ATOM     12  C   UNL     1       2.336   4.806  21.086  0.00  0.00    +0.000 C 
ENDROOT
BRANCH   1  13
ATOM     13  C   UNL     1       3.609   4.096  18.278  0.00  0.00    +0.000 C 
ATOM     14  C   UNL     1       2.460   3.100  18.050  0.00  0.00    +0.000 C 
BRANCH  13  15
ATOM     15  O   UNL     1       4.412   3.628  19.362  0.00  0.00    +0.000 OA
ATOM     16  H   UNL     1       5.135   3.087  18.994  0.00  0.00    +0.000 HD
ENDBRANCH  13  15
BRANCH  13  17
ATOM     17  C   UNL     1       4.482   4.324  17.043  0.00  0.00    +0.000 C 
BRANCH  17  18
ATOM     18  S   UNL     1       6.132   4.951  17.346  0.00  0.00    +0.000 S 
ATOM     19  O   UNL     1       6.671   4.165  18.445  0.00  0.00    +0.000 OA
ATOM     20  O   UNL     1       6.075   6.393  17.447  0.00  0.00    +0.000 OA
BRANCH  18  21
ATOM     21  C   UNL     1       7.084   4.535  15.890  0.00  0.00    +0.000 C 
BRANCH  21  23
ATOM     22  C   UNL     1       6.164   3.839  13.674  0.00  0.00    +0.000 C 
ATOM     23  C   UNL     1       6.433   5.016  14.601  0.00  0.00    +0.000 C 
ENDBRANCH  21  23
ENDBRANCH  18  21
ENDBRANCH  17  18
ENDBRANCH  13  17
ENDBRANCH   1  13
TORSDOF 6
ENDMDL
MODEL 9
REMARK VINA RESULT:      -6.6      1.051      1.116
REMARK  Name = 
REMARK  9 active torsions:
REMARK  status: ('A' for Active; 'I' for Inactive)
REMARK    1  A    between atoms: C_1  and  C_2
REMARK    2  A    between atoms: C_2  and  C_3
REMARK    3  A    between atoms: C_3  and  S_4
REMARK    4  A    between atoms: S_4  and  C_7
REMARK    5  A    between atoms: C_7  and  C_8
REMARK    6  A    between atoms: C_8  and  C_9
REMARK    7  A    between atoms: C_8  and  O_10
REMARK    8  A    between atoms: C_8  and  C_11
REMARK    9  A    between atoms: N_21  and  C_22
REMARK                            x       y       z     vdW  Elec       q    Type
REMARK                         _______ _______ _______ _____ _____    ______ ____
ROOT
ATOM      1  C   UNL     1       3.373   6.122  18.425  0.00  0.00    +0.000 A 
ATOM      2  N   UNL     1       3.124   7.336  17.961  0.00  0.00    +0.000 NA
ATOM      3  C   UNL     1       2.284   7.940  18.860  0.00  0.00    +0.000 A 
ATOM      4  C   UNL     1       1.700   9.214  18.827  0.00  0.00    +0.000 A 
ATOM      5  C   UNL     1       0.856   9.602  19.879  0.00  0.00    +0.000 A 
ATOM      6 CL   UNL     1       0.146  11.178  19.792  0.00  0.00    +0.000 Cl
ATOM      7  C   UNL     1       0.604   8.736  20.951  0.00  0.00    +0.000 A 
ATOM      8 CL   UNL     1      -0.435   9.166  22.265  0.00  0.00    +0.000 Cl
ATOM      9  C   UNL     1       1.190   7.462  20.997  0.00  0.00    +0.000 A 
ATOM     10  C   UNL     1       2.032   7.097  19.937  0.00  0.00    +0.000 A 
ATOM     11  N   UNL     1       2.758   5.957  19.657  0.00  0.00    +0.000 N 
ATOM     12  C   UNL     1       2.848   4.808  20.529  0.00  0.00    +0.000 C 
ENDROOT
BRANCH   1  13
ATOM     13  C   UNL     1       4.215   5.077  17.688  0.00  0.00    +0.000 C 
ATOM     14  C   UNL     1       3.277   4.001  17.119  0.00  0.00    +0.000 C 
BRANCH  13  15
ATOM     15  O   UNL     1       5.060   4.475  18.670  0.00  0.00    +0.000 OA
ATOM     16  H   UNL     1       5.912   4.949  18.671  0.00  0.00    +0.000 HD
ENDBRANCH  13  15
BRANCH  13  17
ATOM     17  C   UNL     1       5.066   5.778  16.628  0.00  0.00    +0.000 C 
BRANCH  17  18
ATOM     18  S   UNL     1       6.717   5.129  16.383  0.00  0.00    +0.000 S 
ATOM     19  O   UNL     1       7.092   4.487  17.634  0.00  0.00    +0.000 OA
ATOM     20  O   UNL     1       7.552   6.169  15.824  0.00  0.00    +0.000 OA
BRANCH  18  21
ATOM     21  C   UNL     1       6.552   3.834  15.160  0.00  0.00    +0.000 C 
BRANCH  21  23
ATOM     22  C   UNL     1       5.967   3.555  12.748  0.00  0.00    +0.000 C 
ATOM     23  C   UNL     1       5.542   4.171  14.074  0.00  0.00    +0.000 C 
ENDBRANCH  21  23
ENDBRANCH  18  21
ENDBRANCH  17  18
ENDBRANCH  13  17
ENDBRANCH   1  13
TORSDOF 6
ENDMDL
