MODEL 1
REMARK VINA RESULT:      -7.9      0.000      0.000
REMARK  Name = 
REMARK  3 active torsions:
REMARK  status: ('A' for Active; 'I' for Inactive)
REMARK    1  A    between atoms: C_1  and  C_2
REMARK    2  A    between atoms: C_9  and  N_10
REMARK    3  A    between atoms: N_15  and  C_16
REMARK                            x       y       z     vdW  Elec       q    Type
REMARK                         _______ _______ _______ _____ _____    ______ ____
ROOT
ATOM      1  C   UNL     1      -0.323  10.102  20.166  0.00  0.00    +0.000 C 
ATOM      2  C   UNL     1       0.846   9.378  19.559  0.00  0.00    +0.000 A 
ATOM      3  C   UNL     1       1.339   9.756  18.316  0.00  0.00    +0.000 A 
ATOM      4  C   UNL     1       2.347   8.996  17.691  0.00  0.00    +0.000 A 
ATOM      5  C   UNL     1       2.809   7.780  18.204  0.00  0.00    +0.000 A 
ATOM      6  N   UNL     1       3.762   7.053  17.564  0.00  0.00    +0.000 NA
ATOM      7  C   UNL     1       4.116   5.879  18.118  0.00  0.00    +0.000 A 
ATOM      8  C   UNL     1       3.461   5.353  19.231  0.00  0.00    +0.000 A 
ATOM      9  C   UNL     1       2.507   6.064  19.909  0.00  0.00    +0.000 A 
ATOM     10  C   UNL     1       2.244   7.361  19.432  0.00  0.00    +0.000 A 
ATOM     11  C   UNL     1       1.405   8.236  20.140  0.00  0.00    +0.000 A 
ATOM     12  C   UNL     1       4.059   4.050  19.599  0.00  0.00    +0.000 C 
ATOM     13  C   UNL     1       5.478   4.397  19.202  0.00  0.00    +0.000 C 
ATOM     14  N   UNL     1       5.391   5.214  17.950  0.00  0.00    +0.000 N 
ENDROOT
BRANCH  14  15
ATOM     15  C   UNL     1       5.911   4.423  16.866  0.00  0.00    +0.000 A 
ATOM     16  C   UNL     1       7.241   4.601  16.445  0.00  0.00    +0.000 A 
ATOM     17  C   UNL     1       7.485   4.902  15.101  0.00  0.00    +0.000 A 
ATOM     18  C   UNL     1       6.441   4.861  14.176  0.00  0.00    +0.000 A 
ATOM     19  C   UNL     1       5.187   4.392  14.562  0.00  0.00    +0.000 A 
ATOM     20  C   UNL     1       4.934   4.123  15.904  0.00  0.00    +0.000 A 
ENDBRANCH  14  15
BRANCH   9  21
ATOM     21  N   UNL     1       2.045   5.560  21.139  0.00  0.00    +0.000 N 
ATOM     22  H   UNL     1       1.110   5.161  21.089  0.00  0.00    +0.000 HD
ATOM     23  H   UNL     1       2.051   6.229  21.900  0.00  0.00    +0.000 HD
ENDBRANCH   9  21
TORSDOF 2
ENDMDL
MODEL 2
REMARK VINA RESULT:      -7.6      3.149      6.622
REMARK  Name = 
REMARK  3 active torsions:
REMARK  status: ('A' for Active; 'I' for Inactive)
REMARK    1  A    between atoms: C_1  and  C_2
REMARK    2  A    between atoms: C_9  and  N_10
REMARK    3  A    between atoms: N_15  and  C_16
REMARK                            x       y       z     vdW  Elec       q    Type
REMARK                         _______ _______ _______ _____ _____    ______ ____
ROOT
ATOM      1  C   UNL     1       8.235   5.832  12.065  0.00  0.00    +0.000 C 
ATOM      2  C   UNL     1       7.460   5.113  13.134  0.00  0.00    +0.000 A 
ATOM      3  C   UNL     1       6.618   4.058  12.804  0.00  0.00    +0.000 A 
ATOM      4  C   UNL     1       5.795   3.472  13.784  0.00  0.00    +0.000 A 
ATOM      5  C   UNL     1       5.679   3.982  15.082  0.00  0.00    +0.000 A 
ATOM      6  N   UNL     1       4.854   3.414  16.000  0.00  0.00    +0.000 NA
ATOM      7  C   UNL     1       4.784   3.999  17.210  0.00  0.00    +0.000 A 
ATOM      8  C   UNL     1       5.425   5.204  17.493  0.00  0.00    +0.000 A 
ATOM      9  C   UNL     1       6.276   5.797  16.597  0.00  0.00    +0.000 A 
ATOM     10  C   UNL     1       6.481   5.108  15.388  0.00  0.00    +0.000 A 
ATOM     11  C   UNL     1       7.449   5.537  14.466  0.00  0.00    +0.000 A 
ATOM     12  C   UNL     1       5.154   5.603  18.892  0.00  0.00    +0.000 C 
ATOM     13  C   UNL     1       5.113   4.201  19.463  0.00  0.00    +0.000 C 
ATOM     14  N   UNL     1       4.427   3.340  18.449  0.00  0.00    +0.000 N 
ENDROOT
BRANCH  14  15
ATOM     15  C   UNL     1       3.148   2.957  18.983  0.00  0.00    +0.000 A 
ATOM     16  C   UNL     1       1.984   3.625  18.562  0.00  0.00    +0.000 A 
ATOM     17  C   UNL     1       1.159   4.211  19.526  0.00  0.00    +0.000 A 
ATOM     18  C   UNL     1       1.407   3.991  20.882  0.00  0.00    +0.000 A 
ATOM     19  C   UNL     1       2.389   3.083  21.272  0.00  0.00    +0.000 A 
ATOM     20  C   UNL     1       3.230   2.523  20.315  0.00  0.00    +0.000 A 
ENDBRANCH  14  15
BRANCH   9  21
ATOM     21  N   UNL     1       7.047   6.891  17.030  0.00  0.00    +0.000 N 
ATOM     22  H   UNL     1       7.436   6.770  17.962  0.00  0.00    +0.000 HD
ATOM     23  H   UNL     1       6.565   7.782  17.014  0.00  0.00    +0.000 HD
ENDBRANCH   9  21
TORSDOF 2
ENDMDL
MODEL 3
REMARK VINA RESULT:      -7.5      3.112      4.343
REMARK  Name = 
REMARK  3 active torsions:
REMARK  status: ('A' for Active; 'I' for Inactive)
REMARK    1  A    between atoms: C_1  and  C_2
REMARK    2  A    between atoms: C_9  and  N_10
REMARK    3  A    between atoms: N_15  and  C_16
REMARK                            x       y       z     vdW  Elec       q    Type
REMARK                         _______ _______ _______ _____ _____    ______ ____
ROOT
ATOM      1  C   UNL     1       1.129   2.743  21.580  0.00  0.00    +0.000 C 
ATOM      2  C   UNL     1       1.823   2.874  20.252  0.00  0.00    +0.000 A 
ATOM      3  C   UNL     1       1.901   1.788  19.390  0.00  0.00    +0.000 A 
ATOM      4  C   UNL     1       2.662   1.873  18.207  0.00  0.00    +0.000 A 
ATOM      5  C   UNL     1       3.467   2.975  17.900  0.00  0.00    +0.000 A 
ATOM      6  N   UNL     1       4.214   3.018  16.766  0.00  0.00    +0.000 NA
ATOM      7  C   UNL     1       4.983   4.106  16.577  0.00  0.00    +0.000 A 
ATOM      8  C   UNL     1       5.118   5.100  17.545  0.00  0.00    +0.000 A 
ATOM      9  C   UNL     1       4.370   5.097  18.692  0.00  0.00    +0.000 A 
ATOM     10  C   UNL     1       3.444   4.046  18.825  0.00  0.00    +0.000 A 
ATOM     11  C   UNL     1       2.516   4.029  19.879  0.00  0.00    +0.000 A 
ATOM     12  C   UNL     1       6.036   6.155  17.059  0.00  0.00    +0.000 C 
ATOM     13  C   UNL     1       5.640   6.065  15.601  0.00  0.00    +0.000 C 
ATOM     14  N   UNL     1       5.428   4.615  15.297  0.00  0.00    +0.000 N 
ENDROOT
BRANCH  14  15
ATOM     15  C   UNL     1       6.486   4.185  14.422  0.00  0.00    +0.000 A 
ATOM     16  C   UNL     1       7.496   5.089  14.045  0.00  0.00    +0.000 A 
ATOM     17  C   UNL     1       7.730   5.305  12.684  0.00  0.00    +0.000 A 
ATOM     18  C   UNL     1       7.086   4.514  11.732  0.00  0.00    +0.000 A 
ATOM     19  C   UNL     1       6.316   3.426  12.136  0.00  0.00    +0.000 A 
ATOM     20  C   UNL     1       6.056   3.229  13.489  0.00  0.00    +0.000 A 
ENDBRANCH  14  15
BRANCH   9  21
ATOM     21  N   UNL     1       4.405   6.236  19.517  0.00  0.00    +0.000 N 
ATOM     22  H   UNL     1       3.729   6.208  20.277  0.00  0.00    +0.000 HD
ATOM     23  H   UNL     1       4.282   7.116  19.030  0.00  0.00    +0.000 HD
ENDBRANCH   9  21
TORSDOF 2
ENDMDL
MODEL 4
REMARK VINA RESULT:      -7.4      2.466      4.324
REMARK  Name = 
REMARK  3 active torsions:
REMARK  status: ('A' for Active; 'I' for Inactive)
REMARK    1  A    between atoms: C_1  and  C_2
REMARK    2  A    between atoms: C_9  and  N_10
REMARK    3  A    between atoms: N_15  and  C_16
REMARK                            x       y       z     vdW  Elec       q    Type
REMARK                         _______ _______ _______ _____ _____    ______ ____
ROOT
ATOM      1  C   UNL     1      -1.388  12.759  21.380  0.00  0.00    +0.000 C 
ATOM      2  C   UNL     1      -0.816  11.372  21.285  0.00  0.00    +0.000 A 
ATOM      3  C   UNL     1      -0.724  10.571  22.415  0.00  0.00    +0.000 A 
ATOM      4  C   UNL     1      -0.070   9.325  22.352  0.00  0.00    +0.000 A 
ATOM      5  C   UNL     1       0.619   8.887  21.216  0.00  0.00    +0.000 A 
ATOM      6  N   UNL     1       1.267   7.693  21.192  0.00  0.00    +0.000 NA
ATOM      7  C   UNL     1       1.932   7.375  20.066  0.00  0.00    +0.000 A 
ATOM      8  C   UNL     1       2.067   8.269  19.004  0.00  0.00    +0.000 A 
ATOM      9  C   UNL     1       1.417   9.474  18.988  0.00  0.00    +0.000 A 
ATOM     10  C   UNL     1       0.589   9.746  20.092  0.00  0.00    +0.000 A 
ATOM     11  C   UNL     1      -0.247  10.875  20.109  0.00  0.00    +0.000 A 
ATOM     12  C   UNL     1       2.858   7.647  17.919  0.00  0.00    +0.000 C 
ATOM     13  C   UNL     1       2.354   6.235  18.131  0.00  0.00    +0.000 C 
ATOM     14  N   UNL     1       2.231   6.035  19.609  0.00  0.00    +0.000 N 
ENDROOT
BRANCH  14  15
ATOM     15  C   UNL     1       3.245   5.099  20.017  0.00  0.00    +0.000 A 
ATOM     16  C   UNL     1       4.428   4.976  19.266  0.00  0.00    +0.000 A 
ATOM     17  C   UNL     1       4.788   3.715  18.780  0.00  0.00    +0.000 A 
ATOM     18  C   UNL     1       4.071   2.585  19.177  0.00  0.00    +0.000 A 
ATOM     19  C   UNL     1       3.086   2.694  20.156  0.00  0.00    +0.000 A 
ATOM     20  C   UNL     1       2.706   3.951  20.617  0.00  0.00    +0.000 A 
ENDBRANCH  14  15
BRANCH   9  21
ATOM     21  N   UNL     1       1.430  10.226  17.799  0.00  0.00    +0.000 N 
ATOM     22  H   UNL     1       0.557  10.716  17.619  0.00  0.00    +0.000 HD
ATOM     23  H   UNL     1       1.661   9.698  16.966  0.00  0.00    +0.000 HD
ENDBRANCH   9  21
TORSDOF 2
ENDMDL
MODEL 5
REMARK VINA RESULT:      -7.2      3.120      6.512
REMARK  Name = 
REMARK  3 active torsions:
REMARK  status: ('A' for Active; 'I' for Inactive)
REMARK    1  A    between atoms: C_1  and  C_2
REMARK    2  A    between atoms: C_9  and  N_10
REMARK    3  A    between atoms: N_15  and  C_16
REMARK                            x       y       z     vdW  Elec       q    Type
REMARK                         _______ _______ _______ _____ _____    ______ ____
ROOT
ATOM      1  C   UNL     1       8.025   5.473  11.689  0.00  0.00    +0.000 C 
ATOM      2  C   UNL     1       7.286   4.924  12.878  0.00  0.00    +0.000 A 
ATOM      3  C   UNL     1       6.270   3.993  12.705  0.00  0.00    +0.000 A 
ATOM      4  C   UNL     1       5.491   3.578  13.804  0.00  0.00    +0.000 A 
ATOM      5  C   UNL     1       5.603   4.155  15.074  0.00  0.00    +0.000 A 
ATOM      6  N   UNL     1       4.819   3.756  16.109  0.00  0.00    +0.000 NA
ATOM      7  C   UNL     1       4.976   4.395  17.282  0.00  0.00    +0.000 A 
ATOM      8  C   UNL     1       5.811   5.503  17.420  0.00  0.00    +0.000 A 
ATOM      9  C   UNL     1       6.626   5.924  16.403  0.00  0.00    +0.000 A 
ATOM     10  C   UNL     1       6.588   5.160  15.222  0.00  0.00    +0.000 A 
ATOM     11  C   UNL     1       7.492   5.401  14.175  0.00  0.00    +0.000 A 
ATOM     12  C   UNL     1       5.766   5.997  18.815  0.00  0.00    +0.000 C 
ATOM     13  C   UNL     1       5.592   4.643  19.469  0.00  0.00    +0.000 C 
ATOM     14  N   UNL     1       4.676   3.851  18.589  0.00  0.00    +0.000 N 
ENDROOT
BRANCH  14  15
ATOM     15  C   UNL     1       3.426   3.685  19.283  0.00  0.00    +0.000 A 
ATOM     16  C   UNL     1       3.093   2.437  19.838  0.00  0.00    +0.000 A 
ATOM     17  C   UNL     1       1.887   1.835  19.463  0.00  0.00    +0.000 A 
ATOM     18  C   UNL     1       0.969   2.541  18.684  0.00  0.00    +0.000 A 
ATOM     19  C   UNL     1       1.190   3.885  18.394  0.00  0.00    +0.000 A 
ATOM     20  C   UNL     1       2.402   4.476  18.739  0.00  0.00    +0.000 A 
ENDBRANCH  14  15
BRANCH   9  21
ATOM     21  N   UNL     1       7.591   6.909  16.683  0.00  0.00    +0.000 N 
ATOM     22  H   UNL     1       7.953   6.865  17.633  0.00  0.00    +0.000 HD
ATOM     23  H   UNL     1       7.287   7.860  16.515  0.00  0.00    +0.000 HD
ENDBRANCH   9  21
TORSDOF 2
ENDMDL
MODEL 6
REMARK VINA RESULT:      -7.1      1.948      4.004
REMARK  Name = 
REMARK  3 active torsions:
REMARK  status: ('A' for Active; 'I' for Inactive)
REMARK    1  A    between atoms: C_1  and  C_2
REMARK    2  A    between atoms: C_9  and  N_10
REMARK    3  A    between atoms: N_15  and  C_16
REMARK                            x       y       z     vdW  Elec       q    Type
REMARK                         _______ _______ _______ _____ _____    ______ ____
ROOT
ATOM      1  C   UNL     1      -1.281  12.379  22.495  0.00  0.00    +0.000 C 
ATOM      2  C   UNL     1      -0.692  11.056  22.092  0.00  0.00    +0.000 A 
ATOM      3  C   UNL     1      -0.453  10.073  23.044  0.00  0.00    +0.000 A 
ATOM      4  C   UNL     1       0.217   8.887  22.687  0.00  0.00    +0.000 A 
ATOM      5  C   UNL     1       0.782   8.684  21.423  0.00  0.00    +0.000 A 
ATOM      6  N   UNL     1       1.450   7.542  21.116  0.00  0.00    +0.000 NA
ATOM      7  C   UNL     1       1.987   7.455  19.885  0.00  0.00    +0.000 A 
ATOM      8  C   UNL     1       1.981   8.527  18.993  0.00  0.00    +0.000 A 
ATOM      9  C   UNL     1       1.305   9.687  19.264  0.00  0.00    +0.000 A 
ATOM     10  C   UNL     1       0.603   9.726  20.482  0.00  0.00    +0.000 A 
ATOM     11  C   UNL     1      -0.250  10.797  20.791  0.00  0.00    +0.000 A 
ATOM     12  C   UNL     1       2.655   8.138  17.734  0.00  0.00    +0.000 C 
ATOM     13  C   UNL     1       2.211   6.691  17.743  0.00  0.00    +0.000 C 
ATOM     14  N   UNL     1       2.263   6.230  19.166  0.00  0.00    +0.000 N 
ENDROOT
BRANCH  14  15
ATOM     15  C   UNL     1       3.338   5.282  19.288  0.00  0.00    +0.000 A 
ATOM     16  C   UNL     1       4.671   5.730  19.290  0.00  0.00    +0.000 A 
ATOM     17  C   UNL     1       5.561   5.199  18.351  0.00  0.00    +0.000 A 
ATOM     18  C   UNL     1       5.167   4.131  17.544  0.00  0.00    +0.000 A 
ATOM     19  C   UNL     1       3.941   3.507  17.764  0.00  0.00    +0.000 A 
ATOM     20  C   UNL     1       3.042   4.053  18.676  0.00  0.00    +0.000 A 
ENDBRANCH  14  15
BRANCH   9  21
ATOM     21  N   UNL     1       1.165  10.635  18.234  0.00  0.00    +0.000 N 
ATOM     22  H   UNL     1       0.228  11.028  18.168  0.00  0.00    +0.000 HD
ATOM     23  H   UNL     1       1.422  10.302  17.312  0.00  0.00    +0.000 HD
ENDBRANCH   9  21
TORSDOF 2
ENDMDL
MODEL 7
REMARK VINA RESULT:      -7.1      2.995      6.610
REMARK  Name = 
REMARK  3 active torsions:
REMARK  status: ('A' for Active; 'I' for Inactive)
REMARK    1  A    between atoms: C_1  and  C_2
REMARK    2  A    between atoms: C_9  and  N_10
REMARK    3  A    between atoms: N_15  and  C_16
REMARK                            x       y       z     vdW  Elec       q    Type
REMARK                         _______ _______ _______ _____ _____    ______ ____
ROOT
ATOM      1  C   UNL     1       8.129   5.128  11.958  0.00  0.00    +0.000 C 
ATOM      2  C   UNL     1       7.213   4.741  13.086  0.00  0.00    +0.000 A 
ATOM      3  C   UNL     1       6.068   3.996  12.837  0.00  0.00    +0.000 A 
ATOM      4  C   UNL     1       5.144   3.747  13.871  0.00  0.00    +0.000 A 
ATOM      5  C   UNL     1       5.252   4.324  15.141  0.00  0.00    +0.000 A 
ATOM      6  N   UNL     1       4.330   4.089  16.111  0.00  0.00    +0.000 NA
ATOM      7  C   UNL     1       4.502   4.718  17.289  0.00  0.00    +0.000 A 
ATOM      8  C   UNL     1       5.504   5.667  17.486  0.00  0.00    +0.000 A 
ATOM      9  C   UNL     1       6.458   5.918  16.537  0.00  0.00    +0.000 A 
ATOM     10  C   UNL     1       6.382   5.147  15.363  0.00  0.00    +0.000 A 
ATOM     11  C   UNL     1       7.395   5.205  14.392  0.00  0.00    +0.000 A 
ATOM     12  C   UNL     1       5.434   6.193  18.868  0.00  0.00    +0.000 C 
ATOM     13  C   UNL     1       4.975   4.904  19.517  0.00  0.00    +0.000 C 
ATOM     14  N   UNL     1       4.009   4.262  18.571  0.00  0.00    +0.000 N 
ENDROOT
BRANCH  14  15
ATOM     15  C   UNL     1       2.698   4.330  19.160  0.00  0.00    +0.000 A 
ATOM     16  C   UNL     1       2.561   4.571  20.539  0.00  0.00    +0.000 A 
ATOM     17  C   UNL     1       1.834   3.660  21.311  0.00  0.00    +0.000 A 
ATOM     18  C   UNL     1       1.127   2.629  20.691  0.00  0.00    +0.000 A 
ATOM     19  C   UNL     1       1.034   2.586  19.302  0.00  0.00    +0.000 A 
ATOM     20  C   UNL     1       1.782   3.472  18.532  0.00  0.00    +0.000 A 
ENDBRANCH  14  15
BRANCH   9  21
ATOM     21  N   UNL     1       7.554   6.728  16.887  0.00  0.00    +0.000 N 
ATOM     22  H   UNL     1       7.585   6.964  17.876  0.00  0.00    +0.000 HD
ATOM     23  H   UNL     1       7.627   7.593  16.364  0.00  0.00    +0.000 HD
ENDBRANCH   9  21
TORSDOF 2
ENDMDL
MODEL 8
REMARK VINA RESULT:      -7.0      1.029      1.505
REMARK  Name = 
REMARK  3 active torsions:
REMARK  status: ('A' for Active; 'I' for Inactive)
REMARK    1  A    between atoms: C_1  and  C_2
REMARK    2  A    between atoms: C_9  and  N_10
REMARK    3  A    between atoms: N_15  and  C_16
REMARK                            x       y       z     vdW  Elec       q    Type
REMARK                         _______ _______ _______ _____ _____    ______ ____
ROOT
ATOM      1  C   UNL     1      -0.812   9.209  21.501  0.00  0.00    +0.000 C 
ATOM      2  C   UNL     1       0.380   8.952  20.621  0.00  0.00    +0.000 A 
ATOM      3  C   UNL     1       0.596   9.724  19.487  0.00  0.00    +0.000 A 
ATOM      4  C   UNL     1       1.635   9.400  18.594  0.00  0.00    +0.000 A 
ATOM      5  C   UNL     1       2.409   8.241  18.718  0.00  0.00    +0.000 A 
ATOM      6  N   UNL     1       3.387   7.937  17.825  0.00  0.00    +0.000 NA
ATOM      7  C   UNL     1       4.053   6.783  18.010  0.00  0.00    +0.000 A 
ATOM      8  C   UNL     1       3.690   5.864  18.994  0.00  0.00    +0.000 A 
ATOM      9  C   UNL     1       2.721   6.143  19.920  0.00  0.00    +0.000 A 
ATOM     10  C   UNL     1       2.129   7.416  19.834  0.00  0.00    +0.000 A 
ATOM     11  C   UNL     1       1.241   7.870  20.822  0.00  0.00    +0.000 A 
ATOM     12  C   UNL     1       4.592   4.691  18.944  0.00  0.00    +0.000 C 
ATOM     13  C   UNL     1       5.835   5.450  18.530  0.00  0.00    +0.000 C 
ATOM     14  N   UNL     1       5.398   6.500  17.557  0.00  0.00    +0.000 N 
ENDROOT
BRANCH  14  15
ATOM     15  C   UNL     1       5.905   6.142  16.259  0.00  0.00    +0.000 A 
ATOM     16  C   UNL     1       5.011   5.827  15.220  0.00  0.00    +0.000 A 
ATOM     17  C   UNL     1       5.139   4.594  14.573  0.00  0.00    +0.000 A 
ATOM     18  C   UNL     1       6.232   3.773  14.848  0.00  0.00    +0.000 A 
ATOM     19  C   UNL     1       7.264   4.236  15.663  0.00  0.00    +0.000 A 
ATOM     20  C   UNL     1       7.123   5.449  16.332  0.00  0.00    +0.000 A 
ENDBRANCH  14  15
BRANCH   9  21
ATOM     21  N   UNL     1       2.558   5.262  21.005  0.00  0.00    +0.000 N 
ATOM     22  H   UNL     1       1.833   5.551  21.658  0.00  0.00    +0.000 HD
ATOM     23  H   UNL     1       3.401   5.090  21.541  0.00  0.00    +0.000 HD
ENDBRANCH   9  21
TORSDOF 2
ENDMDL
MODEL 9
REMARK VINA RESULT:      -6.9      0.861      1.012
REMARK  Name = 
REMARK  3 active torsions:
REMARK  status: ('A' for Active; 'I' for Inactive)
REMARK    1  A    between atoms: C_1  and  C_2
REMARK    2  A    between atoms: C_9  and  N_10
REMARK    3  A    between atoms: N_15  and  C_16
REMARK                            x       y       z     vdW  Elec       q    Type
REMARK                         _______ _______ _______ _____ _____    ______ ____
ROOT
ATOM      1  C   UNL     1      -0.368   8.861  21.498  0.00  0.00    +0.000 C 
ATOM      2  C   UNL     1       0.791   8.305  20.718  0.00  0.00    +0.000 A 
ATOM      3  C   UNL     1       1.227   8.936  19.560  0.00  0.00    +0.000 A 
ATOM      4  C   UNL     1       2.224   8.345  18.761  0.00  0.00    +0.000 A 
ATOM      5  C   UNL     1       2.731   7.063  19.003  0.00  0.00    +0.000 A 
ATOM      6  N   UNL     1       3.672   6.504  18.198  0.00  0.00    +0.000 NA
ATOM      7  C   UNL     1       4.070   5.253  18.493  0.00  0.00    +0.000 A 
ATOM      8  C   UNL     1       3.469   4.498  19.500  0.00  0.00    +0.000 A 
ATOM      9  C   UNL     1       2.529   5.034  20.339  0.00  0.00    +0.000 A 
ATOM     10  C   UNL     1       2.222   6.392  20.141  0.00  0.00    +0.000 A 
ATOM     11  C   UNL     1       1.395   7.086  21.039  0.00  0.00    +0.000 A 
ATOM     12  C   UNL     1       4.107   3.165  19.579  0.00  0.00    +0.000 C 
ATOM     13  C   UNL     1       5.502   3.623  19.210  0.00  0.00    +0.000 C 
ATOM     14  N   UNL     1       5.350   4.670  18.151  0.00  0.00    +0.000 N 
ENDROOT
BRANCH  14  15
ATOM     15  C   UNL     1       5.842   4.126  16.914  0.00  0.00    +0.000 A 
ATOM     16  C   UNL     1       7.157   4.407  16.499  0.00  0.00    +0.000 A 
ATOM     17  C   UNL     1       7.355   4.980  15.239  0.00  0.00    +0.000 A 
ATOM     18  C   UNL     1       6.283   5.113  14.356  0.00  0.00    +0.000 A 
ATOM     19  C   UNL     1       5.046   4.555  14.675  0.00  0.00    +0.000 A 
ATOM     20  C   UNL     1       4.838   4.013  15.940  0.00  0.00    +0.000 A 
ENDBRANCH  14  15
BRANCH   9  21
ATOM     21  N   UNL     1       2.125   4.282  21.459  0.00  0.00    +0.000 N 
ATOM     22  H   UNL     1       1.598   4.822  22.141  0.00  0.00    +0.000 HD
ATOM     23  H   UNL     1       2.879   3.819  21.952  0.00  0.00    +0.000 HD
ENDBRANCH   9  21
TORSDOF 2
ENDMDL
