MODEL 1
REMARK VINA RESULT:      -7.9      0.000      0.000
REMARK  Name = 
REMARK  5 active torsions:
REMARK  status: ('A' for Active; 'I' for Inactive)
REMARK    1  A    between atoms: C_2  and  C_3
REMARK    2  A    between atoms: C_6  and  C_7
REMARK    3  A    between atoms: C_10  and  S_11
REMARK    4  A    between atoms: S_11  and  N_14
REMARK    5  A    between atoms: N_14  and  C_15
REMARK                            x       y       z     vdW  Elec       q    Type
REMARK                         _______ _______ _______ _____ _____    ______ ____
ROOT
ATOM      1  C   UNL     1       1.158   9.114  19.754  0.00  0.00    +0.000 A 
ATOM      2  C   UNL     1       0.834   8.996  21.088  0.00  0.00    +0.000 A 
ATOM      3  S   UNL     1      -0.359  10.129  21.551  0.00  0.00    +0.000 S 
ATOM      4  C   UNL     1      -0.443  10.781  19.969  0.00  0.00    +0.000 A 
ATOM      5  C   UNL     1       0.448  10.162  19.112  0.00  0.00    +0.000 A 
ENDROOT
BRANCH   1   9
ATOM      6  C   UNL     1       3.457   6.602  18.656  0.00  0.00    +0.000 A 
ATOM      7  N   UNL     1       3.501   7.422  17.624  0.00  0.00    +0.000 NA
ATOM      8  N   UNL     1       2.599   8.420  17.878  0.00  0.00    +0.000 NA
ATOM      9  C   UNL     1       2.136   8.212  19.096  0.00  0.00    +0.000 A 
ATOM     10  O   UNL     1       2.667   7.082  19.671  0.00  0.00    +0.000 OA
BRANCH   6  12
ATOM     11  O   UNL     1       5.152   5.086  19.243  0.00  0.00    +0.000 OA
ATOM     12  C   UNL     1       4.040   5.273  18.746  0.00  0.00    +0.000 C 
ATOM     13  N   UNL     1       3.261   4.190  18.284  0.00  0.00    +0.000 N 
ATOM     14  C   UNL     1       1.891   4.287  17.774  0.00  0.00    +0.000 C 
ATOM     15  C   UNL     1       0.945   3.438  18.607  0.00  0.00    +0.000 C 
ATOM     16  C   UNL     1       1.416   1.993  18.643  0.00  0.00    +0.000 C 
ATOM     17  C   UNL     1       2.866   1.900  19.120  0.00  0.00    +0.000 C 
ATOM     18  C   UNL     1       3.797   2.831  18.339  0.00  0.00    +0.000 C 
ENDBRANCH   6  12
ENDBRANCH   1   9
BRANCH   4  19
ATOM     19  S   UNL     1      -1.635  12.067  19.722  0.00  0.00    +0.000 S 
ATOM     20  O   UNL     1      -2.161  12.364  21.034  0.00  0.00    +0.000 OA
ATOM     21  O   UNL     1      -0.957  13.074  18.927  0.00  0.00    +0.000 OA
BRANCH  19  22
ATOM     22  N   UNL     1      -2.916  11.437  18.816  0.00  0.00    +0.000 NA
ATOM     23  H   UNL     1      -3.772  11.918  19.096  0.00  0.00    +0.000 HD
BRANCH  22  24
ATOM     24  C   UNL     1      -2.734  11.305  17.362  0.00  0.00    +0.000 C 
ATOM     25  C   UNL     1      -2.273   9.918  16.936  0.00  0.00    +0.000 C 
ATOM     26  C   UNL     1      -2.691   9.819  15.476  0.00  0.00    +0.000 C 
ATOM     27  C   UNL     1      -3.930  10.697  15.334  0.00  0.00    +0.000 C 
ATOM     28  C   UNL     1      -4.075  11.462  16.648  0.00  0.00    +0.000 C 
ENDBRANCH  22  24
ENDBRANCH  19  22
ENDBRANCH   4  19
TORSDOF 5
ENDMDL
MODEL 2
REMARK VINA RESULT:      -7.8      3.942      8.947
REMARK  Name = 
REMARK  5 active torsions:
REMARK  status: ('A' for Active; 'I' for Inactive)
REMARK    1  A    between atoms: C_2  and  C_3
REMARK    2  A    between atoms: C_6  and  C_7
REMARK    3  A    between atoms: C_10  and  S_11
REMARK    4  A    between atoms: S_11  and  N_14
REMARK    5  A    between atoms: N_14  and  C_15
REMARK                            x       y       z     vdW  Elec       q    Type
REMARK                         _______ _______ _______ _____ _____    ______ ____
ROOT
ATOM      1  C   UNL     1       1.856   5.773  20.285  0.00  0.00    +0.000 A 
ATOM      2  C   UNL     1       1.016   4.722  20.584  0.00  0.00    +0.000 A 
ATOM      3  S   UNL     1       1.732   3.216  20.213  0.00  0.00    +0.000 S 
ATOM      4  C   UNL     1       3.166   3.965  19.650  0.00  0.00    +0.000 A 
ATOM      5  C   UNL     1       3.085   5.343  19.717  0.00  0.00    +0.000 A 
ENDROOT
BRANCH   1   9
ATOM      6  C   UNL     1       0.690   8.956  21.430  0.00  0.00    +0.000 A 
ATOM      7  N   UNL     1       1.330   9.324  20.338  0.00  0.00    +0.000 NA
ATOM      8  N   UNL     1       1.901   8.193  19.818  0.00  0.00    +0.000 NA
ATOM      9  C   UNL     1       1.485   7.184  20.559  0.00  0.00    +0.000 A 
ATOM     10  O   UNL     1       0.677   7.593  21.593  0.00  0.00    +0.000 OA
BRANCH   6  12
ATOM     11  O   UNL     1       0.449   9.696  23.645  0.00  0.00    +0.000 OA
ATOM     12  C   UNL     1       0.140   9.823  22.459  0.00  0.00    +0.000 C 
ATOM     13  N   UNL     1      -0.730  10.854  22.042  0.00  0.00    +0.000 N 
ATOM     14  C   UNL     1      -1.080  11.159  20.653  0.00  0.00    +0.000 C 
ATOM     15  C   UNL     1      -0.683  12.582  20.297  0.00  0.00    +0.000 C 
ATOM     16  C   UNL     1      -1.329  13.571  21.255  0.00  0.00    +0.000 C 
ATOM     17  C   UNL     1      -1.011  13.216  22.708  0.00  0.00    +0.000 C 
ATOM     18  C   UNL     1      -1.322  11.752  23.031  0.00  0.00    +0.000 C 
ENDBRANCH   6  12
ENDBRANCH   1   9
BRANCH   4  19
ATOM     19  S   UNL     1       4.459   2.873  19.127  0.00  0.00    +0.000 S 
ATOM     20  O   UNL     1       4.972   2.274  20.338  0.00  0.00    +0.000 OA
ATOM     21  O   UNL     1       3.879   2.070  18.066  0.00  0.00    +0.000 OA
BRANCH  19  22
ATOM     22  N   UNL     1       5.710   3.804  18.478  0.00  0.00    +0.000 NA
ATOM     23  H   UNL     1       6.592   3.475  18.874  0.00  0.00    +0.000 HD
BRANCH  22  24
ATOM     24  C   UNL     1       5.732   4.012  17.021  0.00  0.00    +0.000 C 
ATOM     25  C   UNL     1       4.896   5.200  16.569  0.00  0.00    +0.000 C 
ATOM     26  C   UNL     1       5.484   5.577  15.217  0.00  0.00    +0.000 C 
ATOM     27  C   UNL     1       6.955   5.181  15.275  0.00  0.00    +0.000 C 
ATOM     28  C   UNL     1       7.141   4.383  16.564  0.00  0.00    +0.000 C 
ENDBRANCH  22  24
ENDBRANCH  19  22
ENDBRANCH   4  19
TORSDOF 5
ENDMDL
MODEL 3
REMARK VINA RESULT:      -7.8      3.488      8.689
REMARK  Name = 
REMARK  5 active torsions:
REMARK  status: ('A' for Active; 'I' for Inactive)
REMARK    1  A    between atoms: C_2  and  C_3
REMARK    2  A    between atoms: C_6  and  C_7
REMARK    3  A    between atoms: C_10  and  S_11
REMARK    4  A    between atoms: S_11  and  N_14
REMARK    5  A    between atoms: N_14  and  C_15
REMARK                            x       y       z     vdW  Elec       q    Type
REMARK                         _______ _______ _______ _____ _____    ______ ____
ROOT
ATOM      1  C   UNL     1       2.450   6.993  18.946  0.00  0.00    +0.000 A 
ATOM      2  C   UNL     1       2.084   6.354  20.110  0.00  0.00    +0.000 A 
ATOM      3  S   UNL     1       2.791   4.803  20.228  0.00  0.00    +0.000 S 
ATOM      4  C   UNL     1       3.589   4.983  18.722  0.00  0.00    +0.000 A 
ATOM      5  C   UNL     1       3.293   6.195  18.127  0.00  0.00    +0.000 A 
ENDROOT
BRANCH   1   9
ATOM      6  C   UNL     1       1.063  10.282  18.688  0.00  0.00    +0.000 A 
ATOM      7  N   UNL     1       1.799  10.256  17.595  0.00  0.00    +0.000 NA
ATOM      8  N   UNL     1       2.459   9.055  17.595  0.00  0.00    +0.000 NA
ATOM      9  C   UNL     1       2.005   8.374  18.629  0.00  0.00    +0.000 A 
ATOM     10  O   UNL     1       1.081   9.084  19.358  0.00  0.00    +0.000 OA
BRANCH   6  12
ATOM     11  O   UNL     1      -0.103  12.315  18.550  0.00  0.00    +0.000 OA
ATOM     12  C   UNL     1       0.382  11.431  19.259  0.00  0.00    +0.000 C 
ATOM     13  N   UNL     1       0.252  11.477  20.664  0.00  0.00    +0.000 N 
ATOM     14  C   UNL     1       0.696  10.433  21.591  0.00  0.00    +0.000 C 
ATOM     15  C   UNL     1      -0.473   9.901  22.405  0.00  0.00    +0.000 C 
ATOM     16  C   UNL     1      -1.165  11.034  23.146  0.00  0.00    +0.000 C 
ATOM     17  C   UNL     1      -1.576  12.149  22.183  0.00  0.00    +0.000 C 
ATOM     18  C   UNL     1      -0.415  12.612  21.299  0.00  0.00    +0.000 C 
ENDBRANCH   6  12
ENDBRANCH   1   9
BRANCH   4  19
ATOM     19  S   UNL     1       4.633   3.639  18.231  0.00  0.00    +0.000 S 
ATOM     20  O   UNL     1       4.370   2.580  19.177  0.00  0.00    +0.000 OA
ATOM     21  O   UNL     1       4.399   3.469  16.810  0.00  0.00    +0.000 OA
BRANCH  19  22
ATOM     22  N   UNL     1       6.241   4.107  18.460  0.00  0.00    +0.000 NA
ATOM     23  H   UNL     1       6.820   3.596  17.792  0.00  0.00    +0.000 HD
BRANCH  22  24
ATOM     24  C   UNL     1       6.536   5.545  18.555  0.00  0.00    +0.000 C 
ATOM     25  C   UNL     1       7.877   5.845  19.208  0.00  0.00    +0.000 C 
ATOM     26  C   UNL     1       8.233   7.236  18.706  0.00  0.00    +0.000 C 
ATOM     27  C   UNL     1       7.587   7.364  17.331  0.00  0.00    +0.000 C 
ATOM     28  C   UNL     1       6.687   6.143  17.157  0.00  0.00    +0.000 C 
ENDBRANCH  22  24
ENDBRANCH  19  22
ENDBRANCH   4  19
TORSDOF 5
ENDMDL
MODEL 4
REMARK VINA RESULT:      -7.8      1.332      1.535
REMARK  Name = 
REMARK  5 active torsions:
REMARK  status: ('A' for Active; 'I' for Inactive)
REMARK    1  A    between atoms: C_2  and  C_3
REMARK    2  A    between atoms: C_6  and  C_7
REMARK    3  A    between atoms: C_10  and  S_11
REMARK    4  A    between atoms: S_11  and  N_14
REMARK    5  A    between atoms: N_14  and  C_15
REMARK                            x       y       z     vdW  Elec       q    Type
REMARK                         _______ _______ _______ _____ _____    ______ ____
ROOT
ATOM      1  C   UNL     1       1.475   9.213  19.219  0.00  0.00    +0.000 A 
ATOM      2  C   UNL     1       0.686   9.135  20.346  0.00  0.00    +0.000 A 
ATOM      3  S   UNL     1      -0.257  10.545  20.555  0.00  0.00    +0.000 S 
ATOM      4  C   UNL     1       0.389  11.263  19.139  0.00  0.00    +0.000 A 
ATOM      5  C   UNL     1       1.331  10.450  18.537  0.00  0.00    +0.000 A 
ENDROOT
BRANCH   1   9
ATOM      6  C   UNL     1       3.557   6.340  18.754  0.00  0.00    +0.000 A 
ATOM      7  N   UNL     1       3.553   6.822  17.528  0.00  0.00    +0.000 NA
ATOM      8  N   UNL     1       2.721   7.910  17.537  0.00  0.00    +0.000 NA
ATOM      9  C   UNL     1       2.352   8.095  18.790  0.00  0.00    +0.000 A 
ATOM     10  O   UNL     1       2.877   7.145  19.635  0.00  0.00    +0.000 OA
BRANCH   6  12
ATOM     11  O   UNL     1       5.292   4.875  19.350  0.00  0.00    +0.000 OA
ATOM     12  C   UNL     1       4.084   5.058  19.191  0.00  0.00    +0.000 C 
ATOM     13  N   UNL     1       3.153   4.035  19.474  0.00  0.00    +0.000 N 
ATOM     14  C   UNL     1       1.696   4.176  19.419  0.00  0.00    +0.000 C 
ATOM     15  C   UNL     1       1.074   3.874  20.773  0.00  0.00    +0.000 C 
ATOM     16  C   UNL     1       1.473   2.485  21.244  0.00  0.00    +0.000 C 
ATOM     17  C   UNL     1       2.993   2.321  21.244  0.00  0.00    +0.000 C 
ATOM     18  C   UNL     1       3.622   2.721  19.907  0.00  0.00    +0.000 C 
ENDBRANCH   6  12
ENDBRANCH   1   9
BRANCH   4  19
ATOM     19  S   UNL     1      -0.266  12.850  18.706  0.00  0.00    +0.000 S 
ATOM     20  O   UNL     1      -1.046  13.272  19.847  0.00  0.00    +0.000 OA
ATOM     21  O   UNL     1       0.870  13.619  18.233  0.00  0.00    +0.000 OA
BRANCH  19  22
ATOM     22  N   UNL     1      -1.349  12.646  17.425  0.00  0.00    +0.000 NA
ATOM     23  H   UNL     1      -0.855  12.845  16.554  0.00  0.00    +0.000 HD
BRANCH  22  24
ATOM     24  C   UNL     1      -2.167  11.422  17.401  0.00  0.00    +0.000 C 
ATOM     25  C   UNL     1      -3.487  11.564  18.144  0.00  0.00    +0.000 C 
ATOM     26  C   UNL     1      -4.372  10.484  17.541  0.00  0.00    +0.000 C 
ATOM     27  C   UNL     1      -3.892  10.302  16.105  0.00  0.00    +0.000 C 
ATOM     28  C   UNL     1      -2.603  11.110  15.971  0.00  0.00    +0.000 C 
ENDBRANCH  22  24
ENDBRANCH  19  22
ENDBRANCH   4  19
TORSDOF 5
ENDMDL
MODEL 5
REMARK VINA RESULT:      -7.7      4.410      8.880
REMARK  Name = 
REMARK  5 active torsions:
REMARK  status: ('A' for Active; 'I' for Inactive)
REMARK    1  A    between atoms: C_2  and  C_3
REMARK    2  A    between atoms: C_6  and  C_7
REMARK    3  A    between atoms: C_10  and  S_11
REMARK    4  A    between atoms: S_11  and  N_14
REMARK    5  A    between atoms: N_14  and  C_15
REMARK                            x       y       z     vdW  Elec       q    Type
REMARK                         _______ _______ _______ _____ _____    ______ ____
ROOT
ATOM      1  C   UNL     1       3.625   5.500  18.567  0.00  0.00    +0.000 A 
ATOM      2  C   UNL     1       3.473   4.217  18.089  0.00  0.00    +0.000 A 
ATOM      3  S   UNL     1       4.742   3.782  17.031  0.00  0.00    +0.000 S 
ATOM      4  C   UNL     1       5.497   5.310  17.208  0.00  0.00    +0.000 A 
ATOM      5  C   UNL     1       4.774   6.146  18.037  0.00  0.00    +0.000 A 
ENDROOT
BRANCH   1   9
ATOM      6  C   UNL     1       1.607   7.460  20.778  0.00  0.00    +0.000 A 
ATOM      7  N   UNL     1       1.097   6.265  20.999  0.00  0.00    +0.000 NA
ATOM      8  N   UNL     1       1.739   5.402  20.151  0.00  0.00    +0.000 NA
ATOM      9  C   UNL     1       2.678   6.099  19.541  0.00  0.00    +0.000 A 
ATOM     10  O   UNL     1       2.677   7.421  19.918  0.00  0.00    +0.000 OA
BRANCH   6  12
ATOM     11  O   UNL     1       0.972   8.985  22.448  0.00  0.00    +0.000 OA
ATOM     12  C   UNL     1       1.090   8.735  21.246  0.00  0.00    +0.000 C 
ATOM     13  N   UNL     1       0.769   9.704  20.270  0.00  0.00    +0.000 N 
ATOM     14  C   UNL     1       0.969   9.551  18.827  0.00  0.00    +0.000 C 
ATOM     15  C   UNL     1       1.895  10.633  18.294  0.00  0.00    +0.000 C 
ATOM     16  C   UNL     1       1.351  12.013  18.629  0.00  0.00    +0.000 C 
ATOM     17  C   UNL     1       1.088  12.149  20.130  0.00  0.00    +0.000 C 
ATOM     18  C   UNL     1       0.235  11.001  20.678  0.00  0.00    +0.000 C 
ENDBRANCH   6  12
ENDBRANCH   1   9
BRANCH   4  19
ATOM     19  S   UNL     1       7.029   5.522  16.345  0.00  0.00    +0.000 S 
ATOM     20  O   UNL     1       7.534   6.809  16.765  0.00  0.00    +0.000 OA
ATOM     21  O   UNL     1       7.774   4.299  16.576  0.00  0.00    +0.000 OA
BRANCH  19  22
ATOM     22  N   UNL     1       6.695   5.647  14.693  0.00  0.00    +0.000 NA
ATOM     23  H   UNL     1       7.210   6.447  14.323  0.00  0.00    +0.000 HD
BRANCH  22  24
ATOM     24  C   UNL     1       6.788   4.427  13.876  0.00  0.00    +0.000 C 
ATOM     25  C   UNL     1       5.435   3.911  13.408  0.00  0.00    +0.000 C 
ATOM     26  C   UNL     1       5.760   3.066  12.185  0.00  0.00    +0.000 C 
ATOM     27  C   UNL     1       7.013   3.683  11.572  0.00  0.00    +0.000 C 
ATOM     28  C   UNL     1       7.518   4.725  12.568  0.00  0.00    +0.000 C 
ENDBRANCH  22  24
ENDBRANCH  19  22
ENDBRANCH   4  19
TORSDOF 5
ENDMDL
MODEL 6
REMARK VINA RESULT:      -7.7      4.300      9.219
REMARK  Name = 
REMARK  5 active torsions:
REMARK  status: ('A' for Active; 'I' for Inactive)
REMARK    1  A    between atoms: C_2  and  C_3
REMARK    2  A    between atoms: C_6  and  C_7
REMARK    3  A    between atoms: C_10  and  S_11
REMARK    4  A    between atoms: S_11  and  N_14
REMARK    5  A    between atoms: N_14  and  C_15
REMARK                            x       y       z     vdW  Elec       q    Type
REMARK                         _______ _______ _______ _____ _____    ______ ____
ROOT
ATOM      1  C   UNL     1       3.172   6.768  18.515  0.00  0.00    +0.000 A 
ATOM      2  C   UNL     1       3.057   5.443  18.878  0.00  0.00    +0.000 A 
ATOM      3  S   UNL     1       4.291   4.488  18.183  0.00  0.00    +0.000 S 
ATOM      4  C   UNL     1       4.982   5.844  17.394  0.00  0.00    +0.000 A 
ATOM      5  C   UNL     1       4.262   6.999  17.634  0.00  0.00    +0.000 A 
ENDROOT
BRANCH   1   9
ATOM      6  C   UNL     1       0.924   9.470  19.181  0.00  0.00    +0.000 A 
ATOM      7  N   UNL     1       1.038   8.962  20.392  0.00  0.00    +0.000 NA
ATOM      8  N   UNL     1       1.833   7.853  20.278  0.00  0.00    +0.000 NA
ATOM      9  C   UNL     1       2.247   7.811  19.026  0.00  0.00    +0.000 A 
ATOM     10  O   UNL     1       1.731   8.836  18.270  0.00  0.00    +0.000 OA
BRANCH   6  12
ATOM     11  O   UNL     1      -1.192  10.237  18.510  0.00  0.00    +0.000 OA
ATOM     12  C   UNL     1      -0.010  10.495  18.744  0.00  0.00    +0.000 C 
ATOM     13  N   UNL     1       0.477  11.816  18.643  0.00  0.00    +0.000 N 
ATOM     14  C   UNL     1       1.831  12.251  18.996  0.00  0.00    +0.000 C 
ATOM     15  C   UNL     1       1.790  13.311  20.084  0.00  0.00    +0.000 C 
ATOM     16  C   UNL     1       0.933  14.489  19.648  0.00  0.00    +0.000 C 
ATOM     17  C   UNL     1      -0.461  14.026  19.224  0.00  0.00    +0.000 C 
ATOM     18  C   UNL     1      -0.411  12.889  18.199  0.00  0.00    +0.000 C 
ENDBRANCH   6  12
ENDBRANCH   1   9
BRANCH   4  19
ATOM     19  S   UNL     1       6.459   5.532  16.466  0.00  0.00    +0.000 S 
ATOM     20  O   UNL     1       7.312   6.674  16.703  0.00  0.00    +0.000 OA
ATOM     21  O   UNL     1       6.866   4.188  16.831  0.00  0.00    +0.000 OA
BRANCH  19  22
ATOM     22  N   UNL     1       6.066   5.551  14.823  0.00  0.00    +0.000 NA
ATOM     23  H   UNL     1       6.384   6.438  14.429  0.00  0.00    +0.000 HD
BRANCH  22  24
ATOM     24  C   UNL     1       6.406   4.366  14.019  0.00  0.00    +0.000 C 
ATOM     25  C   UNL     1       5.208   3.764  13.298  0.00  0.00    +0.000 C 
ATOM     26  C   UNL     1       5.821   2.983  12.145  0.00  0.00    +0.000 C 
ATOM     27  C   UNL     1       7.113   3.710  11.787  0.00  0.00    +0.000 C 
ATOM     28  C   UNL     1       7.340   4.757  12.875  0.00  0.00    +0.000 C 
ENDBRANCH  22  24
ENDBRANCH  19  22
ENDBRANCH   4  19
TORSDOF 5
ENDMDL
MODEL 7
REMARK VINA RESULT:      -7.6      7.325     10.584
REMARK  Name = 
REMARK  5 active torsions:
REMARK  status: ('A' for Active; 'I' for Inactive)
REMARK    1  A    between atoms: C_2  and  C_3
REMARK    2  A    between atoms: C_6  and  C_7
REMARK    3  A    between atoms: C_10  and  S_11
REMARK    4  A    between atoms: S_11  and  N_14
REMARK    5  A    between atoms: N_14  and  C_15
REMARK                            x       y       z     vdW  Elec       q    Type
REMARK                         _______ _______ _______ _____ _____    ______ ____
ROOT
ATOM      1  C   UNL     1       8.166   8.211  18.255  0.00  0.00    +0.000 A 
ATOM      2  C   UNL     1       8.360   7.168  19.134  0.00  0.00    +0.000 A 
ATOM      3  S   UNL     1       7.684   5.712  18.546  0.00  0.00    +0.000 S 
ATOM      4  C   UNL     1       7.130   6.475  17.114  0.00  0.00    +0.000 A 
ATOM      5  C   UNL     1       7.430   7.824  17.104  0.00  0.00    +0.000 A 
ENDROOT
BRANCH   1   9
ATOM      6  C   UNL     1       9.160  11.646  18.381  0.00  0.00    +0.000 A 
ATOM      7  N   UNL     1       9.762  11.192  19.462  0.00  0.00    +0.000 NA
ATOM      8  N   UNL     1       9.408   9.875  19.584  0.00  0.00    +0.000 NA
ATOM      9  C   UNL     1       8.700   9.572  18.513  0.00  0.00    +0.000 A 
ATOM     10  O   UNL     1       8.529  10.650  17.678  0.00  0.00    +0.000 OA
BRANCH   6  12
ATOM     11  O   UNL     1       7.926  13.526  17.705  0.00  0.00    +0.000 OA
ATOM     12  C   UNL     1       9.024  13.033  17.970  0.00  0.00    +0.000 C 
ATOM     13  N   UNL     1      10.198  13.817  17.930  0.00  0.00    +0.000 N 
ATOM     14  C   UNL     1      11.534  13.364  18.324  0.00  0.00    +0.000 C 
ATOM     15  C   UNL     1      12.083  14.220  19.454  0.00  0.00    +0.000 C 
ATOM     16  C   UNL     1      12.098  15.686  19.051  0.00  0.00    +0.000 C 
ATOM     17  C   UNL     1      10.715  16.142  18.584  0.00  0.00    +0.000 C 
ATOM     18  C   UNL     1      10.127  15.216  17.515  0.00  0.00    +0.000 C 
ENDBRANCH   6  12
ENDBRANCH   1   9
BRANCH   4  19
ATOM     19  S   UNL     1       6.323   5.425  15.938  0.00  0.00    +0.000 S 
ATOM     20  O   UNL     1       5.432   6.286  15.198  0.00  0.00    +0.000 OA
ATOM     21  O   UNL     1       7.390   4.689  15.285  0.00  0.00    +0.000 OA
BRANCH  19  22
ATOM     22  N   UNL     1       5.352   4.330  16.783  0.00  0.00    +0.000 NA
ATOM     23  H   UNL     1       5.837   4.069  17.643  0.00  0.00    +0.000 HD
BRANCH  22  24
ATOM     24  C   UNL     1       3.929   4.663  16.959  0.00  0.00    +0.000 C 
ATOM     25  C   UNL     1       3.045   3.442  17.160  0.00  0.00    +0.000 C 
ATOM     26  C   UNL     1       1.811   3.986  17.866  0.00  0.00    +0.000 C 
ATOM     27  C   UNL     1       2.288   5.187  18.675  0.00  0.00    +0.000 C 
ATOM     28  C   UNL     1       3.731   5.453  18.251  0.00  0.00    +0.000 C 
ENDBRANCH  22  24
ENDBRANCH  19  22
ENDBRANCH   4  19
TORSDOF 5
ENDMDL
MODEL 8
REMARK VINA RESULT:      -7.6      2.115      3.079
REMARK  Name = 
REMARK  5 active torsions:
REMARK  status: ('A' for Active; 'I' for Inactive)
REMARK    1  A    between atoms: C_2  and  C_3
REMARK    2  A    between atoms: C_6  and  C_7
REMARK    3  A    between atoms: C_10  and  S_11
REMARK    4  A    between atoms: S_11  and  N_14
REMARK    5  A    between atoms: N_14  and  C_15
REMARK                            x       y       z     vdW  Elec       q    Type
REMARK                         _______ _______ _______ _____ _____    ______ ____
ROOT
ATOM      1  C   UNL     1       1.487   8.151  20.139  0.00  0.00    +0.000 A 
ATOM      2  C   UNL     1       1.053   8.480  21.404  0.00  0.00    +0.000 A 
ATOM      3  S   UNL     1       0.613  10.128  21.513  0.00  0.00    +0.000 S 
ATOM      4  C   UNL     1       1.002  10.405  19.867  0.00  0.00    +0.000 A 
ATOM      5  C   UNL     1       1.489   9.264  19.257  0.00  0.00    +0.000 A 
ENDROOT
BRANCH   1   9
ATOM      6  C   UNL     1       2.513   5.036  18.708  0.00  0.00    +0.000 A 
ATOM      7  N   UNL     1       2.322   4.664  19.958  0.00  0.00    +0.000 NA
ATOM      8  N   UNL     1       1.984   5.792  20.656  0.00  0.00    +0.000 NA
ATOM      9  C   UNL     1       1.882   6.767  19.773  0.00  0.00    +0.000 A 
ATOM     10  O   UNL     1       2.174   6.350  18.496  0.00  0.00    +0.000 OA
BRANCH   6  12
ATOM     11  O   UNL     1       2.459   3.493  16.939  0.00  0.00    +0.000 OA
ATOM     12  C   UNL     1       3.122   4.256  17.643  0.00  0.00    +0.000 C 
ATOM     13  N   UNL     1       4.503   4.439  17.412  0.00  0.00    +0.000 N 
ATOM     14  C   UNL     1       5.361   5.394  18.118  0.00  0.00    +0.000 C 
ATOM     15  C   UNL     1       5.988   6.378  17.144  0.00  0.00    +0.000 C 
ATOM     16  C   UNL     1       6.762   5.640  16.064  0.00  0.00    +0.000 C 
ATOM     17  C   UNL     1       5.879   4.603  15.368  0.00  0.00    +0.000 C 
ATOM     18  C   UNL     1       5.174   3.676  16.363  0.00  0.00    +0.000 C 
ENDBRANCH   6  12
ENDBRANCH   1   9
BRANCH   4  19
ATOM     19  S   UNL     1       0.695  12.041  19.262  0.00  0.00    +0.000 S 
ATOM     20  O   UNL     1       0.125  12.764  20.375  0.00  0.00    +0.000 OA
ATOM     21  O   UNL     1       1.936  12.459  18.637  0.00  0.00    +0.000 OA
BRANCH  19  22
ATOM     22  N   UNL     1      -0.504  11.951  18.075  0.00  0.00    +0.000 NA
ATOM     23  H   UNL     1      -0.048  11.822  17.170  0.00  0.00    +0.000 HD
BRANCH  22  24
ATOM     24  C   UNL     1      -1.650  11.060  18.317  0.00  0.00    +0.000 C 
ATOM     25  C   UNL     1      -2.994  11.767  18.219  0.00  0.00    +0.000 C 
ATOM     26  C   UNL     1      -3.983  10.648  17.928  0.00  0.00    +0.000 C 
ATOM     27  C   UNL     1      -3.201   9.586  17.163  0.00  0.00    +0.000 C 
ATOM     28  C   UNL     1      -1.733  10.000  17.220  0.00  0.00    +0.000 C 
ENDBRANCH  22  24
ENDBRANCH  19  22
ENDBRANCH   4  19
TORSDOF 5
ENDMDL
MODEL 9
REMARK VINA RESULT:      -7.5      2.110      2.902
REMARK  Name = 
REMARK  5 active torsions:
REMARK  status: ('A' for Active; 'I' for Inactive)
REMARK    1  A    between atoms: C_2  and  C_3
REMARK    2  A    between atoms: C_6  and  C_7
REMARK    3  A    between atoms: C_10  and  S_11
REMARK    4  A    between atoms: S_11  and  N_14
REMARK    5  A    between atoms: N_14  and  C_15
REMARK                            x       y       z     vdW  Elec       q    Type
REMARK                         _______ _______ _______ _____ _____    ______ ____
ROOT
ATOM      1  C   UNL     1       1.655   7.761  20.241  0.00  0.00    +0.000 A 
ATOM      2  C   UNL     1       1.041   7.850  21.471  0.00  0.00    +0.000 A 
ATOM      3  S   UNL     1       0.246   9.350  21.672  0.00  0.00    +0.000 S 
ATOM      4  C   UNL     1       0.722   9.882  20.115  0.00  0.00    +0.000 A 
ATOM      5  C   UNL     1       1.501   8.942  19.468  0.00  0.00    +0.000 A 
ENDROOT
BRANCH   1   9
ATOM      6  C   UNL     1       3.852   5.177  19.100  0.00  0.00    +0.000 A 
ATOM      7  N   UNL     1       2.766   4.469  19.336  0.00  0.00    +0.000 NA
ATOM      8  N   UNL     1       1.839   5.333  19.855  0.00  0.00    +0.000 NA
ATOM      9  C   UNL     1       2.374   6.537  19.804  0.00  0.00    +0.000 A 
ATOM     10  O   UNL     1       3.653   6.521  19.299  0.00  0.00    +0.000 OA
BRANCH   6  12
ATOM     11  O   UNL     1       5.709   3.784  19.453  0.00  0.00    +0.000 OA
ATOM     12  C   UNL     1       5.178   4.672  18.784  0.00  0.00    +0.000 C 
ATOM     13  N   UNL     1       5.822   5.205  17.646  0.00  0.00    +0.000 N 
ATOM     14  C   UNL     1       5.241   6.184  16.724  0.00  0.00    +0.000 C 
ATOM     15  C   UNL     1       5.182   5.626  15.312  0.00  0.00    +0.000 C 
ATOM     16  C   UNL     1       6.565   5.193  14.852  0.00  0.00    +0.000 C 
ATOM     17  C   UNL     1       7.193   4.215  15.847  0.00  0.00    +0.000 C 
ATOM     18  C   UNL     1       7.160   4.745  17.283  0.00  0.00    +0.000 C 
ENDBRANCH   6  12
ENDBRANCH   1   9
BRANCH   4  19
ATOM     19  S   UNL     1       0.128  11.477  19.625  0.00  0.00    +0.000 S 
ATOM     20  O   UNL     1       0.228  12.306  20.803  0.00  0.00    +0.000 OA
ATOM     21  O   UNL     1       0.845  11.797  18.405  0.00  0.00    +0.000 OA
BRANCH  19  22
ATOM     22  N   UNL     1      -1.517  11.342  19.264  0.00  0.00    +0.000 NA
ATOM     23  H   UNL     1      -2.021  12.054  19.796  0.00  0.00    +0.000 HD
BRANCH  22  24
ATOM     24  C   UNL     1      -1.908  11.244  17.848  0.00  0.00    +0.000 C 
ATOM     25  C   UNL     1      -1.777   9.837  17.283  0.00  0.00    +0.000 C 
ATOM     26  C   UNL     1      -2.720   9.826  16.089  0.00  0.00    +0.000 C 
ATOM     27  C   UNL     1      -3.830  10.816  16.423  0.00  0.00    +0.000 C 
ATOM     28  C   UNL     1      -3.398  11.545  17.692  0.00  0.00    +0.000 C 
ENDBRANCH  22  24
ENDBRANCH  19  22
ENDBRANCH   4  19
TORSDOF 5
ENDMDL
