MODEL 1
REMARK VINA RESULT:      -8.3      0.000      0.000
REMARK  Name = 
REMARK  8 active torsions:
REMARK  status: ('A' for Active; 'I' for Inactive)
REMARK    1  A    between atoms: S_2  and  N_4
REMARK    2  A    between atoms: S_2  and  C_25
REMARK    3  A    between atoms: N_4  and  C_5
REMARK    4  A    between atoms: N_8  and  C_9
REMARK    5  A    between atoms: C_9  and  C_10
REMARK    6  A    between atoms: C_10  and  O_11
REMARK    7  A    between atoms: O_11  and  C_12
REMARK    8  A    between atoms: C_17  and  C_18
REMARK                            x       y       z     vdW  Elec       q    Type
REMARK                         _______ _______ _______ _____ _____    ______ ____
ROOT
ATOM      1  C   UNL     1      -1.914  11.780  18.471  0.00  0.00    +0.000 C 
ATOM      2  C   UNL     1      -0.802  12.731  18.865  0.00  0.00    +0.000 C 
ATOM      3  C   UNL     1       0.557  12.210  18.414  0.00  0.00    +0.000 C 
ATOM      4  N   UNL     1       0.883  10.833  18.820  0.00  0.00    +0.000 NA
ATOM      5  C   UNL     1      -0.227   9.879  18.667  0.00  0.00    +0.000 C 
ATOM      6  C   UNL     1      -1.606  10.408  19.074  0.00  0.00    +0.000 C 
ENDROOT
BRANCH   1   7
ATOM      7  N   UNL     1      -2.032  11.686  17.007  0.00  0.00    +0.000 NA
ATOM      8  H   UNL     1      -1.251  11.957  16.413  0.00  0.00    +0.000 HD
BRANCH   7  10
ATOM      9  O   UNL     1      -3.265  11.183  14.898  0.00  0.00    +0.000 OA
ATOM     10  S   UNL     1      -3.178  10.719  16.269  0.00  0.00    +0.000 S 
ATOM     11  O   UNL     1      -2.917   9.345  16.605  0.00  0.00    +0.000 OA
BRANCH  10  12
ATOM     12  C   UNL     1      -4.697  11.216  17.049  0.00  0.00    +0.000 A 
ATOM     13  C   UNL     1      -5.180  10.473  18.135  0.00  0.00    +0.000 A 
ATOM     14  C   UNL     1      -6.278  10.939  18.860  0.00  0.00    +0.000 A 
ATOM     15  C   UNL     1      -6.880  12.145  18.505  0.00  0.00    +0.000 A 
ATOM     16  C   UNL     1      -6.409  12.864  17.405  0.00  0.00    +0.000 A 
ATOM     17 CL   UNL     1      -7.145  14.364  16.997  0.00  0.00    +0.000 Cl
ATOM     18  C   UNL     1      -5.327  12.400  16.659  0.00  0.00    +0.000 A 
ENDBRANCH  10  12
ENDBRANCH   7  10
ENDBRANCH   1   7
BRANCH   4  19
ATOM     19  C   UNL     1       2.097  10.342  18.083  0.00  0.00    +0.000 C 
BRANCH  19  20
ATOM     20  C   UNL     1       1.979   8.852  17.708  0.00  0.00    +0.000 C 
BRANCH  20  21
ATOM     21  O   UNL     1       2.600   7.909  18.612  0.00  0.00    +0.000 OA
BRANCH  21  22
ATOM     22  C   UNL     1       3.351   6.943  17.943  0.00  0.00    +0.000 A 
ATOM     23  C   UNL     1       4.428   7.320  17.115  0.00  0.00    +0.000 A 
ATOM     24  C   UNL     1       5.144   6.398  16.347  0.00  0.00    +0.000 A 
ATOM     25  C   UNL     1       4.817   5.060  16.422  0.00  0.00    +0.000 A 
ATOM     26  C   UNL     1       3.793   4.655  17.281  0.00  0.00    +0.000 A 
ATOM     27  C   UNL     1       3.052   5.568  18.073  0.00  0.00    +0.000 A 
BRANCH  27  28
ATOM     28  C   UNL     1       1.986   4.905  18.927  0.00  0.00    +0.000 C 
ATOM     29  C   UNL     1       1.460   3.507  18.619  0.00  0.00    +0.000 C 
ATOM     30  C   UNL     1       0.706   3.136  19.894  0.00  0.00    +0.000 C 
ATOM     31  C   UNL     1       1.528   3.734  21.030  0.00  0.00    +0.000 C 
ATOM     32  C   UNL     1       2.359   4.859  20.417  0.00  0.00    +0.000 C 
ENDBRANCH  27  28
ENDBRANCH  21  22
ENDBRANCH  20  21
ENDBRANCH  19  20
ENDBRANCH   4  19
TORSDOF 8
ENDMDL
MODEL 2
REMARK VINA RESULT:      -8.2      5.415     10.691
REMARK  Name = 
REMARK  8 active torsions:
REMARK  status: ('A' for Active; 'I' for Inactive)
REMARK    1  A    between atoms: S_2  and  N_4
REMARK    2  A    between atoms: S_2  and  C_25
REMARK    3  A    between atoms: N_4  and  C_5
REMARK    4  A    between atoms: N_8  and  C_9
REMARK    5  A    between atoms: C_9  and  C_10
REMARK    6  A    between atoms: C_10  and  O_11
REMARK    7  A    between atoms: O_11  and  C_12
REMARK    8  A    between atoms: C_17  and  C_18
REMARK                            x       y       z     vdW  Elec       q    Type
REMARK                         _______ _______ _______ _____ _____    ______ ____
ROOT
ATOM      1  C   UNL     1       4.935   3.718  17.854  0.00  0.00    +0.000 C 
ATOM      2  C   UNL     1       3.482   3.325  18.020  0.00  0.00    +0.000 C 
ATOM      3  C   UNL     1       2.574   4.549  18.029  0.00  0.00    +0.000 C 
ATOM      4  N   UNL     1       2.938   5.610  18.984  0.00  0.00    +0.000 NA
ATOM      5  C   UNL     1       4.378   5.906  19.038  0.00  0.00    +0.000 C 
ATOM      6  C   UNL     1       5.301   4.684  18.982  0.00  0.00    +0.000 C 
ENDROOT
BRANCH   1   7
ATOM      7  N   UNL     1       5.163   4.346  16.542  0.00  0.00    +0.000 NA
ATOM      8  H   UNL     1       4.373   4.598  15.952  0.00  0.00    +0.000 HD
BRANCH   7  10
ATOM      9  O   UNL     1       6.349   6.529  16.317  0.00  0.00    +0.000 OA
ATOM     10  S   UNL     1       6.601   5.109  16.162  0.00  0.00    +0.000 S 
ATOM     11  O   UNL     1       7.680   4.438  16.835  0.00  0.00    +0.000 OA
BRANCH  10  12
ATOM     12  C   UNL     1       6.762   4.832  14.412  0.00  0.00    +0.000 A 
ATOM     13  C   UNL     1       7.743   5.534  13.700  0.00  0.00    +0.000 A 
ATOM     14  C   UNL     1       7.993   5.213  12.365  0.00  0.00    +0.000 A 
ATOM     15  C   UNL     1       7.272   4.189  11.753  0.00  0.00    +0.000 A 
ATOM     16  C   UNL     1       6.278   3.513  12.463  0.00  0.00    +0.000 A 
ATOM     17 CL   UNL     1       5.417   2.232  11.703  0.00  0.00    +0.000 Cl
ATOM     18  C   UNL     1       6.004   3.838  13.791  0.00  0.00    +0.000 A 
ENDBRANCH  10  12
ENDBRANCH   7  10
ENDBRANCH   1   7
BRANCH   4  19
ATOM     19  C   UNL     1       2.159   6.862  18.699  0.00  0.00    +0.000 C 
BRANCH  19  20
ATOM     20  C   UNL     1       2.021   7.752  19.949  0.00  0.00    +0.000 C 
BRANCH  20  21
ATOM     21  O   UNL     1       1.523   9.092  19.734  0.00  0.00    +0.000 OA
BRANCH  21  22
ATOM     22  C   UNL     1       0.842   9.593  20.843  0.00  0.00    +0.000 A 
ATOM     23  C   UNL     1       0.778   8.850  22.039  0.00  0.00    +0.000 A 
ATOM     24  C   UNL     1       0.025   9.263  23.141  0.00  0.00    +0.000 A 
ATOM     25  C   UNL     1      -0.657  10.460  23.081  0.00  0.00    +0.000 A 
ATOM     26  C   UNL     1      -0.559  11.244  21.929  0.00  0.00    +0.000 A 
ATOM     27  C   UNL     1       0.199  10.850  20.797  0.00  0.00    +0.000 A 
BRANCH  27  28
ATOM     28  C   UNL     1       0.158  11.855  19.660  0.00  0.00    +0.000 C 
ATOM     29  C   UNL     1      -0.887  12.965  19.600  0.00  0.00    +0.000 C 
ATOM     30  C   UNL     1      -0.336  13.897  18.524  0.00  0.00    +0.000 C 
ATOM     31  C   UNL     1       1.176  13.873  18.713  0.00  0.00    +0.000 C 
ATOM     32  C   UNL     1       1.498  12.575  19.450  0.00  0.00    +0.000 C 
ENDBRANCH  27  28
ENDBRANCH  21  22
ENDBRANCH  20  21
ENDBRANCH  19  20
ENDBRANCH   4  19
TORSDOF 8
ENDMDL
MODEL 3
REMARK VINA RESULT:      -8.2      2.040      3.650
REMARK  Name = 
REMARK  8 active torsions:
REMARK  status: ('A' for Active; 'I' for Inactive)
REMARK    1  A    between atoms: S_2  and  N_4
REMARK    2  A    between atoms: S_2  and  C_25
REMARK    3  A    between atoms: N_4  and  C_5
REMARK    4  A    between atoms: N_8  and  C_9
REMARK    5  A    between atoms: C_9  and  C_10
REMARK    6  A    between atoms: C_10  and  O_11
REMARK    7  A    between atoms: O_11  and  C_12
REMARK    8  A    between atoms: C_17  and  C_18
REMARK                            x       y       z     vdW  Elec       q    Type
REMARK                         _______ _______ _______ _____ _____    ______ ____
ROOT
ATOM      1  C   UNL     1      -0.313  10.923  19.756  0.00  0.00    +0.000 C 
ATOM      2  C   UNL     1       1.076  10.719  19.188  0.00  0.00    +0.000 C 
ATOM      3  C   UNL     1       1.477   9.249  19.220  0.00  0.00    +0.000 C 
ATOM      4  N   UNL     1       1.343   8.575  20.523  0.00  0.00    +0.000 NA
ATOM      5  C   UNL     1       0.101   8.894  21.243  0.00  0.00    +0.000 C 
ATOM      6  C   UNL     1      -0.336  10.361  21.179  0.00  0.00    +0.000 C 
ENDROOT
BRANCH   1   7
ATOM      7  N   UNL     1      -1.326  10.256  18.921  0.00  0.00    +0.000 NA
ATOM      8  H   UNL     1      -1.798   9.420  19.261  0.00  0.00    +0.000 HD
BRANCH   7  10
ATOM      9  O   UNL     1      -1.402  12.302  17.498  0.00  0.00    +0.000 OA
ATOM     10  S   UNL     1      -2.098  11.041  17.665  0.00  0.00    +0.000 S 
ATOM     11  O   UNL     1      -2.290  10.115  16.581  0.00  0.00    +0.000 OA
BRANCH  10  12
ATOM     12  C   UNL     1      -3.687  11.450  18.351  0.00  0.00    +0.000 A 
ATOM     13  C   UNL     1      -4.839  10.889  17.783  0.00  0.00    +0.000 A 
ATOM     14  C   UNL     1      -6.076  11.066  18.404  0.00  0.00    +0.000 A 
ATOM     15  C   UNL     1      -6.155  11.792  19.592  0.00  0.00    +0.000 A 
ATOM     16  C   UNL     1      -5.006  12.370  20.136  0.00  0.00    +0.000 A 
ATOM     17 CL   UNL     1      -5.116  13.237  21.618  0.00  0.00    +0.000 Cl
ATOM     18  C   UNL     1      -3.768  12.217  19.515  0.00  0.00    +0.000 A 
ENDBRANCH  10  12
ENDBRANCH   7  10
ENDBRANCH   1   7
BRANCH   4  19
ATOM     19  C   UNL     1       1.486   7.089  20.362  0.00  0.00    +0.000 C 
BRANCH  19  20
ATOM     20  C   UNL     1       2.631   6.720  19.400  0.00  0.00    +0.000 C 
BRANCH  20  21
ATOM     21  O   UNL     1       2.244   6.185  18.113  0.00  0.00    +0.000 OA
BRANCH  21  22
ATOM     22  C   UNL     1       2.422   4.804  18.034  0.00  0.00    +0.000 A 
ATOM     23  C   UNL     1       1.387   3.927  18.418  0.00  0.00    +0.000 A 
ATOM     24  C   UNL     1       1.552   2.540  18.451  0.00  0.00    +0.000 A 
ATOM     25  C   UNL     1       2.757   1.995  18.061  0.00  0.00    +0.000 A 
ATOM     26  C   UNL     1       3.777   2.840  17.618  0.00  0.00    +0.000 A 
ATOM     27  C   UNL     1       3.636   4.250  17.572  0.00  0.00    +0.000 A 
BRANCH  27  28
ATOM     28  C   UNL     1       4.874   4.967  17.062  0.00  0.00    +0.000 C 
ATOM     29  C   UNL     1       6.169   5.012  17.865  0.00  0.00    +0.000 C 
ATOM     30  C   UNL     1       7.190   5.505  16.842  0.00  0.00    +0.000 C 
ATOM     31  C   UNL     1       6.780   4.856  15.526  0.00  0.00    +0.000 C 
ATOM     32  C   UNL     1       5.302   4.497  15.663  0.00  0.00    +0.000 C 
ENDBRANCH  27  28
ENDBRANCH  21  22
ENDBRANCH  20  21
ENDBRANCH  19  20
ENDBRANCH   4  19
TORSDOF 8
ENDMDL
MODEL 4
REMARK VINA RESULT:      -8.1      5.842      9.786
REMARK  Name = 
REMARK  8 active torsions:
REMARK  status: ('A' for Active; 'I' for Inactive)
REMARK    1  A    between atoms: S_2  and  N_4
REMARK    2  A    between atoms: S_2  and  C_25
REMARK    3  A    between atoms: N_4  and  C_5
REMARK    4  A    between atoms: N_8  and  C_9
REMARK    5  A    between atoms: C_9  and  C_10
REMARK    6  A    between atoms: C_10  and  O_11
REMARK    7  A    between atoms: O_11  and  C_12
REMARK    8  A    between atoms: C_17  and  C_18
REMARK                            x       y       z     vdW  Elec       q    Type
REMARK                         _______ _______ _______ _____ _____    ______ ____
ROOT
ATOM      1  C   UNL     1       3.935   3.193  17.498  0.00  0.00    +0.000 C 
ATOM      2  C   UNL     1       2.460   2.899  17.319  0.00  0.00    +0.000 C 
ATOM      3  C   UNL     1       1.608   3.755  18.249  0.00  0.00    +0.000 C 
ATOM      4  N   UNL     1       1.977   3.715  19.674  0.00  0.00    +0.000 NA
ATOM      5  C   UNL     1       3.424   3.781  19.925  0.00  0.00    +0.000 C 
ATOM      6  C   UNL     1       4.295   2.961  18.967  0.00  0.00    +0.000 C 
ENDROOT
BRANCH   1   7
ATOM      7  N   UNL     1       4.248   4.576  17.102  0.00  0.00    +0.000 NA
ATOM      8  H   UNL     1       3.938   5.355  17.679  0.00  0.00    +0.000 HD
BRANCH   7  10
ATOM      9  O   UNL     1       6.089   3.665  15.687  0.00  0.00    +0.000 OA
ATOM     10  S   UNL     1       5.482   4.936  16.034  0.00  0.00    +0.000 S 
ATOM     11  O   UNL     1       4.989   5.854  15.042  0.00  0.00    +0.000 OA
BRANCH  10  12
ATOM     12  C   UNL     1       6.671   5.782  17.051  0.00  0.00    +0.000 A 
ATOM     13  C   UNL     1       6.982   7.118  16.765  0.00  0.00    +0.000 A 
ATOM     14  C   UNL     1       7.786   7.845  17.644  0.00  0.00    +0.000 A 
ATOM     15  C   UNL     1       8.264   7.240  18.806  0.00  0.00    +0.000 A 
ATOM     16  C   UNL     1       7.971   5.900  19.068  0.00  0.00    +0.000 A 
ATOM     17 CL   UNL     1       8.544   5.177  20.519  0.00  0.00    +0.000 Cl
ATOM     18  C   UNL     1       7.187   5.156  18.188  0.00  0.00    +0.000 A 
ENDBRANCH  10  12
ENDBRANCH   7  10
ENDBRANCH   1   7
BRANCH   4  19
ATOM     19  C   UNL     1       1.267   4.802  20.429  0.00  0.00    +0.000 C 
BRANCH  19  20
ATOM     20  C   UNL     1       2.167   6.032  20.651  0.00  0.00    +0.000 C 
BRANCH  20  21
ATOM     21  O   UNL     1       1.497   7.270  20.983  0.00  0.00    +0.000 OA
BRANCH  21  22
ATOM     22  C   UNL     1       1.559   8.205  19.951  0.00  0.00    +0.000 A 
ATOM     23  C   UNL     1       2.018   7.829  18.671  0.00  0.00    +0.000 A 
ATOM     24  C   UNL     1       2.193   8.750  17.635  0.00  0.00    +0.000 A 
ATOM     25  C   UNL     1       1.874  10.074  17.849  0.00  0.00    +0.000 A 
ATOM     26  C   UNL     1       1.360  10.461  19.090  0.00  0.00    +0.000 A 
ATOM     27  C   UNL     1       1.170   9.547  20.158  0.00  0.00    +0.000 A 
BRANCH  27  28
ATOM     28  C   UNL     1       0.604  10.190  21.412  0.00  0.00    +0.000 C 
ATOM     29  C   UNL     1      -0.246  11.454  21.357  0.00  0.00    +0.000 C 
ATOM     30  C   UNL     1      -0.858  11.516  22.755  0.00  0.00    +0.000 C 
ATOM     31  C   UNL     1      -1.136  10.066  23.132  0.00  0.00    +0.000 C 
ATOM     32  C   UNL     1      -0.213   9.210  22.268  0.00  0.00    +0.000 C 
ENDBRANCH  27  28
ENDBRANCH  21  22
ENDBRANCH  20  21
ENDBRANCH  19  20
ENDBRANCH   4  19
TORSDOF 8
ENDMDL
MODEL 5
REMARK VINA RESULT:      -7.9      2.464      2.904
REMARK  Name = 
REMARK  8 active torsions:
REMARK  status: ('A' for Active; 'I' for Inactive)
REMARK    1  A    between atoms: S_2  and  N_4
REMARK    2  A    between atoms: S_2  and  C_25
REMARK    3  A    between atoms: N_4  and  C_5
REMARK    4  A    between atoms: N_8  and  C_9
REMARK    5  A    between atoms: C_9  and  C_10
REMARK    6  A    between atoms: C_10  and  O_11
REMARK    7  A    between atoms: O_11  and  C_12
REMARK    8  A    between atoms: C_17  and  C_18
REMARK                            x       y       z     vdW  Elec       q    Type
REMARK                         _______ _______ _______ _____ _____    ______ ____
ROOT
ATOM      1  C   UNL     1       0.275  11.368  20.947  0.00  0.00    +0.000 C 
ATOM      2  C   UNL     1       1.213  11.769  19.828  0.00  0.00    +0.000 C 
ATOM      3  C   UNL     1       1.344  10.660  18.791  0.00  0.00    +0.000 C 
ATOM      4  N   UNL     1       1.699   9.330  19.315  0.00  0.00    +0.000 NA
ATOM      5  C   UNL     1       0.977   8.951  20.539  0.00  0.00    +0.000 C 
ATOM      6  C   UNL     1       0.798  10.072  21.569  0.00  0.00    +0.000 C 
ENDROOT
BRANCH   1   7
ATOM      7  N   UNL     1      -1.096  11.182  20.444  0.00  0.00    +0.000 NA
ATOM      8  H   UNL     1      -1.514  10.254  20.431  0.00  0.00    +0.000 HD
BRANCH   7  10
ATOM      9  O   UNL     1      -2.976  12.389  21.553  0.00  0.00    +0.000 OA
ATOM     10  S   UNL     1      -2.182  12.447  20.341  0.00  0.00    +0.000 S 
ATOM     11  O   UNL     1      -1.481  13.635  19.932  0.00  0.00    +0.000 OA
BRANCH  10  12
ATOM     12  C   UNL     1      -3.269  11.948  19.024  0.00  0.00    +0.000 A 
ATOM     13  C   UNL     1      -4.647  12.172  19.157  0.00  0.00    +0.000 A 
ATOM     14  C   UNL     1      -5.494  11.938  18.073  0.00  0.00    +0.000 A 
ATOM     15  C   UNL     1      -4.963  11.492  16.863  0.00  0.00    +0.000 A 
ATOM     16  C   UNL     1      -3.594  11.246  16.749  0.00  0.00    +0.000 A 
ATOM     17 CL   UNL     1      -2.950  10.725  15.241  0.00  0.00    +0.000 Cl
ATOM     18  C   UNL     1      -2.739  11.456  17.830  0.00  0.00    +0.000 A 
ENDBRANCH  10  12
ENDBRANCH   7  10
ENDBRANCH   1   7
BRANCH   4  19
ATOM     19  C   UNL     1       1.514   8.282  18.255  0.00  0.00    +0.000 C 
BRANCH  19  20
ATOM     20  C   UNL     1       2.825   7.988  17.502  0.00  0.00    +0.000 C 
BRANCH  20  21
ATOM     21  O   UNL     1       3.778   7.135  18.176  0.00  0.00    +0.000 OA
BRANCH  21  22
ATOM     22  C   UNL     1       4.314   6.161  17.333  0.00  0.00    +0.000 A 
ATOM     23  C   UNL     1       5.293   6.502  16.378  0.00  0.00    +0.000 A 
ATOM     24  C   UNL     1       5.785   5.585  15.446  0.00  0.00    +0.000 A 
ATOM     25  C   UNL     1       5.330   4.284  15.476  0.00  0.00    +0.000 A 
ATOM     26  C   UNL     1       4.404   3.907  16.452  0.00  0.00    +0.000 A 
ATOM     27  C   UNL     1       3.890   4.816  17.411  0.00  0.00    +0.000 A 
BRANCH  27  28
ATOM     28  C   UNL     1       2.894   4.187  18.370  0.00  0.00    +0.000 C 
ATOM     29  C   UNL     1       1.422   4.018  18.009  0.00  0.00    +0.000 C 
ATOM     30  C   UNL     1       0.915   3.059  19.083  0.00  0.00    +0.000 C 
ATOM     31  C   UNL     1       2.065   2.090  19.328  0.00  0.00    +0.000 C 
ATOM     32  C   UNL     1       3.334   2.801  18.862  0.00  0.00    +0.000 C 
ENDBRANCH  27  28
ENDBRANCH  21  22
ENDBRANCH  20  21
ENDBRANCH  19  20
ENDBRANCH   4  19
TORSDOF 8
ENDMDL
MODEL 6
REMARK VINA RESULT:      -7.9      2.671      3.874
REMARK  Name = 
REMARK  8 active torsions:
REMARK  status: ('A' for Active; 'I' for Inactive)
REMARK    1  A    between atoms: S_2  and  N_4
REMARK    2  A    between atoms: S_2  and  C_25
REMARK    3  A    between atoms: N_4  and  C_5
REMARK    4  A    between atoms: N_8  and  C_9
REMARK    5  A    between atoms: C_9  and  C_10
REMARK    6  A    between atoms: C_10  and  O_11
REMARK    7  A    between atoms: O_11  and  C_12
REMARK    8  A    between atoms: C_17  and  C_18
REMARK                            x       y       z     vdW  Elec       q    Type
REMARK                         _______ _______ _______ _____ _____    ______ ____
ROOT
ATOM      1  C   UNL     1      -0.070  11.766  21.077  0.00  0.00    +0.000 C 
ATOM      2  C   UNL     1       1.115  12.230  20.256  0.00  0.00    +0.000 C 
ATOM      3  C   UNL     1       1.324  11.341  19.035  0.00  0.00    +0.000 C 
ATOM      4  N   UNL     1       1.410   9.896  19.301  0.00  0.00    +0.000 NA
ATOM      5  C   UNL     1       0.417   9.399  20.266  0.00  0.00    +0.000 C 
ATOM      6  C   UNL     1       0.164  10.307  21.474  0.00  0.00    +0.000 C 
ENDROOT
BRANCH   1   7
ATOM      7  N   UNL     1      -1.322  11.899  20.316  0.00  0.00    +0.000 NA
ATOM      8  H   UNL     1      -1.595  11.179  19.651  0.00  0.00    +0.000 HD
BRANCH   7  10
ATOM      9  O   UNL     1      -2.841  12.539  22.189  0.00  0.00    +0.000 OA
ATOM     10  S   UNL     1      -2.560  12.906  20.814  0.00  0.00    +0.000 S 
ATOM     11  O   UNL     1      -2.254  14.255  20.420  0.00  0.00    +0.000 OA
BRANCH  10  12
ATOM     12  C   UNL     1      -3.955  12.340  19.865  0.00  0.00    +0.000 A 
ATOM     13  C   UNL     1      -3.734  11.771  18.603  0.00  0.00    +0.000 A 
ATOM     14  C   UNL     1      -4.794  11.176  17.917  0.00  0.00    +0.000 A 
ATOM     15  C   UNL     1      -6.061  11.141  18.497  0.00  0.00    +0.000 A 
ATOM     16  C   UNL     1      -6.277  11.734  19.742  0.00  0.00    +0.000 A 
ATOM     17 CL   UNL     1      -7.840  11.657  20.456  0.00  0.00    +0.000 Cl
ATOM     18  C   UNL     1      -5.232  12.350  20.429  0.00  0.00    +0.000 A 
ENDBRANCH  10  12
ENDBRANCH   7  10
ENDBRANCH   1   7
BRANCH   4  19
ATOM     19  C   UNL     1       1.324   9.120  18.018  0.00  0.00    +0.000 C 
BRANCH  19  20
ATOM     20  C   UNL     1       2.502   8.141  17.856  0.00  0.00    +0.000 C 
BRANCH  20  21
ATOM     21  O   UNL     1       2.626   7.109  18.862  0.00  0.00    +0.000 OA
BRANCH  21  22
ATOM     22  C   UNL     1       2.870   5.852  18.310  0.00  0.00    +0.000 A 
ATOM     23  C   UNL     1       1.798   5.005  17.958  0.00  0.00    +0.000 A 
ATOM     24  C   UNL     1       1.992   3.700  17.497  0.00  0.00    +0.000 A 
ATOM     25  C   UNL     1       3.277   3.224  17.342  0.00  0.00    +0.000 A 
ATOM     26  C   UNL     1       4.356   4.065  17.626  0.00  0.00    +0.000 A 
ATOM     27  C   UNL     1       4.188   5.394  18.093  0.00  0.00    +0.000 A 
BRANCH  27  28
ATOM     28  C   UNL     1       5.499   6.120  18.340  0.00  0.00    +0.000 C 
ATOM     29  C   UNL     1       6.713   5.414  18.935  0.00  0.00    +0.000 C 
ATOM     30  C   UNL     1       7.846   6.402  18.673  0.00  0.00    +0.000 C 
ATOM     31  C   UNL     1       7.536   7.011  17.311  0.00  0.00    +0.000 C 
ATOM     32  C   UNL     1       6.037   6.823  17.085  0.00  0.00    +0.000 C 
ENDBRANCH  27  28
ENDBRANCH  21  22
ENDBRANCH  20  21
ENDBRANCH  19  20
ENDBRANCH   4  19
TORSDOF 8
ENDMDL
MODEL 7
REMARK VINA RESULT:      -7.8      2.430      2.743
REMARK  Name = 
REMARK  8 active torsions:
REMARK  status: ('A' for Active; 'I' for Inactive)
REMARK    1  A    between atoms: S_2  and  N_4
REMARK    2  A    between atoms: S_2  and  C_25
REMARK    3  A    between atoms: N_4  and  C_5
REMARK    4  A    between atoms: N_8  and  C_9
REMARK    5  A    between atoms: C_9  and  C_10
REMARK    6  A    between atoms: C_10  and  O_11
REMARK    7  A    between atoms: O_11  and  C_12
REMARK    8  A    between atoms: C_17  and  C_18
REMARK                            x       y       z     vdW  Elec       q    Type
REMARK                         _______ _______ _______ _____ _____    ______ ____
ROOT
ATOM      1  C   UNL     1      -0.172  12.039  21.311  0.00  0.00    +0.000 C 
ATOM      2  C   UNL     1       1.261  12.326  20.913  0.00  0.00    +0.000 C 
ATOM      3  C   UNL     1       1.585  11.736  19.546  0.00  0.00    +0.000 C 
ATOM      4  N   UNL     1       1.275  10.307  19.374  0.00  0.00    +0.000 NA
ATOM      5  C   UNL     1      -0.024   9.900  19.932  0.00  0.00    +0.000 C 
ATOM      6  C   UNL     1      -0.381  10.524  21.286  0.00  0.00    +0.000 C 
ENDROOT
BRANCH   1   7
ATOM      7  N   UNL     1      -1.115  12.706  20.398  0.00  0.00    +0.000 NA
ATOM      8  H   UNL     1      -1.029  12.578  19.392  0.00  0.00    +0.000 HD
BRANCH   7  10
ATOM      9  O   UNL     1      -2.824  12.666  22.214  0.00  0.00    +0.000 OA
ATOM     10  S   UNL     1      -2.601  13.268  20.914  0.00  0.00    +0.000 S 
ATOM     11  O   UNL     1      -2.664  14.689  20.699  0.00  0.00    +0.000 OA
BRANCH  10  12
ATOM     12  C   UNL     1      -3.746  12.475  19.808  0.00  0.00    +0.000 A 
ATOM     13  C   UNL     1      -3.248  11.764  18.707  0.00  0.00    +0.000 A 
ATOM     14  C   UNL     1      -4.116  11.002  17.924  0.00  0.00    +0.000 A 
ATOM     15  C   UNL     1      -5.471  10.945  18.248  0.00  0.00    +0.000 A 
ATOM     16  C   UNL     1      -5.962  11.678  19.330  0.00  0.00    +0.000 A 
ATOM     17 CL   UNL     1      -7.631  11.573  19.735  0.00  0.00    +0.000 Cl
ATOM     18  C   UNL     1      -5.110  12.459  20.108  0.00  0.00    +0.000 A 
ENDBRANCH  10  12
ENDBRANCH   7  10
ENDBRANCH   1   7
BRANCH   4  19
ATOM     19  C   UNL     1       1.364   9.921  17.926  0.00  0.00    +0.000 C 
BRANCH  19  20
ATOM     20  C   UNL     1       1.638   8.416  17.746  0.00  0.00    +0.000 C 
BRANCH  20  21
ATOM     21  O   UNL     1       2.663   7.843  18.590  0.00  0.00    +0.000 OA
BRANCH  21  22
ATOM     22  C   UNL     1       3.398   6.852  17.941  0.00  0.00    +0.000 A 
ATOM     23  C   UNL     1       4.457   7.198  17.076  0.00  0.00    +0.000 A 
ATOM     24  C   UNL     1       5.155   6.248  16.326  0.00  0.00    +0.000 A 
ATOM     25  C   UNL     1       4.830   4.914  16.456  0.00  0.00    +0.000 A 
ATOM     26  C   UNL     1       3.825   4.541  17.352  0.00  0.00    +0.000 A 
ATOM     27  C   UNL     1       3.101   5.483  18.127  0.00  0.00    +0.000 A 
BRANCH  27  28
ATOM     28  C   UNL     1       2.055   4.852  19.027  0.00  0.00    +0.000 C 
ATOM     29  C   UNL     1       1.469   3.473  18.741  0.00  0.00    +0.000 C 
ATOM     30  C   UNL     1       0.762   3.123  20.048  0.00  0.00    +0.000 C 
ATOM     31  C   UNL     1       1.654   3.688  21.146  0.00  0.00    +0.000 C 
ATOM     32  C   UNL     1       2.493   4.787  20.498  0.00  0.00    +0.000 C 
ENDBRANCH  27  28
ENDBRANCH  21  22
ENDBRANCH  20  21
ENDBRANCH  19  20
ENDBRANCH   4  19
TORSDOF 8
ENDMDL
MODEL 8
REMARK VINA RESULT:      -7.7      4.664      9.930
REMARK  Name = 
REMARK  8 active torsions:
REMARK  status: ('A' for Active; 'I' for Inactive)
REMARK    1  A    between atoms: S_2  and  N_4
REMARK    2  A    between atoms: S_2  and  C_25
REMARK    3  A    between atoms: N_4  and  C_5
REMARK    4  A    between atoms: N_8  and  C_9
REMARK    5  A    between atoms: C_9  and  C_10
REMARK    6  A    between atoms: C_10  and  O_11
REMARK    7  A    between atoms: O_11  and  C_12
REMARK    8  A    between atoms: C_17  and  C_18
REMARK                            x       y       z     vdW  Elec       q    Type
REMARK                         _______ _______ _______ _____ _____    ______ ____
ROOT
ATOM      1  C   UNL     1       1.786   3.584  19.342  0.00  0.00    +0.000 C 
ATOM      2  C   UNL     1       1.722   4.475  18.119  0.00  0.00    +0.000 C 
ATOM      3  C   UNL     1       2.153   5.899  18.447  0.00  0.00    +0.000 C 
ATOM      4  N   UNL     1       1.465   6.531  19.585  0.00  0.00    +0.000 NA
ATOM      5  C   UNL     1       1.295   5.651  20.752  0.00  0.00    +0.000 C 
ATOM      6  C   UNL     1       0.907   4.204  20.431  0.00  0.00    +0.000 C 
ENDROOT
BRANCH   1   7
ATOM      7  N   UNL     1       3.171   3.441  19.817  0.00  0.00    +0.000 NA
ATOM      8  H   UNL     1       3.405   3.660  20.783  0.00  0.00    +0.000 HD
BRANCH   7  10
ATOM      9  O   UNL     1       5.236   2.058  20.028  0.00  0.00    +0.000 OA
ATOM     10  S   UNL     1       4.289   2.490  19.018  0.00  0.00    +0.000 S 
ATOM     11  O   UNL     1       3.593   1.564  18.165  0.00  0.00    +0.000 OA
BRANCH  10  12
ATOM     12  C   UNL     1       5.164   3.655  17.998  0.00  0.00    +0.000 A 
ATOM     13  C   UNL     1       4.792   3.797  16.654  0.00  0.00    +0.000 A 
ATOM     14  C   UNL     1       5.353   4.816  15.883  0.00  0.00    +0.000 A 
ATOM     15  C   UNL     1       6.272   5.692  16.459  0.00  0.00    +0.000 A 
ATOM     16  C   UNL     1       6.657   5.526  17.790  0.00  0.00    +0.000 A 
ATOM     17 CL   UNL     1       7.770   6.634  18.494  0.00  0.00    +0.000 Cl
ATOM     18  C   UNL     1       6.119   4.500  18.566  0.00  0.00    +0.000 A 
ENDBRANCH  10  12
ENDBRANCH   7  10
ENDBRANCH   1   7
BRANCH   4  19
ATOM     19  C   UNL     1       2.168   7.797  19.986  0.00  0.00    +0.000 C 
BRANCH  19  20
ATOM     20  C   UNL     1       1.180   8.876  20.468  0.00  0.00    +0.000 C 
BRANCH  20  21
ATOM     21  O   UNL     1       0.850   9.917  19.521  0.00  0.00    +0.000 OA
BRANCH  21  22
ATOM     22  C   UNL     1      -0.102  10.808  20.015  0.00  0.00    +0.000 A 
ATOM     23  C   UNL     1       0.092  11.445  21.259  0.00  0.00    +0.000 A 
ATOM     24  C   UNL     1      -0.877  12.265  21.842  0.00  0.00    +0.000 A 
ATOM     25  C   UNL     1      -2.057  12.498  21.167  0.00  0.00    +0.000 A 
ATOM     26  C   UNL     1      -2.247  11.928  19.906  0.00  0.00    +0.000 A 
ATOM     27  C   UNL     1      -1.280  11.093  19.291  0.00  0.00    +0.000 A 
BRANCH  27  28
ATOM     28  C   UNL     1      -1.702  10.582  17.925  0.00  0.00    +0.000 C 
ATOM     29  C   UNL     1      -2.897   9.652  17.745  0.00  0.00    +0.000 C 
ATOM     30  C   UNL     1      -3.142   9.697  16.238  0.00  0.00    +0.000 C 
ATOM     31  C   UNL     1      -2.847  11.135  15.830  0.00  0.00    +0.000 C 
ATOM     32  C   UNL     1      -1.935  11.712  16.911  0.00  0.00    +0.000 C 
ENDBRANCH  27  28
ENDBRANCH  21  22
ENDBRANCH  20  21
ENDBRANCH  19  20
ENDBRANCH   4  19
TORSDOF 8
ENDMDL
MODEL 9
REMARK VINA RESULT:      -7.7      3.390      4.866
REMARK  Name = 
REMARK  8 active torsions:
REMARK  status: ('A' for Active; 'I' for Inactive)
REMARK    1  A    between atoms: S_2  and  N_4
REMARK    2  A    between atoms: S_2  and  C_25
REMARK    3  A    between atoms: N_4  and  C_5
REMARK    4  A    between atoms: N_8  and  C_9
REMARK    5  A    between atoms: C_9  and  C_10
REMARK    6  A    between atoms: C_10  and  O_11
REMARK    7  A    between atoms: O_11  and  C_12
REMARK    8  A    between atoms: C_17  and  C_18
REMARK                            x       y       z     vdW  Elec       q    Type
REMARK                         _______ _______ _______ _____ _____    ______ ____
ROOT
ATOM      1  C   UNL     1      -0.462  10.395  21.026  0.00  0.00    +0.000 C 
ATOM      2  C   UNL     1       0.097   9.043  21.414  0.00  0.00    +0.000 C 
ATOM      3  C   UNL     1       1.320   8.688  20.577  0.00  0.00    +0.000 C 
ATOM      4  N   UNL     1       1.147   8.778  19.117  0.00  0.00    +0.000 NA
ATOM      5  C   UNL     1       0.415   9.973  18.669  0.00  0.00    +0.000 C 
ATOM      6  C   UNL     1      -0.789  10.367  19.531  0.00  0.00    +0.000 C 
ENDROOT
BRANCH   1   7
ATOM      7  N   UNL     1       0.501  11.468  21.322  0.00  0.00    +0.000 NA
ATOM      8  H   UNL     1       1.500  11.271  21.327  0.00  0.00    +0.000 HD
BRANCH   7  10
ATOM      9  O   UNL     1       0.733  13.750  22.303  0.00  0.00    +0.000 OA
ATOM     10  S   UNL     1       0.101  13.084  21.180  0.00  0.00    +0.000 S 
ATOM     11  O   UNL     1       0.308  13.500  19.819  0.00  0.00    +0.000 OA
BRANCH  10  12
ATOM     12  C   UNL     1      -1.644  13.107  21.522  0.00  0.00    +0.000 A 
ATOM     13  C   UNL     1      -2.544  13.264  20.459  0.00  0.00    +0.000 A 
ATOM     14  C   UNL     1      -3.914  13.121  20.684  0.00  0.00    +0.000 A 
ATOM     15  C   UNL     1      -4.377  12.813  21.962  0.00  0.00    +0.000 A 
ATOM     16  C   UNL     1      -3.475  12.685  23.020  0.00  0.00    +0.000 A 
ATOM     17 CL   UNL     1      -4.059  12.277  24.586  0.00  0.00    +0.000 Cl
ATOM     18  C   UNL     1      -2.106  12.846  22.814  0.00  0.00    +0.000 A 
ENDBRANCH  10  12
ENDBRANCH   7  10
ENDBRANCH   1   7
BRANCH   4  19
ATOM     19  C   UNL     1       2.476   8.692  18.424  0.00  0.00    +0.000 C 
BRANCH  19  20
ATOM     20  C   UNL     1       2.721   7.295  17.821  0.00  0.00    +0.000 C 
BRANCH  20  21
ATOM     21  O   UNL     1       3.371   6.328  18.678  0.00  0.00    +0.000 OA
BRANCH  21  22
ATOM     22  C   UNL     1       2.921   5.028  18.453  0.00  0.00    +0.000 A 
ATOM     23  C   UNL     1       1.654   4.619  18.917  0.00  0.00    +0.000 A 
ATOM     24  C   UNL     1       1.202   3.301  18.804  0.00  0.00    +0.000 A 
ATOM     25  C   UNL     1       2.003   2.365  18.185  0.00  0.00    +0.000 A 
ATOM     26  C   UNL     1       3.237   2.760  17.663  0.00  0.00    +0.000 A 
ATOM     27  C   UNL     1       3.719   4.090  17.761  0.00  0.00    +0.000 A 
BRANCH  27  28
ATOM     28  C   UNL     1       5.084   4.288  17.127  0.00  0.00    +0.000 C 
ATOM     29  C   UNL     1       5.324   5.325  16.035  0.00  0.00    +0.000 C 
ATOM     30  C   UNL     1       6.847   5.405  15.968  0.00  0.00    +0.000 C 
ATOM     31  C   UNL     1       7.318   5.256  17.410  0.00  0.00    +0.000 C 
ATOM     32  C   UNL     1       6.190   4.552  18.161  0.00  0.00    +0.000 C 
ENDBRANCH  27  28
ENDBRANCH  21  22
ENDBRANCH  20  21
ENDBRANCH  19  20
ENDBRANCH   4  19
TORSDOF 8
ENDMDL
