MODEL 1
REMARK VINA RESULT:      -6.9      0.000      0.000
REMARK  Name = 
REMARK  6 active torsions:
REMARK  status: ('A' for Active; 'I' for Inactive)
REMARK    1  A    between atoms: C_1  and  N_2
REMARK    2  A    between atoms: N_2  and  C_18
REMARK    3  A    between atoms: C_3  and  C_5
REMARK    4  A    between atoms: C_5  and  O_6
REMARK    5  A    between atoms: O_6  and  C_7
REMARK    6  A    between atoms: C_7  and  C_9
REMARK                            x       y       z     vdW  Elec       q    Type
REMARK                         _______ _______ _______ _____ _____    ______ ____
ROOT
ATOM      1  O   UNL     1       2.207   1.581  19.395  0.00  0.00    +0.000 OA
ENDROOT
BRANCH   1   2
ATOM      2  C   UNL     1       1.243   2.475  19.063  0.00  0.00    +0.000 C 
ATOM      3  O   UNL     1       0.235   2.211  18.424  0.00  0.00    +0.000 OA
BRANCH   2   4
ATOM      4  C   UNL     1       1.525   3.766  19.621  0.00  0.00    +0.000 A 
ATOM      5  N   UNL     1       1.675   3.908  20.978  0.00  0.00    +0.000 N 
ATOM      6  N   UNL     1       1.975   5.148  21.399  0.00  0.00    +0.000 NA
ATOM      7  C   UNL     1       2.001   5.886  20.281  0.00  0.00    +0.000 A 
ATOM      8  C   UNL     1       2.255   7.260  20.127  0.00  0.00    +0.000 A 
ATOM      9  C   UNL     1       2.196   7.711  18.793  0.00  0.00    +0.000 A 
ATOM     10  C   UNL     1       1.916   6.853  17.686  0.00  0.00    +0.000 A 
ATOM     11  C   UNL     1       1.663   5.469  17.807  0.00  0.00    +0.000 A 
ATOM     12  C   UNL     1       1.717   5.042  19.136  0.00  0.00    +0.000 A 
ATOM     13  H   UNL     1       1.590   3.171  21.670  0.00  0.00    +0.000 HD
ENDBRANCH   2   4
ENDBRANCH   1   2
BRANCH   1  14
ATOM     14  C   UNL     1       3.343   1.535  18.529  0.00  0.00    +0.000 C 
BRANCH  14  17
ATOM     15  C   UNL     1       4.340   3.541  16.600  0.00  0.00    +0.000 C 
ATOM     16  N   UNL     1       4.844   3.499  17.973  0.00  0.00    +0.000 N 
ATOM     17  C   UNL     1       4.434   2.546  18.922  0.00  0.00    +0.000 C 
ATOM     18  O   UNL     1       4.933   2.507  20.050  0.00  0.00    +0.000 OA
BRANCH  16  19
ATOM     19  C   UNL     1       5.907   4.459  18.376  0.00  0.00    +0.000 C 
ATOM     20  C   UNL     1       5.401   5.875  18.701  0.00  0.00    +0.000 C 
ATOM     21  C   UNL     1       5.418   6.697  17.425  0.00  0.00    +0.000 C 
ATOM     22  S   UNL     1       6.833   6.122  16.513  0.00  0.00    +0.000 S 
ATOM     23  O   UNL     1       7.952   6.989  16.819  0.00  0.00    +0.000 OA
ATOM     24  O   UNL     1       6.418   5.853  15.151  0.00  0.00    +0.000 OA
ATOM     25  C   UNL     1       7.056   4.575  17.368  0.00  0.00    +0.000 C 
ENDBRANCH  16  19
ENDBRANCH  14  17
ENDBRANCH   1  14
TORSDOF 5
ENDMDL
MODEL 2
REMARK VINA RESULT:      -6.9      5.272      7.913
REMARK  Name = 
REMARK  6 active torsions:
REMARK  status: ('A' for Active; 'I' for Inactive)
REMARK    1  A    between atoms: C_1  and  N_2
REMARK    2  A    between atoms: N_2  and  C_18
REMARK    3  A    between atoms: C_3  and  C_5
REMARK    4  A    between atoms: C_5  and  O_6
REMARK    5  A    between atoms: O_6  and  C_7
REMARK    6  A    between atoms: C_7  and  C_9
REMARK                            x       y       z     vdW  Elec       q    Type
REMARK                         _______ _______ _______ _____ _____    ______ ____
ROOT
ATOM      1  O   UNL     1       8.488   7.827  18.822  0.00  0.00    +0.000 OA
ENDROOT
BRANCH   1   2
ATOM      2  C   UNL     1       8.422   9.057  18.255  0.00  0.00    +0.000 C 
ATOM      3  O   UNL     1       7.810   9.324  17.231  0.00  0.00    +0.000 OA
BRANCH   2   4
ATOM      4  C   UNL     1       9.110  10.030  19.055  0.00  0.00    +0.000 A 
ATOM      5  N   UNL     1       8.898  10.077  20.410  0.00  0.00    +0.000 N 
ATOM      6  N   UNL     1       9.618  10.996  21.076  0.00  0.00    +0.000 NA
ATOM      7  C   UNL     1      10.328  11.620  20.126  0.00  0.00    +0.000 A 
ATOM      8  C   UNL     1      11.244  12.677  20.250  0.00  0.00    +0.000 A 
ATOM      9  C   UNL     1      11.811  13.096  19.029  0.00  0.00    +0.000 A 
ATOM     10  C   UNL     1      11.496  12.497  17.771  0.00  0.00    +0.000 A 
ATOM     11  C   UNL     1      10.585  11.430  17.615  0.00  0.00    +0.000 A 
ATOM     12  C   UNL     1      10.028  11.034  18.833  0.00  0.00    +0.000 A 
ATOM     13  H   UNL     1       8.267   9.483  20.938  0.00  0.00    +0.000 HD
ENDBRANCH   2   4
ENDBRANCH   1   2
BRANCH   1  14
ATOM     14  C   UNL     1       7.837   6.774  18.108  0.00  0.00    +0.000 C 
BRANCH  14  17
ATOM     15  C   UNL     1       4.991   6.278  17.484  0.00  0.00    +0.000 C 
ATOM     16  N   UNL     1       5.626   5.661  18.650  0.00  0.00    +0.000 N 
ATOM     17  C   UNL     1       6.964   5.889  19.016  0.00  0.00    +0.000 C 
ATOM     18  O   UNL     1       7.441   5.400  20.043  0.00  0.00    +0.000 OA
BRANCH  16  19
ATOM     19  C   UNL     1       4.802   4.810  19.548  0.00  0.00    +0.000 C 
ATOM     20  C   UNL     1       4.720   3.332  19.133  0.00  0.00    +0.000 C 
ATOM     21  C   UNL     1       3.532   3.157  18.205  0.00  0.00    +0.000 C 
ATOM     22  S   UNL     1       2.298   4.292  18.798  0.00  0.00    +0.000 S 
ATOM     23  O   UNL     1       1.417   3.574  19.695  0.00  0.00    +0.000 OA
ATOM     24  O   UNL     1       1.798   5.051  17.670  0.00  0.00    +0.000 OA
ATOM     25  C   UNL     1       3.376   5.331  19.765  0.00  0.00    +0.000 C 
ENDBRANCH  16  19
ENDBRANCH  14  17
ENDBRANCH   1  14
TORSDOF 5
ENDMDL
MODEL 3
REMARK VINA RESULT:      -6.7      4.571      7.029
REMARK  Name = 
REMARK  6 active torsions:
REMARK  status: ('A' for Active; 'I' for Inactive)
REMARK    1  A    between atoms: C_1  and  N_2
REMARK    2  A    between atoms: N_2  and  C_18
REMARK    3  A    between atoms: C_3  and  C_5
REMARK    4  A    between atoms: C_5  and  O_6
REMARK    5  A    between atoms: O_6  and  C_7
REMARK    6  A    between atoms: C_7  and  C_9
REMARK                            x       y       z     vdW  Elec       q    Type
REMARK                         _______ _______ _______ _____ _____    ______ ____
ROOT
ATOM      1  O   UNL     1       4.098   7.612  17.877  0.00  0.00    +0.000 OA
ENDROOT
BRANCH   1   2
ATOM      2  C   UNL     1       4.544   6.590  17.105  0.00  0.00    +0.000 C 
ATOM      3  O   UNL     1       4.867   6.689  15.930  0.00  0.00    +0.000 OA
BRANCH   2   4
ATOM      4  C   UNL     1       4.657   5.380  17.869  0.00  0.00    +0.000 A 
ATOM      5  N   UNL     1       5.714   5.207  18.726  0.00  0.00    +0.000 N 
ATOM      6  N   UNL     1       5.710   4.059  19.424  0.00  0.00    +0.000 NA
ATOM      7  C   UNL     1       4.615   3.412  19.001  0.00  0.00    +0.000 A 
ATOM      8  C   UNL     1       4.120   2.155  19.386  0.00  0.00    +0.000 A 
ATOM      9  C   UNL     1       2.933   1.776  18.727  0.00  0.00    +0.000 A 
ATOM     10  C   UNL     1       2.277   2.596  17.759  0.00  0.00    +0.000 A 
ATOM     11  C   UNL     1       2.746   3.865  17.356  0.00  0.00    +0.000 A 
ATOM     12  C   UNL     1       3.926   4.220  18.013  0.00  0.00    +0.000 A 
ATOM     13  H   UNL     1       6.474   5.862  18.879  0.00  0.00    +0.000 HD
ENDBRANCH   2   4
ENDBRANCH   1   2
BRANCH   1  14
ATOM     14  C   UNL     1       2.786   7.458  18.421  0.00  0.00    +0.000 C 
BRANCH  14  17
ATOM     15  C   UNL     1       1.245   8.499  20.719  0.00  0.00    +0.000 C 
ATOM     16  N   UNL     1       1.251   9.201  19.434  0.00  0.00    +0.000 N 
ATOM     17  C   UNL     1       1.936   8.734  18.298  0.00  0.00    +0.000 C 
ATOM     18  O   UNL     1       1.861   9.323  17.217  0.00  0.00    +0.000 OA
BRANCH  16  19
ATOM     19  C   UNL     1       0.429  10.431  19.286  0.00  0.00    +0.000 C 
ATOM     20  C   UNL     1       1.224  11.745  19.361  0.00  0.00    +0.000 C 
ATOM     21  C   UNL     1       1.278  12.194  20.810  0.00  0.00    +0.000 C 
ATOM     22  S   UNL     1      -0.283  11.711  21.511  0.00  0.00    +0.000 S 
ATOM     23  O   UNL     1      -1.186  12.840  21.430  0.00  0.00    +0.000 OA
ATOM     24  O   UNL     1      -0.028  11.018  22.758  0.00  0.00    +0.000 OA
ATOM     25  C   UNL     1      -0.744  10.519  20.269  0.00  0.00    +0.000 C 
ENDBRANCH  16  19
ENDBRANCH  14  17
ENDBRANCH   1  14
TORSDOF 5
ENDMDL
MODEL 4
REMARK VINA RESULT:      -6.6      4.208      6.387
REMARK  Name = 
REMARK  6 active torsions:
REMARK  status: ('A' for Active; 'I' for Inactive)
REMARK    1  A    between atoms: C_1  and  N_2
REMARK    2  A    between atoms: N_2  and  C_18
REMARK    3  A    between atoms: C_3  and  C_5
REMARK    4  A    between atoms: C_5  and  O_6
REMARK    5  A    between atoms: O_6  and  C_7
REMARK    6  A    between atoms: C_7  and  C_9
REMARK                            x       y       z     vdW  Elec       q    Type
REMARK                         _______ _______ _______ _____ _____    ______ ____
ROOT
ATOM      1  O   UNL     1       2.599   5.192  19.058  0.00  0.00    +0.000 OA
ENDROOT
BRANCH   1   2
ATOM      2  C   UNL     1       3.473   4.215  19.407  0.00  0.00    +0.000 C 
ATOM      3  O   UNL     1       3.202   3.252  20.108  0.00  0.00    +0.000 OA
BRANCH   2   4
ATOM      4  C   UNL     1       4.749   4.420  18.783  0.00  0.00    +0.000 A 
ATOM      5  N   UNL     1       5.858   4.662  19.553  0.00  0.00    +0.000 N 
ATOM      6  N   UNL     1       7.011   4.802  18.879  0.00  0.00    +0.000 NA
ATOM      7  C   UNL     1       6.664   4.678  17.590  0.00  0.00    +0.000 A 
ATOM      8  C   UNL     1       7.469   4.749  16.441  0.00  0.00    +0.000 A 
ATOM      9  C   UNL     1       6.765   4.577  15.232  0.00  0.00    +0.000 A 
ATOM     10  C   UNL     1       5.358   4.340  15.170  0.00  0.00    +0.000 A 
ATOM     11  C   UNL     1       4.524   4.257  16.306  0.00  0.00    +0.000 A 
ATOM     12  C   UNL     1       5.237   4.438  17.493  0.00  0.00    +0.000 A 
ATOM     13  H   UNL     1       5.879   4.731  20.566  0.00  0.00    +0.000 HD
ENDBRANCH   2   4
ENDBRANCH   1   2
BRANCH   1  14
ATOM     14  C   UNL     1       2.891   6.499  19.558  0.00  0.00    +0.000 C 
BRANCH  14  17
ATOM     15  C   UNL     1       1.103   8.679  20.445  0.00  0.00    +0.000 C 
ATOM     16  N   UNL     1       1.634   8.646  19.081  0.00  0.00    +0.000 N 
ATOM     17  C   UNL     1       2.458   7.616  18.594  0.00  0.00    +0.000 C 
ATOM     18  O   UNL     1       2.830   7.594  17.418  0.00  0.00    +0.000 OA
BRANCH  16  19
ATOM     19  C   UNL     1       1.222   9.709  18.127  0.00  0.00    +0.000 C 
ATOM     20  C   UNL     1       2.122  10.956  18.130  0.00  0.00    +0.000 C 
ATOM     21  C   UNL     1       1.580  11.940  19.151  0.00  0.00    +0.000 C 
ATOM     22  S   UNL     1      -0.188  11.752  19.093  0.00  0.00    +0.000 S 
ATOM     23  O   UNL     1      -0.719  12.748  18.185  0.00  0.00    +0.000 OA
ATOM     24  O   UNL     1      -0.675  11.609  20.449  0.00  0.00    +0.000 OA
ATOM     25  C   UNL     1      -0.233  10.162  18.288  0.00  0.00    +0.000 C 
ENDBRANCH  16  19
ENDBRANCH  14  17
ENDBRANCH   1  14
TORSDOF 5
ENDMDL
MODEL 5
REMARK VINA RESULT:      -6.6      1.748      2.250
REMARK  Name = 
REMARK  6 active torsions:
REMARK  status: ('A' for Active; 'I' for Inactive)
REMARK    1  A    between atoms: C_1  and  N_2
REMARK    2  A    between atoms: N_2  and  C_18
REMARK    3  A    between atoms: C_3  and  C_5
REMARK    4  A    between atoms: C_5  and  O_6
REMARK    5  A    between atoms: O_6  and  C_7
REMARK    6  A    between atoms: C_7  and  C_9
REMARK                            x       y       z     vdW  Elec       q    Type
REMARK                         _______ _______ _______ _____ _____    ______ ____
ROOT
ATOM      1  O   UNL     1       3.151   4.112  20.502  0.00  0.00    +0.000 OA
ENDROOT
BRANCH   1   2
ATOM      2  C   UNL     1       2.226   4.587  19.631  0.00  0.00    +0.000 C 
ATOM      3  O   UNL     1       1.673   3.924  18.767  0.00  0.00    +0.000 OA
BRANCH   2   4
ATOM      4  C   UNL     1       1.926   5.964  19.902  0.00  0.00    +0.000 A 
ATOM      5  N   UNL     1       1.464   6.335  21.140  0.00  0.00    +0.000 N 
ATOM      6  N   UNL     1       1.248   7.650  21.306  0.00  0.00    +0.000 NA
ATOM      7  C   UNL     1       1.550   8.193  20.118  0.00  0.00    +0.000 A 
ATOM      8  C   UNL     1       1.497   9.538  19.716  0.00  0.00    +0.000 A 
ATOM      9  C   UNL     1       1.883   9.756  18.378  0.00  0.00    +0.000 A 
ATOM     10  C   UNL     1       2.304   8.708  17.503  0.00  0.00    +0.000 A 
ATOM     11  C   UNL     1       2.374   7.349  17.879  0.00  0.00    +0.000 A 
ATOM     12  C   UNL     1       1.979   7.152  19.205  0.00  0.00    +0.000 A 
ATOM     13  H   UNL     1       1.287   5.714  21.923  0.00  0.00    +0.000 HD
ENDBRANCH   2   4
ENDBRANCH   1   2
BRANCH   1  14
ATOM     14  C   UNL     1       4.234   3.379  19.926  0.00  0.00    +0.000 C 
BRANCH  14  17
ATOM     15  C   UNL     1       4.484   3.423  16.981  0.00  0.00    +0.000 C 
ATOM     16  N   UNL     1       5.311   4.291  17.821  0.00  0.00    +0.000 N 
ATOM     17  C   UNL     1       5.262   4.286  19.226  0.00  0.00    +0.000 C 
ATOM     18  O   UNL     1       6.023   4.987  19.898  0.00  0.00    +0.000 OA
BRANCH  16  19
ATOM     19  C   UNL     1       6.319   5.169  17.170  0.00  0.00    +0.000 C 
ATOM     20  C   UNL     1       5.729   6.378  16.426  0.00  0.00    +0.000 C 
ATOM     21  C   UNL     1       5.449   5.971  14.990  0.00  0.00    +0.000 C 
ATOM     22  S   UNL     1       6.746   4.831  14.562  0.00  0.00    +0.000 S 
ATOM     23  O   UNL     1       7.803   5.573  13.908  0.00  0.00    +0.000 OA
ATOM     24  O   UNL     1       6.142   3.659  13.962  0.00  0.00    +0.000 OA
ATOM     25  C   UNL     1       7.268   4.430  16.219  0.00  0.00    +0.000 C 
ENDBRANCH  16  19
ENDBRANCH  14  17
ENDBRANCH   1  14
TORSDOF 5
ENDMDL
MODEL 6
REMARK VINA RESULT:      -6.6      3.399      6.994
REMARK  Name = 
REMARK  6 active torsions:
REMARK  status: ('A' for Active; 'I' for Inactive)
REMARK    1  A    between atoms: C_1  and  N_2
REMARK    2  A    between atoms: N_2  and  C_18
REMARK    3  A    between atoms: C_3  and  C_5
REMARK    4  A    between atoms: C_5  and  O_6
REMARK    5  A    between atoms: O_6  and  C_7
REMARK    6  A    between atoms: C_7  and  C_9
REMARK                            x       y       z     vdW  Elec       q    Type
REMARK                         _______ _______ _______ _____ _____    ______ ____
ROOT
ATOM      1  O   UNL     1       6.638   6.488  16.709  0.00  0.00    +0.000 OA
ENDROOT
BRANCH   1   2
ATOM      2  C   UNL     1       7.058   5.238  16.394  0.00  0.00    +0.000 C 
ATOM      3  O   UNL     1       7.205   4.326  17.194  0.00  0.00    +0.000 OA
BRANCH   2   4
ATOM      4  C   UNL     1       7.242   5.100  14.977  0.00  0.00    +0.000 A 
ATOM      5  N   UNL     1       8.291   5.731  14.357  0.00  0.00    +0.000 N 
ATOM      6  N   UNL     1       8.400   5.509  13.037  0.00  0.00    +0.000 NA
ATOM      7  C   UNL     1       7.361   4.716  12.742  0.00  0.00    +0.000 A 
ATOM      8  C   UNL     1       6.975   4.178  11.503  0.00  0.00    +0.000 A 
ATOM      9  C   UNL     1       5.814   3.380  11.556  0.00  0.00    +0.000 A 
ATOM     10  C   UNL     1       5.092   3.125  12.763  0.00  0.00    +0.000 A 
ATOM     11  C   UNL     1       5.457   3.645  14.023  0.00  0.00    +0.000 A 
ATOM     12  C   UNL     1       6.604   4.439  13.949  0.00  0.00    +0.000 A 
ATOM     13  H   UNL     1       8.979   6.327  14.805  0.00  0.00    +0.000 HD
ENDBRANCH   2   4
ENDBRANCH   1   2
BRANCH   1  14
ATOM     14  C   UNL     1       5.970   6.625  17.966  0.00  0.00    +0.000 C 
BRANCH  14  17
ATOM     15  C   UNL     1       4.755   4.333  19.383  0.00  0.00    +0.000 C 
ATOM     16  N   UNL     1       3.934   5.254  18.596  0.00  0.00    +0.000 N 
ATOM     17  C   UNL     1       4.461   6.339  17.872  0.00  0.00    +0.000 C 
ATOM     18  O   UNL     1       3.741   7.051  17.168  0.00  0.00    +0.000 OA
BRANCH  16  19
ATOM     19  C   UNL     1       2.475   4.993  18.481  0.00  0.00    +0.000 C 
ATOM     20  C   UNL     1       1.745   4.839  19.826  0.00  0.00    +0.000 C 
ATOM     21  C   UNL     1       1.774   3.374  20.224  0.00  0.00    +0.000 C 
ATOM     22  S   UNL     1       1.655   2.468  18.699  0.00  0.00    +0.000 S 
ATOM     23  O   UNL     1       0.262   2.146  18.470  0.00  0.00    +0.000 OA
ATOM     24  O   UNL     1       2.692   1.456  18.689  0.00  0.00    +0.000 OA
ATOM     25  C   UNL     1       2.125   3.790  17.599  0.00  0.00    +0.000 C 
ENDBRANCH  16  19
ENDBRANCH  14  17
ENDBRANCH   1  14
TORSDOF 5
ENDMDL
MODEL 7
REMARK VINA RESULT:      -6.6      2.174      2.900
REMARK  Name = 
REMARK  6 active torsions:
REMARK  status: ('A' for Active; 'I' for Inactive)
REMARK    1  A    between atoms: C_1  and  N_2
REMARK    2  A    between atoms: N_2  and  C_18
REMARK    3  A    between atoms: C_3  and  C_5
REMARK    4  A    between atoms: C_5  and  O_6
REMARK    5  A    between atoms: O_6  and  C_7
REMARK    6  A    between atoms: C_7  and  C_9
REMARK                            x       y       z     vdW  Elec       q    Type
REMARK                         _______ _______ _______ _____ _____    ______ ____
ROOT
ATOM      1  O   UNL     1       2.648   4.071  19.544  0.00  0.00    +0.000 OA
ENDROOT
BRANCH   1   2
ATOM      2  C   UNL     1       2.362   5.071  20.414  0.00  0.00    +0.000 C 
ATOM      3  O   UNL     1       2.291   4.944  21.628  0.00  0.00    +0.000 OA
BRANCH   2   4
ATOM      4  C   UNL     1       2.222   6.324  19.729  0.00  0.00    +0.000 A 
ATOM      5  N   UNL     1       2.663   6.451  18.435  0.00  0.00    +0.000 N 
ATOM      6  N   UNL     1       2.452   7.650  17.868  0.00  0.00    +0.000 NA
ATOM      7  C   UNL     1       1.868   8.379  18.830  0.00  0.00    +0.000 A 
ATOM      8  C   UNL     1       1.436   9.716  18.795  0.00  0.00    +0.000 A 
ATOM      9  C   UNL     1       0.864  10.169  20.001  0.00  0.00    +0.000 A 
ATOM     10  C   UNL     1       0.721   9.345  21.159  0.00  0.00    +0.000 A 
ATOM     11  C   UNL     1       1.139   7.999  21.223  0.00  0.00    +0.000 A 
ATOM     12  C   UNL     1       1.711   7.570  20.023  0.00  0.00    +0.000 A 
ATOM     13  H   UNL     1       3.113   5.728  17.883  0.00  0.00    +0.000 HD
ENDBRANCH   2   4
ENDBRANCH   1   2
BRANCH   1  14
ATOM     14  C   UNL     1       3.906   3.418  19.734  0.00  0.00    +0.000 C 
BRANCH  14  17
ATOM     15  C   UNL     1       4.313   3.491  16.808  0.00  0.00    +0.000 C 
ATOM     16  N   UNL     1       5.203   4.221  17.712  0.00  0.00    +0.000 N 
ATOM     17  C   UNL     1       5.080   4.193  19.112  0.00  0.00    +0.000 C 
ATOM     18  O   UNL     1       5.892   4.771  19.840  0.00  0.00    +0.000 OA
BRANCH  16  19
ATOM     19  C   UNL     1       6.352   4.969  17.136  0.00  0.00    +0.000 C 
ATOM     20  C   UNL     1       5.992   6.348  16.556  0.00  0.00    +0.000 C 
ATOM     21  C   UNL     1       5.627   6.175  15.093  0.00  0.00    +0.000 C 
ATOM     22  S   UNL     1       6.683   4.875  14.494  0.00  0.00    +0.000 S 
ATOM     23  O   UNL     1       7.855   5.481  13.898  0.00  0.00    +0.000 OA
ATOM     24  O   UNL     1       5.864   3.916  13.781  0.00  0.00    +0.000 OA
ATOM     25  C   UNL     1       7.136   4.188  16.076  0.00  0.00    +0.000 C 
ENDBRANCH  16  19
ENDBRANCH  14  17
ENDBRANCH   1  14
TORSDOF 5
ENDMDL
MODEL 8
REMARK VINA RESULT:      -6.5      4.396      6.694
REMARK  Name = 
REMARK  6 active torsions:
REMARK  status: ('A' for Active; 'I' for Inactive)
REMARK    1  A    between atoms: C_1  and  N_2
REMARK    2  A    between atoms: N_2  and  C_18
REMARK    3  A    between atoms: C_3  and  C_5
REMARK    4  A    between atoms: C_5  and  O_6
REMARK    5  A    between atoms: O_6  and  C_7
REMARK    6  A    between atoms: C_7  and  C_9
REMARK                            x       y       z     vdW  Elec       q    Type
REMARK                         _______ _______ _______ _____ _____    ______ ____
ROOT
ATOM      1  O   UNL     1       2.545   5.676  18.687  0.00  0.00    +0.000 OA
ENDROOT
BRANCH   1   2
ATOM      2  C   UNL     1       3.248   4.594  19.104  0.00  0.00    +0.000 C 
ATOM      3  O   UNL     1       2.800   3.691  19.795  0.00  0.00    +0.000 OA
BRANCH   2   4
ATOM      4  C   UNL     1       4.579   4.609  18.568  0.00  0.00    +0.000 A 
ATOM      5  N   UNL     1       5.659   4.676  19.413  0.00  0.00    +0.000 N 
ATOM      6  N   UNL     1       6.862   4.645  18.817  0.00  0.00    +0.000 NA
ATOM      7  C   UNL     1       6.587   4.584  17.507  0.00  0.00    +0.000 A 
ATOM      8  C   UNL     1       7.468   4.541  16.413  0.00  0.00    +0.000 A 
ATOM      9  C   UNL     1       6.829   4.485  15.158  0.00  0.00    +0.000 A 
ATOM     10  C   UNL     1       5.409   4.464  15.002  0.00  0.00    +0.000 A 
ATOM     11  C   UNL     1       4.498   4.500  16.079  0.00  0.00    +0.000 A 
ATOM     12  C   UNL     1       5.150   4.563  17.313  0.00  0.00    +0.000 A 
ATOM     13  H   UNL     1       5.623   4.734  20.425  0.00  0.00    +0.000 HD
ENDBRANCH   2   4
ENDBRANCH   1   2
BRANCH   1  14
ATOM     14  C   UNL     1       3.179   6.943  18.873  0.00  0.00    +0.000 C 
BRANCH  14  17
ATOM     15  C   UNL     1       1.378   8.224  20.836  0.00  0.00    +0.000 C 
ATOM     16  N   UNL     1       1.467   8.716  19.461  0.00  0.00    +0.000 N 
ATOM     17  C   UNL     1       2.277   8.125  18.475  0.00  0.00    +0.000 C 
ATOM     18  O   UNL     1       2.272   8.532  17.310  0.00  0.00    +0.000 OA
BRANCH  16  19
ATOM     19  C   UNL     1       0.597   9.850  19.048  0.00  0.00    +0.000 C 
ATOM     20  C   UNL     1       1.338  11.181  18.838  0.00  0.00    +0.000 C 
ATOM     21  C   UNL     1       1.358  11.935  20.156  0.00  0.00    +0.000 C 
ATOM     22  S   UNL     1      -0.190  11.550  20.942  0.00  0.00    +0.000 S 
ATOM     23  O   UNL     1      -1.136  12.596  20.616  0.00  0.00    +0.000 OA
ATOM     24  O   UNL     1       0.080  11.154  22.309  0.00  0.00    +0.000 OA
ATOM     25  C   UNL     1      -0.589  10.099  19.987  0.00  0.00    +0.000 C 
ENDBRANCH  16  19
ENDBRANCH  14  17
ENDBRANCH   1  14
TORSDOF 5
ENDMDL
MODEL 9
REMARK VINA RESULT:      -6.4      2.957      6.680
REMARK  Name = 
REMARK  6 active torsions:
REMARK  status: ('A' for Active; 'I' for Inactive)
REMARK    1  A    between atoms: C_1  and  N_2
REMARK    2  A    between atoms: N_2  and  C_18
REMARK    3  A    between atoms: C_3  and  C_5
REMARK    4  A    between atoms: C_5  and  O_6
REMARK    5  A    between atoms: O_6  and  C_7
REMARK    6  A    between atoms: C_7  and  C_9
REMARK                            x       y       z     vdW  Elec       q    Type
REMARK                         _______ _______ _______ _____ _____    ______ ____
ROOT
ATOM      1  O   UNL     1       7.262   6.414  16.706  0.00  0.00    +0.000 OA
ENDROOT
BRANCH   1   2
ATOM      2  C   UNL     1       7.521   5.083  16.703  0.00  0.00    +0.000 C 
ATOM      3  O   UNL     1       8.157   4.493  17.563  0.00  0.00    +0.000 OA
BRANCH   2   4
ATOM      4  C   UNL     1       6.887   4.439  15.589  0.00  0.00    +0.000 A 
ATOM      5  N   UNL     1       5.893   3.517  15.804  0.00  0.00    +0.000 N 
ATOM      6  N   UNL     1       5.336   2.999  14.697  0.00  0.00    +0.000 NA
ATOM      7  C   UNL     1       6.001   3.573  13.685  0.00  0.00    +0.000 A 
ATOM      8  C   UNL     1       5.843   3.393  12.301  0.00  0.00    +0.000 A 
ATOM      9  C   UNL     1       6.724   4.162  11.515  0.00  0.00    +0.000 A 
ATOM     10  C   UNL     1       7.690   5.058  12.068  0.00  0.00    +0.000 A 
ATOM     11  C   UNL     1       7.869   5.265  13.452  0.00  0.00    +0.000 A 
ATOM     12  C   UNL     1       6.992   4.489  14.215  0.00  0.00    +0.000 A 
ATOM     13  H   UNL     1       5.547   3.211  16.708  0.00  0.00    +0.000 HD
ENDBRANCH   2   4
ENDBRANCH   1   2
BRANCH   1  14
ATOM     14  C   UNL     1       6.462   6.893  17.789  0.00  0.00    +0.000 C 
BRANCH  14  17
ATOM     15  C   UNL     1       5.113   4.850  19.445  0.00  0.00    +0.000 C 
ATOM     16  N   UNL     1       4.371   5.624  18.449  0.00  0.00    +0.000 N 
ATOM     17  C   UNL     1       4.966   6.581  17.609  0.00  0.00    +0.000 C 
ATOM     18  O   UNL     1       4.315   7.164  16.737  0.00  0.00    +0.000 OA
BRANCH  16  19
ATOM     19  C   UNL     1       2.926   5.334  18.247  0.00  0.00    +0.000 C 
ATOM     20  C   UNL     1       2.096   5.288  19.541  0.00  0.00    +0.000 C 
ATOM     21  C   UNL     1       2.105   3.865  20.069  0.00  0.00    +0.000 C 
ATOM     22  S   UNL     1       2.110   2.826  18.626  0.00  0.00    +0.000 S 
ATOM     23  O   UNL     1       0.740   2.466  18.322  0.00  0.00    +0.000 OA
ATOM     24  O   UNL     1       3.151   1.831  18.784  0.00  0.00    +0.000 OA
ATOM     25  C   UNL     1       2.653   4.052  17.451  0.00  0.00    +0.000 C 
ENDBRANCH  16  19
ENDBRANCH  14  17
ENDBRANCH   1  14
TORSDOF 5
ENDMDL
