MODEL 1
REMARK VINA RESULT:      -7.7      0.000      0.000
REMARK  Name = 
REMARK  9 active torsions:
REMARK  status: ('A' for Active; 'I' for Inactive)
REMARK    1  A    between atoms: C_1  and  O_2
REMARK    2  A    between atoms: O_2  and  C_3
REMARK    3  A    between atoms: C_3  and  C_5
REMARK    4  A    between atoms: N_9  and  S_10
REMARK    5  A    between atoms: S_10  and  C_13
REMARK    6  A    between atoms: C_16  and  N_17
REMARK    7  A    between atoms: N_20  and  C_21
REMARK    8  A    between atoms: C_24  and  O_25
REMARK    9  A    between atoms: O_25  and  C_26
REMARK                            x       y       z     vdW  Elec       q    Type
REMARK                         _______ _______ _______ _____ _____    ______ ____
ROOT
ATOM      1  C   UNL     1      -0.415  10.982  22.101  0.00  0.00    +0.000 A 
ATOM      2  C   UNL     1       0.631  11.043  21.183  0.00  0.00    +0.000 A 
ATOM      3  C   UNL     1       1.332   9.874  20.857  0.00  0.00    +0.000 A 
ATOM      4  C   UNL     1       1.022   8.641  21.452  0.00  0.00    +0.000 A 
ATOM      5  C   UNL     1      -0.026   8.601  22.377  0.00  0.00    +0.000 A 
ATOM      6  C   UNL     1      -0.732   9.765  22.709  0.00  0.00    +0.000 A 
ENDROOT
BRANCH   4   7
ATOM      7  N   UNL     1       1.736   7.437  21.202  0.00  0.00    +0.000 N 
ATOM      8  C   UNL     1       2.206   7.021  19.968  0.00  0.00    +0.000 C 
ATOM      9  O   UNL     1       1.969   7.601  18.915  0.00  0.00    +0.000 OA
ATOM     10  N   UNL     1       2.975   5.867  20.046  0.00  0.00    +0.000 N 
ATOM     11  H   UNL     1       1.942   6.857  22.000  0.00  0.00    +0.000 HD
ATOM     12  H   UNL     1       2.803   5.244  20.820  0.00  0.00    +0.000 HD
BRANCH  10  13
ATOM     13  C   UNL     1       3.704   5.338  18.946  0.00  0.00    +0.000 A 
ATOM     14  C   UNL     1       3.141   4.430  18.044  0.00  0.00    +0.000 A 
ATOM     15  C   UNL     1       3.899   3.872  17.015  0.00  0.00    +0.000 A 
ATOM     16  C   UNL     1       5.228   4.244  16.837  0.00  0.00    +0.000 A 
ATOM     17  C   UNL     1       5.798   5.161  17.719  0.00  0.00    +0.000 A 
ATOM     18  C   UNL     1       5.036   5.722  18.756  0.00  0.00    +0.000 A 
BRANCH  16  19
ATOM     19  O   UNL     1       5.878   3.573  15.847  0.00  0.00    +0.000 OA
BRANCH  19  20
ATOM     20  C   UNL     1       6.236   4.265  14.664  0.00  0.00    +0.000 C 
ATOM     21  F   UNL     1       7.478   4.787  14.672  0.00  0.00    +0.000 F 
ATOM     22  F   UNL     1       6.137   3.416  13.616  0.00  0.00    +0.000 F 
ATOM     23  F   UNL     1       5.361   5.277  14.464  0.00  0.00    +0.000 F 
ENDBRANCH  19  20
ENDBRANCH  16  19
ENDBRANCH  10  13
ENDBRANCH   4   7
BRANCH   1  24
ATOM     24  S   UNL     1      -1.267  12.469  22.599  0.00  0.00    +0.000 S 
ATOM     25  O   UNL     1      -0.274  13.376  23.125  0.00  0.00    +0.000 OA
ATOM     26  O   UNL     1      -2.391  12.058  23.413  0.00  0.00    +0.000 OA
BRANCH  24  31
ATOM     27  C   UNL     1      -2.794  14.300  21.184  0.00  0.00    +0.000 C 
ATOM     28  C   UNL     1      -4.154  13.632  20.983  0.00  0.00    +0.000 C 
ATOM     29  C   UNL     1      -3.856  12.564  19.941  0.00  0.00    +0.000 C 
ATOM     30  C   UNL     1      -2.383  12.205  20.132  0.00  0.00    +0.000 C 
ATOM     31  N   UNL     1      -1.868  13.140  21.164  0.00  0.00    +0.000 NA
BRANCH  27  32
ATOM     32  C   UNL     1      -2.791  15.335  22.285  0.00  0.00    +0.000 C 
ATOM     33  O   UNL     1      -3.540  15.318  23.255  0.00  0.00    +0.000 OA
BRANCH  32  35
ATOM     34  C   UNL     1      -2.513  17.609  21.645  0.00  0.00    +0.000 C 
ATOM     35  O   UNL     1      -1.930  16.347  21.982  0.00  0.00    +0.000 OA
ENDBRANCH  32  35
ENDBRANCH  27  32
ENDBRANCH  24  31
ENDBRANCH   1  24
TORSDOF 8
ENDMDL
MODEL 2
REMARK VINA RESULT:      -7.6      0.646      1.393
REMARK  Name = 
REMARK  9 active torsions:
REMARK  status: ('A' for Active; 'I' for Inactive)
REMARK    1  A    between atoms: C_1  and  O_2
REMARK    2  A    between atoms: O_2  and  C_3
REMARK    3  A    between atoms: C_3  and  C_5
REMARK    4  A    between atoms: N_9  and  S_10
REMARK    5  A    between atoms: S_10  and  C_13
REMARK    6  A    between atoms: C_16  and  N_17
REMARK    7  A    between atoms: N_20  and  C_21
REMARK    8  A    between atoms: C_24  and  O_25
REMARK    9  A    between atoms: O_25  and  C_26
REMARK                            x       y       z     vdW  Elec       q    Type
REMARK                         _______ _______ _______ _____ _____    ______ ____
ROOT
ATOM      1  C   UNL     1      -0.222  11.430  21.980  0.00  0.00    +0.000 A 
ATOM      2  C   UNL     1       0.755  11.308  20.995  0.00  0.00    +0.000 A 
ATOM      3  C   UNL     1       1.305  10.049  20.720  0.00  0.00    +0.000 A 
ATOM      4  C   UNL     1       0.912   8.903  21.431  0.00  0.00    +0.000 A 
ATOM      5  C   UNL     1      -0.064   9.046  22.422  0.00  0.00    +0.000 A 
ATOM      6  C   UNL     1      -0.618  10.302  22.704  0.00  0.00    +0.000 A 
ENDROOT
BRANCH   4   7
ATOM      7  N   UNL     1       1.477   7.614  21.234  0.00  0.00    +0.000 N 
ATOM      8  C   UNL     1       2.070   7.164  20.066  0.00  0.00    +0.000 C 
ATOM      9  O   UNL     1       2.085   7.800  19.018  0.00  0.00    +0.000 OA
ATOM     10  N   UNL     1       2.644   5.907  20.202  0.00  0.00    +0.000 N 
ATOM     11  H   UNL     1       1.471   6.989  22.024  0.00  0.00    +0.000 HD
ATOM     12  H   UNL     1       2.265   5.297  20.910  0.00  0.00    +0.000 HD
BRANCH  10  13
ATOM     13  C   UNL     1       3.451   5.304  19.201  0.00  0.00    +0.000 A 
ATOM     14  C   UNL     1       4.840   5.460  19.165  0.00  0.00    +0.000 A 
ATOM     15  C   UNL     1       5.601   4.916  18.131  0.00  0.00    +0.000 A 
ATOM     16  C   UNL     1       4.994   4.163  17.130  0.00  0.00    +0.000 A 
ATOM     17  C   UNL     1       3.612   3.985  17.160  0.00  0.00    +0.000 A 
ATOM     18  C   UNL     1       2.845   4.533  18.202  0.00  0.00    +0.000 A 
BRANCH  16  19
ATOM     19  O   UNL     1       5.833   3.753  16.140  0.00  0.00    +0.000 OA
BRANCH  19  20
ATOM     20  C   UNL     1       6.124   4.637  15.071  0.00  0.00    +0.000 C 
ATOM     21  F   UNL     1       6.209   4.048  13.862  0.00  0.00    +0.000 F 
ATOM     22  F   UNL     1       5.162   5.586  15.017  0.00  0.00    +0.000 F 
ATOM     23  F   UNL     1       7.303   5.252  15.318  0.00  0.00    +0.000 F 
ENDBRANCH  19  20
ENDBRANCH  16  19
ENDBRANCH  10  13
ENDBRANCH   4   7
BRANCH   1  24
ATOM     24  S   UNL     1      -0.876  13.033  22.411  0.00  0.00    +0.000 S 
ATOM     25  O   UNL     1       0.247  13.933  22.541  0.00  0.00    +0.000 OA
ATOM     26  O   UNL     1      -1.787  12.834  23.517  0.00  0.00    +0.000 OA
BRANCH  24  31
ATOM     27  C   UNL     1      -2.721  14.666  21.140  0.00  0.00    +0.000 C 
ATOM     28  C   UNL     1      -4.068  13.960  21.295  0.00  0.00    +0.000 C 
ATOM     29  C   UNL     1      -3.945  12.782  20.340  0.00  0.00    +0.000 C 
ATOM     30  C   UNL     1      -2.451  12.468  20.266  0.00  0.00    +0.000 C 
ATOM     31  N   UNL     1      -1.775  13.524  21.062  0.00  0.00    +0.000 NA
BRANCH  27  32
ATOM     32  C   UNL     1      -2.536  15.822  22.095  0.00  0.00    +0.000 C 
ATOM     33  O   UNL     1      -1.589  16.599  22.068  0.00  0.00    +0.000 OA
BRANCH  32  35
ATOM     34  C   UNL     1      -3.144  16.331  24.337  0.00  0.00    +0.000 C 
ATOM     35  O   UNL     1      -3.500  15.800  23.058  0.00  0.00    +0.000 OA
ENDBRANCH  32  35
ENDBRANCH  27  32
ENDBRANCH  24  31
ENDBRANCH   1  24
TORSDOF 8
ENDMDL
MODEL 3
REMARK VINA RESULT:      -7.4      1.500      2.670
REMARK  Name = 
REMARK  9 active torsions:
REMARK  status: ('A' for Active; 'I' for Inactive)
REMARK    1  A    between atoms: C_1  and  O_2
REMARK    2  A    between atoms: O_2  and  C_3
REMARK    3  A    between atoms: C_3  and  C_5
REMARK    4  A    between atoms: N_9  and  S_10
REMARK    5  A    between atoms: S_10  and  C_13
REMARK    6  A    between atoms: C_16  and  N_17
REMARK    7  A    between atoms: N_20  and  C_21
REMARK    8  A    between atoms: C_24  and  O_25
REMARK    9  A    between atoms: O_25  and  C_26
REMARK                            x       y       z     vdW  Elec       q    Type
REMARK                         _______ _______ _______ _____ _____    ______ ____
ROOT
ATOM      1  C   UNL     1      -0.323  11.034  21.662  0.00  0.00    +0.000 A 
ATOM      2  C   UNL     1       0.748  11.026  20.772  0.00  0.00    +0.000 A 
ATOM      3  C   UNL     1       1.438   9.830  20.535  0.00  0.00    +0.000 A 
ATOM      4  C   UNL     1       1.093   8.638  21.192  0.00  0.00    +0.000 A 
ATOM      5  C   UNL     1       0.019   8.668  22.088  0.00  0.00    +0.000 A 
ATOM      6  C   UNL     1      -0.676   9.860  22.331  0.00  0.00    +0.000 A 
ENDROOT
BRANCH   4   7
ATOM      7  N   UNL     1       1.793   7.412  21.033  0.00  0.00    +0.000 N 
ATOM      8  C   UNL     1       2.306   6.925  19.842  0.00  0.00    +0.000 C 
ATOM      9  O   UNL     1       2.123   7.455  18.752  0.00  0.00    +0.000 OA
ATOM     10  N   UNL     1       3.050   5.764  20.010  0.00  0.00    +0.000 N 
ATOM     11  H   UNL     1       1.956   6.869  21.867  0.00  0.00    +0.000 HD
ATOM     12  H   UNL     1       2.833   5.184  20.806  0.00  0.00    +0.000 HD
BRANCH  10  13
ATOM     13  C   UNL     1       3.812   5.167  18.970  0.00  0.00    +0.000 A 
ATOM     14  C   UNL     1       5.177   5.419  18.805  0.00  0.00    +0.000 A 
ATOM     15  C   UNL     1       5.887   4.876  17.734  0.00  0.00    +0.000 A 
ATOM     16  C   UNL     1       5.255   4.031  16.826  0.00  0.00    +0.000 A 
ATOM     17  C   UNL     1       3.898   3.758  16.986  0.00  0.00    +0.000 A 
ATOM     18  C   UNL     1       3.183   4.305  18.065  0.00  0.00    +0.000 A 
BRANCH  16  19
ATOM     19  O   UNL     1       6.036   3.630  15.786  0.00  0.00    +0.000 OA
BRANCH  19  20
ATOM     20  C   UNL     1       6.194   4.489  14.670  0.00  0.00    +0.000 C 
ATOM     21  F   UNL     1       5.343   5.533  14.639  0.00  0.00    +0.000 F 
ATOM     22  F   UNL     1       7.458   4.968  14.666  0.00  0.00    +0.000 F 
ATOM     23  F   UNL     1       6.016   3.774  13.536  0.00  0.00    +0.000 F 
ENDBRANCH  19  20
ENDBRANCH  16  19
ENDBRANCH  10  13
ENDBRANCH   4   7
BRANCH   1  24
ATOM     24  S   UNL     1      -1.164  12.560  22.049  0.00  0.00    +0.000 S 
ATOM     25  O   UNL     1      -0.600  13.587  21.204  0.00  0.00    +0.000 OA
ATOM     26  O   UNL     1      -1.143  12.701  23.489  0.00  0.00    +0.000 OA
BRANCH  24  31
ATOM     27  C   UNL     1      -3.156  12.365  20.130  0.00  0.00    +0.000 C 
ATOM     28  C   UNL     1      -3.736  13.773  19.996  0.00  0.00    +0.000 C 
ATOM     29  C   UNL     1      -4.525  13.939  21.286  0.00  0.00    +0.000 C 
ATOM     30  C   UNL     1      -3.829  13.043  22.310  0.00  0.00    +0.000 C 
ATOM     31  N   UNL     1      -2.770  12.319  21.562  0.00  0.00    +0.000 NA
BRANCH  27  32
ATOM     32  C   UNL     1      -2.209  11.997  19.011  0.00  0.00    +0.000 C 
ATOM     33  O   UNL     1      -1.493  12.795  18.418  0.00  0.00    +0.000 OA
BRANCH  32  35
ATOM     34  C   UNL     1      -1.951  10.305  17.360  0.00  0.00    +0.000 C 
ATOM     35  O   UNL     1      -2.358  10.685  18.677  0.00  0.00    +0.000 OA
ENDBRANCH  32  35
ENDBRANCH  27  32
ENDBRANCH  24  31
ENDBRANCH   1  24
TORSDOF 8
ENDMDL
MODEL 4
REMARK VINA RESULT:      -7.4      1.675      2.115
REMARK  Name = 
REMARK  9 active torsions:
REMARK  status: ('A' for Active; 'I' for Inactive)
REMARK    1  A    between atoms: C_1  and  O_2
REMARK    2  A    between atoms: O_2  and  C_3
REMARK    3  A    between atoms: C_3  and  C_5
REMARK    4  A    between atoms: N_9  and  S_10
REMARK    5  A    between atoms: S_10  and  C_13
REMARK    6  A    between atoms: C_16  and  N_17
REMARK    7  A    between atoms: N_20  and  C_21
REMARK    8  A    between atoms: C_24  and  O_25
REMARK    9  A    between atoms: O_25  and  C_26
REMARK                            x       y       z     vdW  Elec       q    Type
REMARK                         _______ _______ _______ _____ _____    ______ ____
ROOT
ATOM      1  C   UNL     1      -0.204  10.945  21.680  0.00  0.00    +0.000 A 
ATOM      2  C   UNL     1       0.015  10.596  20.350  0.00  0.00    +0.000 A 
ATOM      3  C   UNL     1       0.694   9.407  20.051  0.00  0.00    +0.000 A 
ATOM      4  C   UNL     1       1.183   8.565  21.063  0.00  0.00    +0.000 A 
ATOM      5  C   UNL     1       0.960   8.936  22.393  0.00  0.00    +0.000 A 
ATOM      6  C   UNL     1       0.282  10.123  22.700  0.00  0.00    +0.000 A 
ENDROOT
BRANCH   4   7
ATOM      7  N   UNL     1       1.928   7.380  20.819  0.00  0.00    +0.000 N 
ATOM      8  C   UNL     1       2.399   6.964  19.584  0.00  0.00    +0.000 C 
ATOM      9  O   UNL     1       2.137   7.528  18.528  0.00  0.00    +0.000 OA
ATOM     10  N   UNL     1       3.200   5.832  19.666  0.00  0.00    +0.000 N 
ATOM     11  H   UNL     1       2.156   6.813  21.620  0.00  0.00    +0.000 HD
ATOM     12  H   UNL     1       3.051   5.212  20.448  0.00  0.00    +0.000 HD
BRANCH  10  13
ATOM     13  C   UNL     1       3.934   5.313  18.566  0.00  0.00    +0.000 A 
ATOM     14  C   UNL     1       3.459   4.256  17.783  0.00  0.00    +0.000 A 
ATOM     15  C   UNL     1       4.230   3.719  16.752  0.00  0.00    +0.000 A 
ATOM     16  C   UNL     1       5.478   4.257  16.452  0.00  0.00    +0.000 A 
ATOM     17  C   UNL     1       5.958   5.321  17.213  0.00  0.00    +0.000 A 
ATOM     18  C   UNL     1       5.182   5.862  18.251  0.00  0.00    +0.000 A 
BRANCH  16  19
ATOM     19  O   UNL     1       6.161   3.596  15.478  0.00  0.00    +0.000 OA
BRANCH  19  20
ATOM     20  C   UNL     1       6.271   4.183  14.193  0.00  0.00    +0.000 C 
ATOM     21  F   UNL     1       7.464   4.756  13.937  0.00  0.00    +0.000 F 
ATOM     22  F   UNL     1       6.046   3.231  13.259  0.00  0.00    +0.000 F 
ATOM     23  F   UNL     1       5.317   5.132  14.060  0.00  0.00    +0.000 F 
ENDBRANCH  19  20
ENDBRANCH  16  19
ENDBRANCH  10  13
ENDBRANCH   4   7
BRANCH   1  24
ATOM     24  S   UNL     1      -0.989  12.494  22.090  0.00  0.00    +0.000 S 
ATOM     25  O   UNL     1      -1.635  12.322  23.371  0.00  0.00    +0.000 OA
ATOM     26  O   UNL     1      -1.754  12.900  20.931  0.00  0.00    +0.000 OA
BRANCH  24  31
ATOM     27  C   UNL     1       0.027  14.995  22.723  0.00  0.00    +0.000 C 
ATOM     28  C   UNL     1       0.106  15.753  21.398  0.00  0.00    +0.000 C 
ATOM     29  C   UNL     1       1.276  15.082  20.693  0.00  0.00    +0.000 C 
ATOM     30  C   UNL     1       1.320  13.655  21.240  0.00  0.00    +0.000 C 
ATOM     31  N   UNL     1       0.282  13.595  22.301  0.00  0.00    +0.000 NA
BRANCH  27  32
ATOM     32  C   UNL     1      -1.157  15.395  23.573  0.00  0.00    +0.000 C 
ATOM     33  O   UNL     1      -2.236  15.766  23.127  0.00  0.00    +0.000 OA
BRANCH  32  35
ATOM     34  C   UNL     1      -1.847  15.731  25.824  0.00  0.00    +0.000 C 
ATOM     35  O   UNL     1      -0.814  15.401  24.891  0.00  0.00    +0.000 OA
ENDBRANCH  32  35
ENDBRANCH  27  32
ENDBRANCH  24  31
ENDBRANCH   1  24
TORSDOF 8
ENDMDL
MODEL 5
REMARK VINA RESULT:      -7.4      1.414      2.228
REMARK  Name = 
REMARK  9 active torsions:
REMARK  status: ('A' for Active; 'I' for Inactive)
REMARK    1  A    between atoms: C_1  and  O_2
REMARK    2  A    between atoms: O_2  and  C_3
REMARK    3  A    between atoms: C_3  and  C_5
REMARK    4  A    between atoms: N_9  and  S_10
REMARK    5  A    between atoms: S_10  and  C_13
REMARK    6  A    between atoms: C_16  and  N_17
REMARK    7  A    between atoms: N_20  and  C_21
REMARK    8  A    between atoms: C_24  and  O_25
REMARK    9  A    between atoms: O_25  and  C_26
REMARK                            x       y       z     vdW  Elec       q    Type
REMARK                         _______ _______ _______ _____ _____    ______ ____
ROOT
ATOM      1  C   UNL     1      -0.636  10.984  21.661  0.00  0.00    +0.000 A 
ATOM      2  C   UNL     1      -0.239  10.286  22.799  0.00  0.00    +0.000 A 
ATOM      3  C   UNL     1       0.528   9.121  22.663  0.00  0.00    +0.000 A 
ATOM      4  C   UNL     1       0.889   8.622  21.401  0.00  0.00    +0.000 A 
ATOM      5  C   UNL     1       0.475   9.332  20.269  0.00  0.00    +0.000 A 
ATOM      6  C   UNL     1      -0.293  10.498  20.397  0.00  0.00    +0.000 A 
ENDROOT
BRANCH   4   7
ATOM      7  N   UNL     1       1.615   7.417  21.202  0.00  0.00    +0.000 N 
ATOM      8  C   UNL     1       2.208   7.020  20.015  0.00  0.00    +0.000 C 
ATOM      9  O   UNL     1       2.086   7.623  18.955  0.00  0.00    +0.000 OA
ATOM     10  N   UNL     1       2.955   5.856  20.148  0.00  0.00    +0.000 N 
ATOM     11  H   UNL     1       1.732   6.819  22.005  0.00  0.00    +0.000 HD
ATOM     12  H   UNL     1       2.698   5.220  20.887  0.00  0.00    +0.000 HD
BRANCH  10  13
ATOM     13  C   UNL     1       3.790   5.342  19.120  0.00  0.00    +0.000 A 
ATOM     14  C   UNL     1       5.150   5.652  19.035  0.00  0.00    +0.000 A 
ATOM     15  C   UNL     1       5.930   5.190  17.976  0.00  0.00    +0.000 A 
ATOM     16  C   UNL     1       5.377   4.369  16.998  0.00  0.00    +0.000 A 
ATOM     17  C   UNL     1       4.025   4.038  17.078  0.00  0.00    +0.000 A 
ATOM     18  C   UNL     1       3.239   4.503  18.145  0.00  0.00    +0.000 A 
BRANCH  16  19
ATOM     19  O   UNL     1       6.221   4.050  15.979  0.00  0.00    +0.000 OA
BRANCH  19  20
ATOM     20  C   UNL     1       6.120   4.752  14.753  0.00  0.00    +0.000 C 
ATOM     21  F   UNL     1       5.446   5.916  14.826  0.00  0.00    +0.000 F 
ATOM     22  F   UNL     1       7.366   5.008  14.295  0.00  0.00    +0.000 F 
ATOM     23  F   UNL     1       5.497   3.965  13.846  0.00  0.00    +0.000 F 
ENDBRANCH  19  20
ENDBRANCH  16  19
ENDBRANCH  10  13
ENDBRANCH   4   7
BRANCH   1  24
ATOM     24  S   UNL     1      -1.685  12.421  21.801  0.00  0.00    +0.000 S 
ATOM     25  O   UNL     1      -2.645  12.150  22.846  0.00  0.00    +0.000 OA
ATOM     26  O   UNL     1      -2.129  12.751  20.465  0.00  0.00    +0.000 OA
BRANCH  24  31
ATOM     27  C   UNL     1      -1.181  15.039  22.561  0.00  0.00    +0.000 C 
ATOM     28  C   UNL     1      -0.727  15.755  21.288  0.00  0.00    +0.000 C 
ATOM     29  C   UNL     1       0.669  15.194  21.062  0.00  0.00    +0.000 C 
ATOM     30  C   UNL     1       0.657  13.801  21.691  0.00  0.00    +0.000 C 
ATOM     31  N   UNL     1      -0.669  13.663  22.346  0.00  0.00    +0.000 NA
BRANCH  27  32
ATOM     32  C   UNL     1      -2.614  15.334  22.936  0.00  0.00    +0.000 C 
ATOM     33  O   UNL     1      -3.473  15.713  22.149  0.00  0.00    +0.000 OA
BRANCH  32  35
ATOM     34  C   UNL     1      -3.704  16.147  24.887  0.00  0.00    +0.000 C 
ATOM     35  O   UNL     1      -2.780  15.237  24.285  0.00  0.00    +0.000 OA
ENDBRANCH  32  35
ENDBRANCH  27  32
ENDBRANCH  24  31
ENDBRANCH   1  24
TORSDOF 8
ENDMDL
MODEL 6
REMARK VINA RESULT:      -7.3      2.834      4.093
REMARK  Name = 
REMARK  9 active torsions:
REMARK  status: ('A' for Active; 'I' for Inactive)
REMARK    1  A    between atoms: C_1  and  O_2
REMARK    2  A    between atoms: O_2  and  C_3
REMARK    3  A    between atoms: C_3  and  C_5
REMARK    4  A    between atoms: N_9  and  S_10
REMARK    5  A    between atoms: S_10  and  C_13
REMARK    6  A    between atoms: C_16  and  N_17
REMARK    7  A    between atoms: N_20  and  C_21
REMARK    8  A    between atoms: C_24  and  O_25
REMARK    9  A    between atoms: O_25  and  C_26
REMARK                            x       y       z     vdW  Elec       q    Type
REMARK                         _______ _______ _______ _____ _____    ______ ____
ROOT
ATOM      1  C   UNL     1      -0.881  13.196  19.944  0.00  0.00    +0.000 A 
ATOM      2  C   UNL     1       0.501  13.361  19.894  0.00  0.00    +0.000 A 
ATOM      3  C   UNL     1       1.287  12.399  19.246  0.00  0.00    +0.000 A 
ATOM      4  C   UNL     1       0.718  11.255  18.663  0.00  0.00    +0.000 A 
ATOM      5  C   UNL     1      -0.670  11.103  18.730  0.00  0.00    +0.000 A 
ATOM      6  C   UNL     1      -1.464  12.061  19.376  0.00  0.00    +0.000 A 
ENDROOT
BRANCH   4   7
ATOM      7  N   UNL     1       1.472  10.221  18.044  0.00  0.00    +0.000 N 
ATOM      8  C   UNL     1       1.824   9.018  18.633  0.00  0.00    +0.000 C 
ATOM      9  O   UNL     1       1.612   8.745  19.809  0.00  0.00    +0.000 OA
ATOM     10  N   UNL     1       2.453   8.149  17.750  0.00  0.00    +0.000 N 
ATOM     11  H   UNL     1       1.742  10.367  17.084  0.00  0.00    +0.000 HD
ATOM     12  H   UNL     1       2.942   8.555  16.967  0.00  0.00    +0.000 HD
BRANCH  10  13
ATOM     13  C   UNL     1       2.760   6.798  18.069  0.00  0.00    +0.000 A 
ATOM     14  C   UNL     1       1.769   5.849  18.333  0.00  0.00    +0.000 A 
ATOM     15  C   UNL     1       2.100   4.548  18.711  0.00  0.00    +0.000 A 
ATOM     16  C   UNL     1       3.432   4.154  18.793  0.00  0.00    +0.000 A 
ATOM     17  C   UNL     1       4.431   5.086  18.518  0.00  0.00    +0.000 A 
ATOM     18  C   UNL     1       4.099   6.396  18.136  0.00  0.00    +0.000 A 
BRANCH  16  19
ATOM     19  O   UNL     1       3.623   2.885  19.247  0.00  0.00    +0.000 OA
BRANCH  19  20
ATOM     20  C   UNL     1       3.041   1.804  18.539  0.00  0.00    +0.000 C 
ATOM     21  F   UNL     1       2.664   2.096  17.279  0.00  0.00    +0.000 F 
ATOM     22  F   UNL     1       3.928   0.785  18.494  0.00  0.00    +0.000 F 
ATOM     23  F   UNL     1       1.948   1.376  19.211  0.00  0.00    +0.000 F 
ENDBRANCH  19  20
ENDBRANCH  16  19
ENDBRANCH  10  13
ENDBRANCH   4   7
BRANCH   1  24
ATOM     24  S   UNL     1      -1.898  14.360  20.836  0.00  0.00    +0.000 S 
ATOM     25  O   UNL     1      -3.172  13.723  21.073  0.00  0.00    +0.000 OA
ATOM     26  O   UNL     1      -1.827  15.617  20.123  0.00  0.00    +0.000 OA
BRANCH  24  31
ATOM     27  C   UNL     1      -1.323  13.572  23.432  0.00  0.00    +0.000 C 
ATOM     28  C   UNL     1      -2.369  14.259  24.310  0.00  0.00    +0.000 C 
ATOM     29  C   UNL     1      -1.924  15.714  24.292  0.00  0.00    +0.000 C 
ATOM     30  C   UNL     1      -1.192  15.902  22.964  0.00  0.00    +0.000 C 
ATOM     31  N   UNL     1      -1.136  14.557  22.337  0.00  0.00    +0.000 NA
BRANCH  27  32
ATOM     32  C   UNL     1      -1.615  12.111  23.182  0.00  0.00    +0.000 C 
ATOM     33  O   UNL     1      -2.722  11.597  23.293  0.00  0.00    +0.000 OA
BRANCH  32  35
ATOM     34  C   UNL     1      -0.573  10.019  22.739  0.00  0.00    +0.000 C 
ATOM     35  O   UNL     1      -0.460  11.431  22.939  0.00  0.00    +0.000 OA
ENDBRANCH  32  35
ENDBRANCH  27  32
ENDBRANCH  24  31
ENDBRANCH   1  24
TORSDOF 8
ENDMDL
MODEL 7
REMARK VINA RESULT:      -7.3      1.373      2.195
REMARK  Name = 
REMARK  9 active torsions:
REMARK  status: ('A' for Active; 'I' for Inactive)
REMARK    1  A    between atoms: C_1  and  O_2
REMARK    2  A    between atoms: O_2  and  C_3
REMARK    3  A    between atoms: C_3  and  C_5
REMARK    4  A    between atoms: N_9  and  S_10
REMARK    5  A    between atoms: S_10  and  C_13
REMARK    6  A    between atoms: C_16  and  N_17
REMARK    7  A    between atoms: N_20  and  C_21
REMARK    8  A    between atoms: C_24  and  O_25
REMARK    9  A    between atoms: O_25  and  C_26
REMARK                            x       y       z     vdW  Elec       q    Type
REMARK                         _______ _______ _______ _____ _____    ______ ____
ROOT
ATOM      1  C   UNL     1      -0.491  11.170  22.019  0.00  0.00    +0.000 A 
ATOM      2  C   UNL     1       0.405  11.151  20.952  0.00  0.00    +0.000 A 
ATOM      3  C   UNL     1       1.115   9.978  20.668  0.00  0.00    +0.000 A 
ATOM      4  C   UNL     1       0.966   8.820  21.449  0.00  0.00    +0.000 A 
ATOM      5  C   UNL     1       0.068   8.860  22.521  0.00  0.00    +0.000 A 
ATOM      6  C   UNL     1      -0.646  10.030  22.812  0.00  0.00    +0.000 A 
ENDROOT
BRANCH   4   7
ATOM      7  N   UNL     1       1.702   7.622  21.242  0.00  0.00    +0.000 N 
ATOM      8  C   UNL     1       2.130   7.142  20.016  0.00  0.00    +0.000 C 
ATOM      9  O   UNL     1       1.831   7.648  18.940  0.00  0.00    +0.000 OA
ATOM     10  N   UNL     1       2.935   6.015  20.129  0.00  0.00    +0.000 N 
ATOM     11  H   UNL     1       1.960   7.099  22.063  0.00  0.00    +0.000 HD
ATOM     12  H   UNL     1       2.814   5.437  20.947  0.00  0.00    +0.000 HD
BRANCH  10  13
ATOM     13  C   UNL     1       3.629   5.437  19.032  0.00  0.00    +0.000 A 
ATOM     14  C   UNL     1       2.993   4.628  18.087  0.00  0.00    +0.000 A 
ATOM     15  C   UNL     1       3.712   4.016  17.060  0.00  0.00    +0.000 A 
ATOM     16  C   UNL     1       5.080   4.235  16.930  0.00  0.00    +0.000 A 
ATOM     17  C   UNL     1       5.726   5.052  17.856  0.00  0.00    +0.000 A 
ATOM     18  C   UNL     1       5.002   5.669  18.890  0.00  0.00    +0.000 A 
BRANCH  16  19
ATOM     19  O   UNL     1       5.677   3.522  15.936  0.00  0.00    +0.000 OA
BRANCH  19  20
ATOM     20  C   UNL     1       6.188   4.207  14.806  0.00  0.00    +0.000 C 
ATOM     21  F   UNL     1       6.085   3.530  13.645  0.00  0.00    +0.000 F 
ATOM     22  F   UNL     1       5.530   5.381  14.675  0.00  0.00    +0.000 F 
ATOM     23  F   UNL     1       7.496   4.483  15.013  0.00  0.00    +0.000 F 
ENDBRANCH  19  20
ENDBRANCH  16  19
ENDBRANCH  10  13
ENDBRANCH   4   7
BRANCH   1  24
ATOM     24  S   UNL     1      -1.344  12.675  22.457  0.00  0.00    +0.000 S 
ATOM     25  O   UNL     1      -0.643  13.253  23.580  0.00  0.00    +0.000 OA
ATOM     26  O   UNL     1      -2.750  12.349  22.558  0.00  0.00    +0.000 OA
BRANCH  24  31
ATOM     27  C   UNL     1      -0.150  14.822  21.172  0.00  0.00    +0.000 C 
ATOM     28  C   UNL     1      -1.041  16.028  21.474  0.00  0.00    +0.000 C 
ATOM     29  C   UNL     1      -2.271  15.763  20.619  0.00  0.00    +0.000 C 
ATOM     30  C   UNL     1      -2.352  14.244  20.476  0.00  0.00    +0.000 C 
ATOM     31  N   UNL     1      -1.131  13.709  21.132  0.00  0.00    +0.000 NA
BRANCH  27  32
ATOM     32  C   UNL     1       1.107  14.780  22.009  0.00  0.00    +0.000 C 
ATOM     33  O   UNL     1       1.336  15.526  22.954  0.00  0.00    +0.000 OA
BRANCH  32  35
ATOM     34  C   UNL     1       2.413  14.106  20.140  0.00  0.00    +0.000 C 
ATOM     35  O   UNL     1       1.993  13.886  21.489  0.00  0.00    +0.000 OA
ENDBRANCH  32  35
ENDBRANCH  27  32
ENDBRANCH  24  31
ENDBRANCH   1  24
TORSDOF 8
ENDMDL
MODEL 8
REMARK VINA RESULT:      -7.3      1.591      2.459
REMARK  Name = 
REMARK  9 active torsions:
REMARK  status: ('A' for Active; 'I' for Inactive)
REMARK    1  A    between atoms: C_1  and  O_2
REMARK    2  A    between atoms: O_2  and  C_3
REMARK    3  A    between atoms: C_3  and  C_5
REMARK    4  A    between atoms: N_9  and  S_10
REMARK    5  A    between atoms: S_10  and  C_13
REMARK    6  A    between atoms: C_16  and  N_17
REMARK    7  A    between atoms: N_20  and  C_21
REMARK    8  A    between atoms: C_24  and  O_25
REMARK    9  A    between atoms: O_25  and  C_26
REMARK                            x       y       z     vdW  Elec       q    Type
REMARK                         _______ _______ _______ _____ _____    ______ ____
ROOT
ATOM      1  C   UNL     1      -0.542  10.905  20.729  0.00  0.00    +0.000 A 
ATOM      2  C   UNL     1      -0.601  10.010  21.795  0.00  0.00    +0.000 A 
ATOM      3  C   UNL     1       0.242   8.891  21.804  0.00  0.00    +0.000 A 
ATOM      4  C   UNL     1       1.132   8.632  20.750  0.00  0.00    +0.000 A 
ATOM      5  C   UNL     1       1.172   9.537  19.684  0.00  0.00    +0.000 A 
ATOM      6  C   UNL     1       0.332  10.659  19.667  0.00  0.00    +0.000 A 
ENDROOT
BRANCH   4   7
ATOM      7  N   UNL     1       1.967   7.484  20.680  0.00  0.00    +0.000 N 
ATOM      8  C   UNL     1       2.489   6.937  19.519  0.00  0.00    +0.000 C 
ATOM      9  O   UNL     1       2.203   7.325  18.392  0.00  0.00    +0.000 OA
ATOM     10  N   UNL     1       3.372   5.893  19.765  0.00  0.00    +0.000 N 
ATOM     11  H   UNL     1       2.225   7.055  21.554  0.00  0.00    +0.000 HD
ATOM     12  H   UNL     1       3.256   5.379  20.625  0.00  0.00    +0.000 HD
BRANCH  10  13
ATOM     13  C   UNL     1       4.160   5.281  18.753  0.00  0.00    +0.000 A 
ATOM     14  C   UNL     1       5.475   5.675  18.490  0.00  0.00    +0.000 A 
ATOM     15  C   UNL     1       6.203   5.106  17.445  0.00  0.00    +0.000 A 
ATOM     16  C   UNL     1       5.645   4.098  16.664  0.00  0.00    +0.000 A 
ATOM     17  C   UNL     1       4.340   3.684  16.925  0.00  0.00    +0.000 A 
ATOM     18  C   UNL     1       3.607   4.256  17.977  0.00  0.00    +0.000 A 
BRANCH  16  19
ATOM     19  O   UNL     1       6.426   3.682  15.631  0.00  0.00    +0.000 OA
BRANCH  19  20
ATOM     20  C   UNL     1       6.322   4.336  14.379  0.00  0.00    +0.000 C 
ATOM     21  F   UNL     1       7.447   4.960  13.976  0.00  0.00    +0.000 F 
ATOM     22  F   UNL     1       5.978   3.427  13.439  0.00  0.00    +0.000 F 
ATOM     23  F   UNL     1       5.336   5.259  14.446  0.00  0.00    +0.000 F 
ENDBRANCH  19  20
ENDBRANCH  16  19
ENDBRANCH  10  13
ENDBRANCH   4   7
BRANCH   1  24
ATOM     24  S   UNL     1      -1.663  12.291  20.649  0.00  0.00    +0.000 S 
ATOM     25  O   UNL     1      -2.770  11.899  19.806  0.00  0.00    +0.000 OA
ATOM     26  O   UNL     1      -0.871  13.456  20.324  0.00  0.00    +0.000 OA
BRANCH  24  31
ATOM     27  C   UNL     1      -3.566  13.125  22.484  0.00  0.00    +0.000 C 
ATOM     28  C   UNL     1      -3.149  14.538  22.894  0.00  0.00    +0.000 C 
ATOM     29  C   UNL     1      -1.926  14.292  23.764  0.00  0.00    +0.000 C 
ATOM     30  C   UNL     1      -1.319  12.984  23.257  0.00  0.00    +0.000 C 
ATOM     31  N   UNL     1      -2.258  12.474  22.225  0.00  0.00    +0.000 NA
BRANCH  27  32
ATOM     32  C   UNL     1      -4.708  13.099  21.495  0.00  0.00    +0.000 C 
ATOM     33  O   UNL     1      -5.473  12.155  21.344  0.00  0.00    +0.000 OA
BRANCH  32  35
ATOM     34  C   UNL     1      -5.945  14.690  20.231  0.00  0.00    +0.000 C 
ATOM     35  O   UNL     1      -4.685  14.217  20.716  0.00  0.00    +0.000 OA
ENDBRANCH  32  35
ENDBRANCH  27  32
ENDBRANCH  24  31
ENDBRANCH   1  24
TORSDOF 8
ENDMDL
MODEL 9
REMARK VINA RESULT:      -7.3      1.246      1.822
REMARK  Name = 
REMARK  9 active torsions:
REMARK  status: ('A' for Active; 'I' for Inactive)
REMARK    1  A    between atoms: C_1  and  O_2
REMARK    2  A    between atoms: O_2  and  C_3
REMARK    3  A    between atoms: C_3  and  C_5
REMARK    4  A    between atoms: N_9  and  S_10
REMARK    5  A    between atoms: S_10  and  C_13
REMARK    6  A    between atoms: C_16  and  N_17
REMARK    7  A    between atoms: N_20  and  C_21
REMARK    8  A    between atoms: C_24  and  O_25
REMARK    9  A    between atoms: O_25  and  C_26
REMARK                            x       y       z     vdW  Elec       q    Type
REMARK                         _______ _______ _______ _____ _____    ______ ____
ROOT
ATOM      1  C   UNL     1      -0.184  11.680  22.012  0.00  0.00    +0.000 A 
ATOM      2  C   UNL     1       0.879  11.528  21.125  0.00  0.00    +0.000 A 
ATOM      3  C   UNL     1       1.393  10.249  20.875  0.00  0.00    +0.000 A 
ATOM      4  C   UNL     1       0.877   9.111  21.517  0.00  0.00    +0.000 A 
ATOM      5  C   UNL     1      -0.185   9.284  22.410  0.00  0.00    +0.000 A 
ATOM      6  C   UNL     1      -0.704  10.560  22.666  0.00  0.00    +0.000 A 
ENDROOT
BRANCH   4   7
ATOM      7  N   UNL     1       1.396   7.799  21.345  0.00  0.00    +0.000 N 
ATOM      8  C   UNL     1       1.937   7.293  20.175  0.00  0.00    +0.000 C 
ATOM      9  O   UNL     1       1.937   7.894  19.106  0.00  0.00    +0.000 OA
ATOM     10  N   UNL     1       2.478   6.024  20.336  0.00  0.00    +0.000 N 
ATOM     11  H   UNL     1       1.397   7.201  22.156  0.00  0.00    +0.000 HD
ATOM     12  H   UNL     1       2.104   5.449  21.075  0.00  0.00    +0.000 HD
BRANCH  10  13
ATOM     13  C   UNL     1       3.234   5.364  19.330  0.00  0.00    +0.000 A 
ATOM     14  C   UNL     1       4.628   5.440  19.272  0.00  0.00    +0.000 A 
ATOM     15  C   UNL     1       5.341   4.840  18.234  0.00  0.00    +0.000 A 
ATOM     16  C   UNL     1       4.676   4.113  17.251  0.00  0.00    +0.000 A 
ATOM     17  C   UNL     1       3.287   4.015  17.304  0.00  0.00    +0.000 A 
ATOM     18  C   UNL     1       2.569   4.618  18.349  0.00  0.00    +0.000 A 
BRANCH  16  19
ATOM     19  O   UNL     1       5.475   3.643  16.254  0.00  0.00    +0.000 OA
BRANCH  19  20
ATOM     20  C   UNL     1       5.886   4.527  15.225  0.00  0.00    +0.000 C 
ATOM     21  F   UNL     1       5.183   5.674  15.156  0.00  0.00    +0.000 F 
ATOM     22  F   UNL     1       7.189   4.835  15.412  0.00  0.00    +0.000 F 
ATOM     23  F   UNL     1       5.774   3.897  14.034  0.00  0.00    +0.000 F 
ENDBRANCH  19  20
ENDBRANCH  16  19
ENDBRANCH  10  13
ENDBRANCH   4   7
BRANCH   1  24
ATOM     24  S   UNL     1      -0.800  13.305  22.414  0.00  0.00    +0.000 S 
ATOM     25  O   UNL     1       0.346  14.168  22.585  0.00  0.00    +0.000 OA
ATOM     26  O   UNL     1      -1.760  13.140  23.485  0.00  0.00    +0.000 OA
BRANCH  24  31
ATOM     27  C   UNL     1      -3.071  13.518  20.838  0.00  0.00    +0.000 C 
ATOM     28  C   UNL     1      -3.026  12.321  19.889  0.00  0.00    +0.000 C 
ATOM     29  C   UNL     1      -1.909  12.695  18.925  0.00  0.00    +0.000 C 
ATOM     30  C   UNL     1      -0.974  13.609  19.716  0.00  0.00    +0.000 C 
ATOM     31  N   UNL     1      -1.631  13.822  21.031  0.00  0.00    +0.000 NA
BRANCH  27  32
ATOM     32  C   UNL     1      -4.034  13.335  21.989  0.00  0.00    +0.000 C 
ATOM     33  O   UNL     1      -4.482  12.255  22.352  0.00  0.00    +0.000 OA
BRANCH  32  35
ATOM     34  C   UNL     1      -5.071  14.547  23.753  0.00  0.00    +0.000 C 
ATOM     35  O   UNL     1      -4.424  14.546  22.477  0.00  0.00    +0.000 OA
ENDBRANCH  32  35
ENDBRANCH  27  32
ENDBRANCH  24  31
ENDBRANCH   1  24
TORSDOF 8
ENDMDL
