MODEL 1
REMARK VINA RESULT:      -8.7      0.000      0.000
REMARK  Name = 
REMARK  9 active torsions:
REMARK  status: ('A' for Active; 'I' for Inactive)
REMARK    1  A    between atoms: C_1  and  C_2
REMARK    2  A    between atoms: N_4  and  C_5
REMARK    3  A    between atoms: C_8  and  C_9
REMARK    4  A    between atoms: C_9  and  C_10
REMARK    5  A    between atoms: C_10  and  C_11
REMARK    6  A    between atoms: C_10  and  N_13
REMARK    7  A    between atoms: C_14  and  C_16
REMARK    8  A    between atoms: C_26  and  C_27
REMARK    9  A    between atoms: N_29  and  C_30
REMARK                            x       y       z     vdW  Elec       q    Type
REMARK                         _______ _______ _______ _____ _____    ______ ____
ROOT
ATOM      1  C   UNL     1       2.242   6.754  18.894  0.00  0.00    +0.000 A 
ATOM      2  C   UNL     1       2.067   7.844  18.026  0.00  0.00    +0.000 A 
ATOM      3  C   UNL     1       1.636   9.096  18.483  0.00  0.00    +0.000 A 
ATOM      4  C   UNL     1       1.385   9.292  19.840  0.00  0.00    +0.000 A 
ATOM      5  C   UNL     1       1.529   8.208  20.702  0.00  0.00    +0.000 A 
ATOM      6  F   UNL     1       1.285   8.356  22.012  0.00  0.00    +0.000 F 
ATOM      7  C   UNL     1       1.945   6.967  20.243  0.00  0.00    +0.000 A 
ENDROOT
BRANCH   1  11
ATOM      8  C   UNL     1       0.882   3.456  20.107  0.00  0.00    +0.000 C 
ATOM      9  C   UNL     1       1.654   3.241  18.798  0.00  0.00    +0.000 C 
ATOM     10  C   UNL     1       1.709   4.524  17.925  0.00  0.00    +0.000 C 
ATOM     11  N   UNL     1       2.670   5.526  18.416  0.00  0.00    +0.000 N 
ATOM     12  C   UNL     1       4.014   5.033  18.797  0.00  0.00    +0.000 C 
ATOM     13  C   UNL     1       4.910   4.948  17.562  0.00  0.00    +0.000 C 
ATOM     14  C   UNL     1       3.917   3.688  19.578  0.00  0.00    +0.000 C 
ATOM     15  N   UNL     1       2.980   2.649  19.095  0.00  0.00    +0.000 NA
ATOM     16  C   UNL     1       3.501   1.909  17.949  0.00  0.00    +0.000 C 
ENDBRANCH   1  11
BRANCH   4  17
ATOM     17  C   UNL     1       0.963  10.634  20.372  0.00  0.00    +0.000 C 
BRANCH  17  18
ATOM     18  C   UNL     1      -0.435  10.621  21.028  0.00  0.00    +0.000 C 
BRANCH  18  19
ATOM     19  N   UNL     1      -1.533  10.828  20.021  0.00  0.00    +0.000 N 
ATOM     20  C   UNL     1      -1.603  11.943  19.209  0.00  0.00    +0.000 C 
ATOM     21  O   UNL     1      -0.885  12.929  19.405  0.00  0.00    +0.000 OA
ATOM     22  H   UNL     1      -2.027  10.012  19.675  0.00  0.00    +0.000 HD
BRANCH  20  23
ATOM     23  C   UNL     1      -2.500  11.871  17.959  0.00  0.00    +0.000 C 
ATOM     24  N   UNL     1      -1.792  11.657  16.658  0.00  0.00    +0.000 NA
ATOM     25  C   UNL     1      -2.627  10.619  15.970  0.00  0.00    +0.000 C 
ATOM     26  C   UNL     1      -4.067  11.103  15.693  0.00  0.00    +0.000 C 
ATOM     27  C   UNL     1      -4.700  11.150  17.093  0.00  0.00    +0.000 C 
ATOM     28  C   UNL     1      -3.525  10.717  17.986  0.00  0.00    +0.000 C 
ATOM     29  C   UNL     1      -2.856   9.650  17.119  0.00  0.00    +0.000 C 
ATOM     30  H   UNL     1      -0.888  11.217  16.848  0.00  0.00    +0.000 HD
ENDBRANCH  20  23
ENDBRANCH  18  19
BRANCH  18  31
ATOM     31  C   UNL     1      -0.519  11.730  22.063  0.00  0.00    +0.000 C 
ATOM     32  N   UNL     1      -0.590  12.651  22.922  0.00  0.00    +0.000 NA
ENDBRANCH  18  31
ENDBRANCH  17  18
ENDBRANCH   4  17
TORSDOF 6
ENDMDL
MODEL 2
REMARK VINA RESULT:      -8.6      1.070      1.379
REMARK  Name = 
REMARK  9 active torsions:
REMARK  status: ('A' for Active; 'I' for Inactive)
REMARK    1  A    between atoms: C_1  and  C_2
REMARK    2  A    between atoms: N_4  and  C_5
REMARK    3  A    between atoms: C_8  and  C_9
REMARK    4  A    between atoms: C_9  and  C_10
REMARK    5  A    between atoms: C_10  and  C_11
REMARK    6  A    between atoms: C_10  and  N_13
REMARK    7  A    between atoms: C_14  and  C_16
REMARK    8  A    between atoms: C_26  and  C_27
REMARK    9  A    between atoms: N_29  and  C_30
REMARK                            x       y       z     vdW  Elec       q    Type
REMARK                         _______ _______ _______ _____ _____    ______ ____
ROOT
ATOM      1  C   UNL     1       2.488   6.259  18.882  0.00  0.00    +0.000 A 
ATOM      2  C   UNL     1       2.070   6.498  20.202  0.00  0.00    +0.000 A 
ATOM      3  C   UNL     1       1.599   7.750  20.616  0.00  0.00    +0.000 A 
ATOM      4  C   UNL     1       1.516   8.800  19.703  0.00  0.00    +0.000 A 
ATOM      5  C   UNL     1       1.955   8.578  18.401  0.00  0.00    +0.000 A 
ATOM      6  F   UNL     1       1.901   9.567  17.497  0.00  0.00    +0.000 F 
ATOM      7  C   UNL     1       2.432   7.339  17.997  0.00  0.00    +0.000 A 
ENDROOT
BRANCH   1  11
ATOM      8  C   UNL     1       0.812   3.028  19.855  0.00  0.00    +0.000 C 
ATOM      9  C   UNL     1       1.799   2.768  18.707  0.00  0.00    +0.000 C 
ATOM     10  C   UNL     1       2.056   4.036  17.849  0.00  0.00    +0.000 C 
ATOM     11  N   UNL     1       2.950   5.011  18.497  0.00  0.00    +0.000 N 
ATOM     12  C   UNL     1       4.184   4.477  19.117  0.00  0.00    +0.000 C 
ATOM     13  C   UNL     1       5.284   4.343  18.064  0.00  0.00    +0.000 C 
ATOM     14  C   UNL     1       3.900   3.147  19.878  0.00  0.00    +0.000 C 
ATOM     15  N   UNL     1       3.027   2.135  19.242  0.00  0.00    +0.000 NA
ATOM     16  C   UNL     1       3.718   1.361  18.215  0.00  0.00    +0.000 C 
ENDBRANCH   1  11
BRANCH   4  17
ATOM     17  C   UNL     1       0.975  10.144  20.103  0.00  0.00    +0.000 C 
BRANCH  17  18
ATOM     18  C   UNL     1      -0.401  10.068  20.799  0.00  0.00    +0.000 C 
BRANCH  18  19
ATOM     19  N   UNL     1      -1.507  10.590  19.924  0.00  0.00    +0.000 N 
ATOM     20  C   UNL     1      -1.278  11.421  18.845  0.00  0.00    +0.000 C 
ATOM     21  O   UNL     1      -0.177  11.949  18.659  0.00  0.00    +0.000 OA
ATOM     22  H   UNL     1      -2.378  10.070  19.889  0.00  0.00    +0.000 HD
BRANCH  20  23
ATOM     23  C   UNL     1      -2.393  11.560  17.791  0.00  0.00    +0.000 C 
ATOM     24  N   UNL     1      -1.938  11.805  16.386  0.00  0.00    +0.000 NA
ATOM     25  C   UNL     1      -2.795  10.883  15.573  0.00  0.00    +0.000 C 
ATOM     26  C   UNL     1      -4.299  11.214  15.687  0.00  0.00    +0.000 C 
ATOM     27  C   UNL     1      -4.647  10.794  17.124  0.00  0.00    +0.000 C 
ATOM     28  C   UNL     1      -3.285  10.308  17.649  0.00  0.00    +0.000 C 
ATOM     29  C   UNL     1      -2.706   9.619  16.413  0.00  0.00    +0.000 C 
ATOM     30  H   UNL     1      -0.978  11.463  16.291  0.00  0.00    +0.000 HD
ENDBRANCH  20  23
ENDBRANCH  18  19
BRANCH  18  31
ATOM     31  C   UNL     1      -0.370  10.896  22.074  0.00  0.00    +0.000 C 
ATOM     32  N   UNL     1      -0.344  11.582  23.132  0.00  0.00    +0.000 NA
ENDBRANCH  18  31
ENDBRANCH  17  18
ENDBRANCH   4  17
TORSDOF 6
ENDMDL
MODEL 3
REMARK VINA RESULT:      -8.6      1.196      1.478
REMARK  Name = 
REMARK  9 active torsions:
REMARK  status: ('A' for Active; 'I' for Inactive)
REMARK    1  A    between atoms: C_1  and  C_2
REMARK    2  A    between atoms: N_4  and  C_5
REMARK    3  A    between atoms: C_8  and  C_9
REMARK    4  A    between atoms: C_9  and  C_10
REMARK    5  A    between atoms: C_10  and  C_11
REMARK    6  A    between atoms: C_10  and  N_13
REMARK    7  A    between atoms: C_14  and  C_16
REMARK    8  A    between atoms: C_26  and  C_27
REMARK    9  A    between atoms: N_29  and  C_30
REMARK                            x       y       z     vdW  Elec       q    Type
REMARK                         _______ _______ _______ _____ _____    ______ ____
ROOT
ATOM      1  C   UNL     1       2.301   6.685  18.694  0.00  0.00    +0.000 A 
ATOM      2  C   UNL     1       2.082   7.712  17.761  0.00  0.00    +0.000 A 
ATOM      3  C   UNL     1       1.598   8.970  18.142  0.00  0.00    +0.000 A 
ATOM      4  C   UNL     1       1.336   9.237  19.485  0.00  0.00    +0.000 A 
ATOM      5  C   UNL     1       1.524   8.214  20.410  0.00  0.00    +0.000 A 
ATOM      6  F   UNL     1       1.272   8.431  21.709  0.00  0.00    +0.000 F 
ATOM      7  C   UNL     1       1.993   6.967  20.028  0.00  0.00    +0.000 A 
ENDROOT
BRANCH   1  11
ATOM      8  C   UNL     1       0.901   3.405  19.910  0.00  0.00    +0.000 C 
ATOM      9  C   UNL     1       1.773   3.161  18.671  0.00  0.00    +0.000 C 
ATOM     10  C   UNL     1       1.875   4.417  17.762  0.00  0.00    +0.000 C 
ATOM     11  N   UNL     1       2.782   5.449  18.290  0.00  0.00    +0.000 N 
ATOM     12  C   UNL     1       4.100   4.992  18.787  0.00  0.00    +0.000 C 
ATOM     13  C   UNL     1       5.089   4.882  17.626  0.00  0.00    +0.000 C 
ATOM     14  C   UNL     1       3.964   3.671  19.603  0.00  0.00    +0.000 C 
ATOM     15  N   UNL     1       3.081   2.602  19.086  0.00  0.00    +0.000 NA
ATOM     16  C   UNL     1       3.698   1.834  18.008  0.00  0.00    +0.000 C 
ENDBRANCH   1  11
BRANCH   4  17
ATOM     17  C   UNL     1       0.856  10.590  19.935  0.00  0.00    +0.000 C 
BRANCH  17  18
ATOM     18  C   UNL     1      -0.578  10.572  20.505  0.00  0.00    +0.000 C 
BRANCH  18  19
ATOM     19  N   UNL     1      -1.500  11.484  19.742  0.00  0.00    +0.000 N 
ATOM     20  C   UNL     1      -2.297  11.043  18.704  0.00  0.00    +0.000 C 
ATOM     21  O   UNL     1      -2.149   9.923  18.207  0.00  0.00    +0.000 OA
ATOM     22  H   UNL     1      -1.813  12.337  20.194  0.00  0.00    +0.000 HD
BRANCH  20  23
ATOM     23  C   UNL     1      -3.477  11.934  18.272  0.00  0.00    +0.000 C 
ATOM     24  N   UNL     1      -3.920  11.788  16.850  0.00  0.00    +0.000 NA
ATOM     25  C   UNL     1      -5.415  11.745  16.950  0.00  0.00    +0.000 C 
ATOM     26  C   UNL     1      -6.009  13.044  17.537  0.00  0.00    +0.000 C 
ATOM     27  C   UNL     1      -5.587  12.990  19.014  0.00  0.00    +0.000 C 
ATOM     28  C   UNL     1      -4.779  11.681  19.063  0.00  0.00    +0.000 C 
ATOM     29  C   UNL     1      -5.582  10.787  18.118  0.00  0.00    +0.000 C 
ATOM     30  H   UNL     1      -3.629  10.867  16.512  0.00  0.00    +0.000 HD
ENDBRANCH  20  23
ENDBRANCH  18  19
BRANCH  18  31
ATOM     31  C   UNL     1      -0.552  11.024  21.956  0.00  0.00    +0.000 C 
ATOM     32  N   UNL     1      -0.530  11.399  23.160  0.00  0.00    +0.000 NA
ENDBRANCH  18  31
ENDBRANCH  17  18
ENDBRANCH   4  17
TORSDOF 6
ENDMDL
MODEL 4
REMARK VINA RESULT:      -8.6      2.796      4.203
REMARK  Name = 
REMARK  9 active torsions:
REMARK  status: ('A' for Active; 'I' for Inactive)
REMARK    1  A    between atoms: C_1  and  C_2
REMARK    2  A    between atoms: N_4  and  C_5
REMARK    3  A    between atoms: C_8  and  C_9
REMARK    4  A    between atoms: C_9  and  C_10
REMARK    5  A    between atoms: C_10  and  C_11
REMARK    6  A    between atoms: C_10  and  N_13
REMARK    7  A    between atoms: C_14  and  C_16
REMARK    8  A    between atoms: C_26  and  C_27
REMARK    9  A    between atoms: N_29  and  C_30
REMARK                            x       y       z     vdW  Elec       q    Type
REMARK                         _______ _______ _______ _____ _____    ______ ____
ROOT
ATOM      1  C   UNL     1       2.230   6.774  19.788  0.00  0.00    +0.000 A 
ATOM      2  C   UNL     1       1.545   7.377  20.856  0.00  0.00    +0.000 A 
ATOM      3  C   UNL     1       1.018   8.672  20.762  0.00  0.00    +0.000 A 
ATOM      4  C   UNL     1       1.151   9.393  19.577  0.00  0.00    +0.000 A 
ATOM      5  C   UNL     1       1.853   8.812  18.525  0.00  0.00    +0.000 A 
ATOM      6  F   UNL     1       2.011   9.480  17.374  0.00  0.00    +0.000 F 
ATOM      7  C   UNL     1       2.383   7.534  18.625  0.00  0.00    +0.000 A 
ENDROOT
BRANCH   1  11
ATOM      8  C   UNL     1       4.105   5.015  17.032  0.00  0.00    +0.000 C 
ATOM      9  C   UNL     1       4.331   4.275  18.358  0.00  0.00    +0.000 C 
ATOM     10  C   UNL     1       4.150   5.202  19.592  0.00  0.00    +0.000 C 
ATOM     11  N   UNL     1       2.741   5.491  19.906  0.00  0.00    +0.000 N 
ATOM     12  C   UNL     1       1.807   4.341  19.910  0.00  0.00    +0.000 C 
ATOM     13  C   UNL     1       1.845   3.640  21.268  0.00  0.00    +0.000 C 
ATOM     14  C   UNL     1       2.094   3.381  18.716  0.00  0.00    +0.000 C 
ATOM     15  N   UNL     1       3.499   3.049  18.391  0.00  0.00    +0.000 NA
ATOM     16  C   UNL     1       4.064   2.047  19.290  0.00  0.00    +0.000 C 
ENDBRANCH   1  11
BRANCH   4  17
ATOM     17  C   UNL     1       0.561  10.768  19.428  0.00  0.00    +0.000 C 
BRANCH  17  18
ATOM     18  C   UNL     1       0.876  11.703  20.615  0.00  0.00    +0.000 C 
BRANCH  18  19
ATOM     19  N   UNL     1      -0.373  12.253  21.247  0.00  0.00    +0.000 N 
ATOM     20  C   UNL     1      -0.791  11.895  22.514  0.00  0.00    +0.000 C 
ATOM     21  O   UNL     1      -0.277  10.950  23.120  0.00  0.00    +0.000 OA
ATOM     22  H   UNL     1      -0.729  13.142  20.911  0.00  0.00    +0.000 HD
BRANCH  20  23
ATOM     23  C   UNL     1      -1.823  12.799  23.216  0.00  0.00    +0.000 C 
ATOM     24  N   UNL     1      -1.999  14.166  22.630  0.00  0.00    +0.000 NA
ATOM     25  C   UNL     1      -3.487  14.349  22.608  0.00  0.00    +0.000 C 
ATOM     26  C   UNL     1      -4.112  14.314  24.020  0.00  0.00    +0.000 C 
ATOM     27  C   UNL     1      -3.975  12.840  24.431  0.00  0.00    +0.000 C 
ATOM     28  C   UNL     1      -3.260  12.236  23.210  0.00  0.00    +0.000 C 
ATOM     29  C   UNL     1      -3.918  12.998  22.060  0.00  0.00    +0.000 C 
ATOM     30  H   UNL     1      -1.698  14.142  21.653  0.00  0.00    +0.000 HD
ENDBRANCH  20  23
ENDBRANCH  18  19
BRANCH  18  31
ATOM     31  C   UNL     1       1.721  12.870  20.132  0.00  0.00    +0.000 C 
ATOM     32  N   UNL     1       2.422  13.838  19.731  0.00  0.00    +0.000 NA
ENDBRANCH  18  31
ENDBRANCH  17  18
ENDBRANCH   4  17
TORSDOF 6
ENDMDL
MODEL 5
REMARK VINA RESULT:      -8.6      1.503      1.948
REMARK  Name = 
REMARK  9 active torsions:
REMARK  status: ('A' for Active; 'I' for Inactive)
REMARK    1  A    between atoms: C_1  and  C_2
REMARK    2  A    between atoms: N_4  and  C_5
REMARK    3  A    between atoms: C_8  and  C_9
REMARK    4  A    between atoms: C_9  and  C_10
REMARK    5  A    between atoms: C_10  and  C_11
REMARK    6  A    between atoms: C_10  and  N_13
REMARK    7  A    between atoms: C_14  and  C_16
REMARK    8  A    between atoms: C_26  and  C_27
REMARK    9  A    between atoms: N_29  and  C_30
REMARK                            x       y       z     vdW  Elec       q    Type
REMARK                         _______ _______ _______ _____ _____    ______ ____
ROOT
ATOM      1  C   UNL     1       2.253   6.909  18.730  0.00  0.00    +0.000 A 
ATOM      2  C   UNL     1       1.935   7.141  20.079  0.00  0.00    +0.000 A 
ATOM      3  C   UNL     1       1.476   8.385  20.529  0.00  0.00    +0.000 A 
ATOM      4  C   UNL     1       1.305   9.433  19.625  0.00  0.00    +0.000 A 
ATOM      5  C   UNL     1       1.645   9.217  18.293  0.00  0.00    +0.000 A 
ATOM      6  F   UNL     1       1.504  10.204  17.396  0.00  0.00    +0.000 F 
ATOM      7  C   UNL     1       2.110   7.987  17.853  0.00  0.00    +0.000 A 
ENDROOT
BRANCH   1  11
ATOM      8  C   UNL     1       0.996   3.647  20.139  0.00  0.00    +0.000 C 
ATOM      9  C   UNL     1       1.754   3.382  18.830  0.00  0.00    +0.000 C 
ATOM     10  C   UNL     1       1.763   4.618  17.889  0.00  0.00    +0.000 C 
ATOM     11  N   UNL     1       2.705   5.667  18.311  0.00  0.00    +0.000 N 
ATOM     12  C   UNL     1       4.067   5.229  18.695  0.00  0.00    +0.000 C 
ATOM     13  C   UNL     1       4.947   5.100  17.452  0.00  0.00    +0.000 C 
ATOM     14  C   UNL     1       4.016   3.926  19.548  0.00  0.00    +0.000 C 
ATOM     15  N   UNL     1       3.098   2.840  19.136  0.00  0.00    +0.000 NA
ATOM     16  C   UNL     1       3.621   2.053  18.023  0.00  0.00    +0.000 C 
ENDBRANCH   1  11
BRANCH   4  17
ATOM     17  C   UNL     1       0.772  10.768  20.066  0.00  0.00    +0.000 C 
BRANCH  17  18
ATOM     18  C   UNL     1      -0.671  10.703  20.609  0.00  0.00    +0.000 C 
BRANCH  18  19
ATOM     19  N   UNL     1      -1.603  11.600  19.842  0.00  0.00    +0.000 N 
ATOM     20  C   UNL     1      -2.329  11.167  18.751  0.00  0.00    +0.000 C 
ATOM     21  O   UNL     1      -2.102  10.077  18.216  0.00  0.00    +0.000 OA
ATOM     22  H   UNL     1      -1.980  12.417  20.313  0.00  0.00    +0.000 HD
BRANCH  20  23
ATOM     23  C   UNL     1      -3.534  12.016  18.301  0.00  0.00    +0.000 C 
ATOM     24  N   UNL     1      -3.982  11.817  16.886  0.00  0.00    +0.000 NA
ATOM     25  C   UNL     1      -5.475  11.742  16.998  0.00  0.00    +0.000 C 
ATOM     26  C   UNL     1      -6.096  13.043  17.551  0.00  0.00    +0.000 C 
ATOM     27  C   UNL     1      -5.663  13.043  19.026  0.00  0.00    +0.000 C 
ATOM     28  C   UNL     1      -4.824  11.757  19.108  0.00  0.00    +0.000 C 
ATOM     29  C   UNL     1      -5.611  10.816  18.196  0.00  0.00    +0.000 C 
ATOM     30  H   UNL     1      -3.671  10.894  16.574  0.00  0.00    +0.000 HD
ENDBRANCH  20  23
ENDBRANCH  18  19
BRANCH  18  31
ATOM     31  C   UNL     1      -0.684  11.134  22.067  0.00  0.00    +0.000 C 
ATOM     32  N   UNL     1      -0.695  11.492  23.276  0.00  0.00    +0.000 NA
ENDBRANCH  18  31
ENDBRANCH  17  18
ENDBRANCH   4  17
TORSDOF 6
ENDMDL
MODEL 6
REMARK VINA RESULT:      -8.5      2.892      4.240
REMARK  Name = 
REMARK  9 active torsions:
REMARK  status: ('A' for Active; 'I' for Inactive)
REMARK    1  A    between atoms: C_1  and  C_2
REMARK    2  A    between atoms: N_4  and  C_5
REMARK    3  A    between atoms: C_8  and  C_9
REMARK    4  A    between atoms: C_9  and  C_10
REMARK    5  A    between atoms: C_10  and  C_11
REMARK    6  A    between atoms: C_10  and  N_13
REMARK    7  A    between atoms: C_14  and  C_16
REMARK    8  A    between atoms: C_26  and  C_27
REMARK    9  A    between atoms: N_29  and  C_30
REMARK                            x       y       z     vdW  Elec       q    Type
REMARK                         _______ _______ _______ _____ _____    ______ ____
ROOT
ATOM      1  C   UNL     1       2.185   6.500  19.520  0.00  0.00    +0.000 A 
ATOM      2  C   UNL     1       1.643   7.122  20.658  0.00  0.00    +0.000 A 
ATOM      3  C   UNL     1       1.260   8.469  20.655  0.00  0.00    +0.000 A 
ATOM      4  C   UNL     1       1.396   9.229  19.494  0.00  0.00    +0.000 A 
ATOM      5  C   UNL     1       1.958   8.626  18.372  0.00  0.00    +0.000 A 
ATOM      6  F   UNL     1       2.114   9.328  17.241  0.00  0.00    +0.000 F 
ATOM      7  C   UNL     1       2.346   7.294  18.382  0.00  0.00    +0.000 A 
ENDROOT
BRANCH   1  11
ATOM      8  C   UNL     1       4.452   4.909  16.966  0.00  0.00    +0.000 C 
ATOM      9  C   UNL     1       4.334   3.989  18.188  0.00  0.00    +0.000 C 
ATOM     10  C   UNL     1       3.971   4.767  19.483  0.00  0.00    +0.000 C 
ATOM     11  N   UNL     1       2.555   5.165  19.550  0.00  0.00    +0.000 N 
ATOM     12  C   UNL     1       1.552   4.132  19.202  0.00  0.00    +0.000 C 
ATOM     13  C   UNL     1       1.247   3.265  20.423  0.00  0.00    +0.000 C 
ATOM     14  C   UNL     1       2.007   3.304  17.962  0.00  0.00    +0.000 C 
ATOM     15  N   UNL     1       3.419   2.865  17.877  0.00  0.00    +0.000 NA
ATOM     16  C   UNL     1       3.698   1.703  18.715  0.00  0.00    +0.000 C 
ENDBRANCH   1  11
BRANCH   4  17
ATOM     17  C   UNL     1       0.955  10.666  19.443  0.00  0.00    +0.000 C 
BRANCH  17  18
ATOM     18  C   UNL     1       0.724  11.286  20.838  0.00  0.00    +0.000 C 
BRANCH  18  19
ATOM     19  N   UNL     1      -0.726  11.600  21.082  0.00  0.00    +0.000 N 
ATOM     20  C   UNL     1      -1.284  11.620  22.345  0.00  0.00    +0.000 C 
ATOM     21  O   UNL     1      -0.676  11.182  23.326  0.00  0.00    +0.000 OA
ATOM     22  H   UNL     1      -1.225  12.140  20.382  0.00  0.00    +0.000 HD
BRANCH  20  23
ATOM     23  C   UNL     1      -2.635  12.339  22.526  0.00  0.00    +0.000 C 
ATOM     24  N   UNL     1      -3.412  11.971  23.752  0.00  0.00    +0.000 NA
ATOM     25  C   UNL     1      -3.885  13.292  24.278  0.00  0.00    +0.000 C 
ATOM     26  C   UNL     1      -4.814  14.028  23.287  0.00  0.00    +0.000 C 
ATOM     27  C   UNL     1      -3.862  14.453  22.159  0.00  0.00    +0.000 C 
ATOM     28  C   UNL     1      -2.521  13.874  22.641  0.00  0.00    +0.000 C 
ATOM     29  C   UNL     1      -2.609  14.108  24.150  0.00  0.00    +0.000 C 
ATOM     30  H   UNL     1      -2.762  11.600  24.450  0.00  0.00    +0.000 HD
ENDBRANCH  20  23
ENDBRANCH  18  19
BRANCH  18  31
ATOM     31  C   UNL     1       1.520  12.576  20.957  0.00  0.00    +0.000 C 
ATOM     32  N   UNL     1       2.180  13.645  21.055  0.00  0.00    +0.000 NA
ENDBRANCH  18  31
ENDBRANCH  17  18
ENDBRANCH   4  17
TORSDOF 6
ENDMDL
MODEL 7
REMARK VINA RESULT:      -8.4      1.401      2.289
REMARK  Name = 
REMARK  9 active torsions:
REMARK  status: ('A' for Active; 'I' for Inactive)
REMARK    1  A    between atoms: C_1  and  C_2
REMARK    2  A    between atoms: N_4  and  C_5
REMARK    3  A    between atoms: C_8  and  C_9
REMARK    4  A    between atoms: C_9  and  C_10
REMARK    5  A    between atoms: C_10  and  C_11
REMARK    6  A    between atoms: C_10  and  N_13
REMARK    7  A    between atoms: C_14  and  C_16
REMARK    8  A    between atoms: C_26  and  C_27
REMARK    9  A    between atoms: N_29  and  C_30
REMARK                            x       y       z     vdW  Elec       q    Type
REMARK                         _______ _______ _______ _____ _____    ______ ____
ROOT
ATOM      1  C   UNL     1       2.443   5.945  19.432  0.00  0.00    +0.000 A 
ATOM      2  C   UNL     1       1.855   6.633  20.507  0.00  0.00    +0.000 A 
ATOM      3  C   UNL     1       1.535   7.994  20.431  0.00  0.00    +0.000 A 
ATOM      4  C   UNL     1       1.782   8.703  19.257  0.00  0.00    +0.000 A 
ATOM      5  C   UNL     1       2.391   8.034  18.198  0.00  0.00    +0.000 A 
ATOM      6  F   UNL     1       2.656   8.686  17.057  0.00  0.00    +0.000 F 
ATOM      7  C   UNL     1       2.718   6.688  18.281  0.00  0.00    +0.000 A 
ENDROOT
BRANCH   1  11
ATOM      8  C   UNL     1       4.418   4.056  16.838  0.00  0.00    +0.000 C 
ATOM      9  C   UNL     1       4.354   3.233  18.132  0.00  0.00    +0.000 C 
ATOM     10  C   UNL     1       4.134   4.120  19.388  0.00  0.00    +0.000 C 
ATOM     11  N   UNL     1       2.749   4.597  19.533  0.00  0.00    +0.000 N 
ATOM     12  C   UNL     1       1.673   3.598  19.343  0.00  0.00    +0.000 C 
ATOM     13  C   UNL     1       1.426   2.838  20.646  0.00  0.00    +0.000 C 
ATOM     14  C   UNL     1       1.986   2.661  18.137  0.00  0.00    +0.000 C 
ATOM     15  N   UNL     1       3.363   2.141  17.977  0.00  0.00    +0.000 NA
ATOM     16  C   UNL     1       3.653   1.028  18.876  0.00  0.00    +0.000 C 
ENDBRANCH   1  11
BRANCH   4  17
ATOM     17  C   UNL     1       1.412  10.154  19.125  0.00  0.00    +0.000 C 
BRANCH  17  18
ATOM     18  C   UNL     1       0.423  10.635  20.209  0.00  0.00    +0.000 C 
BRANCH  18  19
ATOM     19  N   UNL     1      -0.926  10.968  19.633  0.00  0.00    +0.000 N 
ATOM     20  C   UNL     1      -1.103  11.906  18.636  0.00  0.00    +0.000 C 
ATOM     21  O   UNL     1      -0.194  12.672  18.302  0.00  0.00    +0.000 OA
ATOM     22  H   UNL     1      -1.665  10.275  19.710  0.00  0.00    +0.000 HD
BRANCH  20  23
ATOM     23  C   UNL     1      -2.425  11.878  17.845  0.00  0.00    +0.000 C 
ATOM     24  N   UNL     1      -2.294  11.755  16.358  0.00  0.00    +0.000 NA
ATOM     25  C   UNL     1      -3.331  10.734  15.998  0.00  0.00    +0.000 C 
ATOM     26  C   UNL     1      -4.764  11.193  16.347  0.00  0.00    +0.000 C 
ATOM     27  C   UNL     1      -4.785  11.145  17.883  0.00  0.00    +0.000 C 
ATOM     28  C   UNL     1      -3.350  10.696  18.206  0.00  0.00    +0.000 C 
ATOM     29  C   UNL     1      -3.079   9.697  17.080  0.00  0.00    +0.000 C 
ATOM     30  H   UNL     1      -1.388  11.331  16.145  0.00  0.00    +0.000 HD
ENDBRANCH  20  23
ENDBRANCH  18  19
BRANCH  18  31
ATOM     31  C   UNL     1       0.976  11.880  20.884  0.00  0.00    +0.000 C 
ATOM     32  N   UNL     1       1.434  12.912  21.443  0.00  0.00    +0.000 NA
ENDBRANCH  18  31
ENDBRANCH  17  18
ENDBRANCH   4  17
TORSDOF 6
ENDMDL
MODEL 8
REMARK VINA RESULT:      -8.3      1.098      1.122
REMARK  Name = 
REMARK  9 active torsions:
REMARK  status: ('A' for Active; 'I' for Inactive)
REMARK    1  A    between atoms: C_1  and  C_2
REMARK    2  A    between atoms: N_4  and  C_5
REMARK    3  A    between atoms: C_8  and  C_9
REMARK    4  A    between atoms: C_9  and  C_10
REMARK    5  A    between atoms: C_10  and  C_11
REMARK    6  A    between atoms: C_10  and  N_13
REMARK    7  A    between atoms: C_14  and  C_16
REMARK    8  A    between atoms: C_26  and  C_27
REMARK    9  A    between atoms: N_29  and  C_30
REMARK                            x       y       z     vdW  Elec       q    Type
REMARK                         _______ _______ _______ _____ _____    ______ ____
ROOT
ATOM      1  C   UNL     1       2.660   6.124  18.918  0.00  0.00    +0.000 A 
ATOM      2  C   UNL     1       2.623   7.207  18.023  0.00  0.00    +0.000 A 
ATOM      3  C   UNL     1       2.132   8.464  18.398  0.00  0.00    +0.000 A 
ATOM      4  C   UNL     1       1.679   8.674  19.699  0.00  0.00    +0.000 A 
ATOM      5  C   UNL     1       1.686   7.598  20.583  0.00  0.00    +0.000 A 
ATOM      6  F   UNL     1       1.247   7.759  21.839  0.00  0.00    +0.000 F 
ATOM      7  C   UNL     1       2.162   6.351  20.204  0.00  0.00    +0.000 A 
ENDROOT
BRANCH   1  11
ATOM      8  C   UNL     1       0.810   2.882  19.431  0.00  0.00    +0.000 C 
ATOM      9  C   UNL     1       1.945   2.669  18.419  0.00  0.00    +0.000 C 
ATOM     10  C   UNL     1       2.343   3.982  17.691  0.00  0.00    +0.000 C 
ATOM     11  N   UNL     1       3.151   4.891  18.522  0.00  0.00    +0.000 N 
ATOM     12  C   UNL     1       4.276   4.288  19.273  0.00  0.00    +0.000 C 
ATOM     13  C   UNL     1       5.512   4.192  18.379  0.00  0.00    +0.000 C 
ATOM     14  C   UNL     1       3.864   2.920  19.898  0.00  0.00    +0.000 C 
ATOM     15  N   UNL     1       3.074   1.973  19.080  0.00  0.00    +0.000 NA
ATOM     16  C   UNL     1       3.892   1.248  18.112  0.00  0.00    +0.000 C 
ENDBRANCH   1  11
BRANCH   4  17
ATOM     17  C   UNL     1       1.186  10.022  20.148  0.00  0.00    +0.000 C 
BRANCH  17  18
ATOM     18  C   UNL     1      -0.287  10.012  20.611  0.00  0.00    +0.000 C 
BRANCH  18  19
ATOM     19  N   UNL     1      -1.161  10.861  19.731  0.00  0.00    +0.000 N 
ATOM     20  C   UNL     1      -1.366  10.588  18.392  0.00  0.00    +0.000 C 
ATOM     21  O   UNL     1      -0.682   9.753  17.793  0.00  0.00    +0.000 OA
ATOM     22  H   UNL     1      -1.882  11.425  20.170  0.00  0.00    +0.000 HD
BRANCH  20  23
ATOM     23  C   UNL     1      -2.569  11.251  17.696  0.00  0.00    +0.000 C 
ATOM     24  N   UNL     1      -2.363  11.638  16.264  0.00  0.00    +0.000 NA
ATOM     25  C   UNL     1      -3.625  11.184  15.593  0.00  0.00    +0.000 C 
ATOM     26  C   UNL     1      -4.880  11.898  16.139  0.00  0.00    +0.000 C 
ATOM     27  C   UNL     1      -5.036  11.310  17.550  0.00  0.00    +0.000 C 
ATOM     28  C   UNL     1      -3.829  10.361  17.632  0.00  0.00    +0.000 C 
ATOM     29  C   UNL     1      -3.778   9.803  16.210  0.00  0.00    +0.000 C 
ATOM     30  H   UNL     1      -1.610  11.064  15.877  0.00  0.00    +0.000 HD
ENDBRANCH  20  23
ENDBRANCH  18  19
BRANCH  18  31
ATOM     31  C   UNL     1      -0.375  10.547  22.032  0.00  0.00    +0.000 C 
ATOM     32  N   UNL     1      -0.449  10.991  23.210  0.00  0.00    +0.000 NA
ENDBRANCH  18  31
ENDBRANCH  17  18
ENDBRANCH   4  17
TORSDOF 6
ENDMDL
MODEL 9
REMARK VINA RESULT:      -8.2      2.278      3.004
REMARK  Name = 
REMARK  9 active torsions:
REMARK  status: ('A' for Active; 'I' for Inactive)
REMARK    1  A    between atoms: C_1  and  C_2
REMARK    2  A    between atoms: N_4  and  C_5
REMARK    3  A    between atoms: C_8  and  C_9
REMARK    4  A    between atoms: C_9  and  C_10
REMARK    5  A    between atoms: C_10  and  C_11
REMARK    6  A    between atoms: C_10  and  N_13
REMARK    7  A    between atoms: C_14  and  C_16
REMARK    8  A    between atoms: C_26  and  C_27
REMARK    9  A    between atoms: N_29  and  C_30
REMARK                            x       y       z     vdW  Elec       q    Type
REMARK                         _______ _______ _______ _____ _____    ______ ____
ROOT
ATOM      1  C   UNL     1       2.292   6.596  18.789  0.00  0.00    +0.000 A 
ATOM      2  C   UNL     1       1.903   6.802  20.124  0.00  0.00    +0.000 A 
ATOM      3  C   UNL     1       1.483   8.054  20.589  0.00  0.00    +0.000 A 
ATOM      4  C   UNL     1       1.424   9.138  19.714  0.00  0.00    +0.000 A 
ATOM      5  C   UNL     1       1.836   8.947  18.398  0.00  0.00    +0.000 A 
ATOM      6  F   UNL     1       1.804   9.969  17.531  0.00  0.00    +0.000 F 
ATOM      7  C   UNL     1       2.262   7.708  17.944  0.00  0.00    +0.000 A 
ENDROOT
BRANCH   1  11
ATOM      8  C   UNL     1       0.944   3.360  20.172  0.00  0.00    +0.000 C 
ATOM      9  C   UNL     1       1.685   3.085  18.856  0.00  0.00    +0.000 C 
ATOM     10  C   UNL     1       1.727   4.330  17.928  0.00  0.00    +0.000 C 
ATOM     11  N   UNL     1       2.704   5.346  18.354  0.00  0.00    +0.000 N 
ATOM     12  C   UNL     1       4.053   4.862  18.725  0.00  0.00    +0.000 C 
ATOM     13  C   UNL     1       4.921   4.719  17.475  0.00  0.00    +0.000 C 
ATOM     14  C   UNL     1       3.968   3.552  19.565  0.00  0.00    +0.000 C 
ATOM     15  N   UNL     1       3.015   2.499  19.148  0.00  0.00    +0.000 NA
ATOM     16  C   UNL     1       3.507   1.708  18.024  0.00  0.00    +0.000 C 
ENDBRANCH   1  11
BRANCH   4  17
ATOM     17  C   UNL     1       0.937  10.486  20.169  0.00  0.00    +0.000 C 
BRANCH  17  18
ATOM     18  C   UNL     1      -0.372  10.420  20.985  0.00  0.00    +0.000 C 
BRANCH  18  19
ATOM     19  N   UNL     1      -1.099  11.737  20.991  0.00  0.00    +0.000 N 
ATOM     20  C   UNL     1      -2.086  12.052  20.078  0.00  0.00    +0.000 C 
ATOM     21  O   UNL     1      -2.286  11.355  19.079  0.00  0.00    +0.000 OA
ATOM     22  H   UNL     1      -1.131  12.263  21.859  0.00  0.00    +0.000 HD
BRANCH  20  23
ATOM     23  C   UNL     1      -3.032  13.221  20.412  0.00  0.00    +0.000 C 
ATOM     24  N   UNL     1      -4.263  13.326  19.567  0.00  0.00    +0.000 NA
ATOM     25  C   UNL     1      -5.350  13.603  20.562  0.00  0.00    +0.000 C 
ATOM     26  C   UNL     1      -5.137  14.931  21.321  0.00  0.00    +0.000 C 
ATOM     27  C   UNL     1      -3.936  14.630  22.231  0.00  0.00    +0.000 C 
ATOM     28  C   UNL     1      -3.604  13.179  21.846  0.00  0.00    +0.000 C 
ATOM     29  C   UNL     1      -4.998  12.587  21.637  0.00  0.00    +0.000 C 
ATOM     30  H   UNL     1      -4.465  12.405  19.171  0.00  0.00    +0.000 HD
ENDBRANCH  20  23
ENDBRANCH  18  19
BRANCH  18  31
ATOM     31  C   UNL     1      -0.056  10.041  22.422  0.00  0.00    +0.000 C 
ATOM     32  N   UNL     1       0.207   9.726  23.615  0.00  0.00    +0.000 NA
ENDBRANCH  18  31
ENDBRANCH  17  18
ENDBRANCH   4  17
TORSDOF 6
ENDMDL
