MODEL 1
REMARK VINA RESULT:      -6.9      0.000      0.000
REMARK  Name = 
REMARK  8 active torsions:
REMARK  status: ('A' for Active; 'I' for Inactive)
REMARK    1  A    between atoms: C_1  and  O_2
REMARK    2  A    between atoms: O_2  and  C_3
REMARK    3  A    between atoms: C_8  and  S_9
REMARK    4  A    between atoms: S_9  and  C_10
REMARK    5  A    between atoms: N_12  and  C_13
REMARK    6  A    between atoms: C_13  and  C_14
REMARK    7  A    between atoms: C_14  and  C_15
REMARK    8  A    between atoms: C_14  and  C_16
REMARK                            x       y       z     vdW  Elec       q    Type
REMARK                         _______ _______ _______ _____ _____    ______ ____
ROOT
ATOM      1  C   UNL     1       5.923   3.526  12.541  0.00  0.00    +0.000 A 
ATOM      2  C   UNL     1       7.121   4.215  12.433  0.00  0.00    +0.000 A 
ATOM      3  C   UNL     1       7.603   4.922  13.530  0.00  0.00    +0.000 A 
ATOM      4  C   UNL     1       6.916   4.944  14.728  0.00  0.00    +0.000 A 
ATOM      5  N   UNL     1       7.445   5.628  15.754  0.00  0.00    +0.000 NA
ATOM      6  C   UNL     1       6.772   5.627  16.918  0.00  0.00    +0.000 A 
ATOM      7  C   UNL     1       5.538   4.914  17.076  0.00  0.00    +0.000 A 
ATOM      8  N   UNL     1       4.803   4.942  18.261  0.00  0.00    +0.000 N 
ATOM      9  N   UNL     1       4.998   4.254  16.010  0.00  0.00    +0.000 NA
ATOM     10  C   UNL     1       5.684   4.256  14.854  0.00  0.00    +0.000 A 
ATOM     11  C   UNL     1       5.208   3.569  13.739  0.00  0.00    +0.000 A 
ATOM     12  H   UNL     1       4.225   5.778  18.230  0.00  0.00    +0.000 HD
ENDROOT
BRANCH   1  14
ATOM     13  C   UNL     1       4.014   3.194  11.217  0.00  0.00    +0.000 C 
ATOM     14  O   UNL     1       5.357   2.816  11.515  0.00  0.00    +0.000 OA
ENDBRANCH   1  14
BRANCH   6  15
ATOM     15  S   UNL     1       7.608   6.540  18.232  0.00  0.00    +0.000 S 
ATOM     16  C   UNL     1       7.743   8.265  17.557  0.00  0.00    +0.000 C 
ENDBRANCH   6  15
BRANCH   8  17
ATOM     17  C   UNL     1       3.954   3.787  18.587  0.00  0.00    +0.000 C 
BRANCH  17  18
ATOM     18  C   UNL     1       2.533   4.315  18.904  0.00  0.00    +0.000 C 
ATOM     19  C   UNL     1       1.625   4.330  17.666  0.00  0.00    +0.000 C 
ATOM     20  C   UNL     1       1.862   3.490  20.001  0.00  0.00    +0.000 C 
ENDBRANCH  17  18
ENDBRANCH   8  17
TORSDOF 4
ENDMDL
MODEL 2
REMARK VINA RESULT:      -6.8      0.939      1.032
REMARK  Name = 
REMARK  8 active torsions:
REMARK  status: ('A' for Active; 'I' for Inactive)
REMARK    1  A    between atoms: C_1  and  O_2
REMARK    2  A    between atoms: O_2  and  C_3
REMARK    3  A    between atoms: C_8  and  S_9
REMARK    4  A    between atoms: S_9  and  C_10
REMARK    5  A    between atoms: N_12  and  C_13
REMARK    6  A    between atoms: C_13  and  C_14
REMARK    7  A    between atoms: C_14  and  C_15
REMARK    8  A    between atoms: C_14  and  C_16
REMARK                            x       y       z     vdW  Elec       q    Type
REMARK                         _______ _______ _______ _____ _____    ______ ____
ROOT
ATOM      1  C   UNL     1       5.920   3.353  12.431  0.00  0.00    +0.000 A 
ATOM      2  C   UNL     1       7.123   4.020  12.261  0.00  0.00    +0.000 A 
ATOM      3  C   UNL     1       7.600   4.840  13.279  0.00  0.00    +0.000 A 
ATOM      4  C   UNL     1       6.902   4.996  14.460  0.00  0.00    +0.000 A 
ATOM      5  N   UNL     1       7.425   5.785  15.411  0.00  0.00    +0.000 NA
ATOM      6  C   UNL     1       6.741   5.914  16.561  0.00  0.00    +0.000 A 
ATOM      7  C   UNL     1       5.501   5.228  16.784  0.00  0.00    +0.000 A 
ATOM      8  N   UNL     1       4.755   5.389  17.951  0.00  0.00    +0.000 N 
ATOM      9  N   UNL     1       4.968   4.459  15.791  0.00  0.00    +0.000 NA
ATOM     10  C   UNL     1       5.664   4.331  14.648  0.00  0.00    +0.000 A 
ATOM     11  C   UNL     1       5.194   3.530  13.610  0.00  0.00    +0.000 A 
ATOM     12  H   UNL     1       4.182   6.220  17.824  0.00  0.00    +0.000 HD
ENDROOT
BRANCH   1  14
ATOM     13  C   UNL     1       6.110   1.353  11.219  0.00  0.00    +0.000 C 
ATOM     14  O   UNL     1       5.360   2.538  11.483  0.00  0.00    +0.000 OA
ENDBRANCH   1  14
BRANCH   6  15
ATOM     15  S   UNL     1       7.570   6.960  17.777  0.00  0.00    +0.000 S 
ATOM     16  C   UNL     1       7.916   5.807  19.192  0.00  0.00    +0.000 C 
ENDBRANCH   6  15
BRANCH   8  17
ATOM     17  C   UNL     1       3.897   4.280  18.393  0.00  0.00    +0.000 C 
BRANCH  17  18
ATOM     18  C   UNL     1       2.466   4.840  18.599  0.00  0.00    +0.000 C 
ATOM     19  C   UNL     1       1.449   4.212  17.636  0.00  0.00    +0.000 C 
ATOM     20  C   UNL     1       1.986   4.629  20.034  0.00  0.00    +0.000 C 
ENDBRANCH  17  18
ENDBRANCH   8  17
TORSDOF 4
ENDMDL
MODEL 3
REMARK VINA RESULT:      -6.7      0.986      1.324
REMARK  Name = 
REMARK  8 active torsions:
REMARK  status: ('A' for Active; 'I' for Inactive)
REMARK    1  A    between atoms: C_1  and  O_2
REMARK    2  A    between atoms: O_2  and  C_3
REMARK    3  A    between atoms: C_8  and  S_9
REMARK    4  A    between atoms: S_9  and  C_10
REMARK    5  A    between atoms: N_12  and  C_13
REMARK    6  A    between atoms: C_13  and  C_14
REMARK    7  A    between atoms: C_14  and  C_15
REMARK    8  A    between atoms: C_14  and  C_16
REMARK                            x       y       z     vdW  Elec       q    Type
REMARK                         _______ _______ _______ _____ _____    ______ ____
ROOT
ATOM      1  C   UNL     1       5.956   3.499  12.489  0.00  0.00    +0.000 A 
ATOM      2  C   UNL     1       7.204   4.090  12.361  0.00  0.00    +0.000 A 
ATOM      3  C   UNL     1       7.700   4.870  13.402  0.00  0.00    +0.000 A 
ATOM      4  C   UNL     1       6.978   5.058  14.564  0.00  0.00    +0.000 A 
ATOM      5  N   UNL     1       7.521   5.804  15.538  0.00  0.00    +0.000 NA
ATOM      6  C   UNL     1       6.813   5.966  16.669  0.00  0.00    +0.000 A 
ATOM      7  C   UNL     1       5.527   5.358  16.848  0.00  0.00    +0.000 A 
ATOM      8  N   UNL     1       4.758   5.555  17.995  0.00  0.00    +0.000 N 
ATOM      9  N   UNL     1       4.976   4.633  15.831  0.00  0.00    +0.000 NA
ATOM     10  C   UNL     1       5.697   4.472  14.708  0.00  0.00    +0.000 A 
ATOM     11  C   UNL     1       5.208   3.710  13.648  0.00  0.00    +0.000 A 
ATOM     12  H   UNL     1       4.243   6.421  17.860  0.00  0.00    +0.000 HD
ENDROOT
BRANCH   1  14
ATOM     13  C   UNL     1       4.019   3.075  11.235  0.00  0.00    +0.000 C 
ATOM     14  O   UNL     1       5.375   2.729  11.516  0.00  0.00    +0.000 OA
ENDBRANCH   1  14
BRANCH   6  15
ATOM     15  S   UNL     1       7.669   6.947  17.919  0.00  0.00    +0.000 S 
ATOM     16  C   UNL     1       7.895   5.764  19.333  0.00  0.00    +0.000 C 
ENDBRANCH   6  15
BRANCH   8  17
ATOM     17  C   UNL     1       3.819   4.498  18.399  0.00  0.00    +0.000 C 
BRANCH  17  18
ATOM     18  C   UNL     1       2.467   5.172  18.747  0.00  0.00    +0.000 C 
ATOM     19  C   UNL     1       2.193   5.186  20.257  0.00  0.00    +0.000 C 
ATOM     20  C   UNL     1       2.405   6.604  18.219  0.00  0.00    +0.000 C 
ENDBRANCH  17  18
ENDBRANCH   8  17
TORSDOF 4
ENDMDL
MODEL 4
REMARK VINA RESULT:      -6.6      2.850      6.178
REMARK  Name = 
REMARK  8 active torsions:
REMARK  status: ('A' for Active; 'I' for Inactive)
REMARK    1  A    between atoms: C_1  and  O_2
REMARK    2  A    between atoms: O_2  and  C_3
REMARK    3  A    between atoms: C_8  and  S_9
REMARK    4  A    between atoms: S_9  and  C_10
REMARK    5  A    between atoms: N_12  and  C_13
REMARK    6  A    between atoms: C_13  and  C_14
REMARK    7  A    between atoms: C_14  and  C_15
REMARK    8  A    between atoms: C_14  and  C_16
REMARK                            x       y       z     vdW  Elec       q    Type
REMARK                         _______ _______ _______ _____ _____    ______ ____
ROOT
ATOM      1  C   UNL     1       1.829   3.661  19.189  0.00  0.00    +0.000 A 
ATOM      2  C   UNL     1       1.978   2.502  18.442  0.00  0.00    +0.000 A 
ATOM      3  C   UNL     1       2.898   2.476  17.398  0.00  0.00    +0.000 A 
ATOM      4  C   UNL     1       3.673   3.578  17.097  0.00  0.00    +0.000 A 
ATOM      5  N   UNL     1       4.556   3.482  16.092  0.00  0.00    +0.000 NA
ATOM      6  C   UNL     1       5.314   4.559  15.821  0.00  0.00    +0.000 A 
ATOM      7  C   UNL     1       5.203   5.771  16.580  0.00  0.00    +0.000 A 
ATOM      8  N   UNL     1       5.946   6.912  16.281  0.00  0.00    +0.000 N 
ATOM      9  N   UNL     1       4.273   5.861  17.575  0.00  0.00    +0.000 NA
ATOM     10  C   UNL     1       3.527   4.775  17.841  0.00  0.00    +0.000 A 
ATOM     11  C   UNL     1       2.587   4.789  18.870  0.00  0.00    +0.000 A 
ATOM     12  H   UNL     1       5.440   7.413  15.555  0.00  0.00    +0.000 HD
ENDROOT
BRANCH   1  14
ATOM     13  C   UNL     1       1.258   3.000  21.366  0.00  0.00    +0.000 C 
ATOM     14  O   UNL     1       0.940   3.792  20.223  0.00  0.00    +0.000 OA
ENDBRANCH   1  14
BRANCH   6  15
ATOM     15  S   UNL     1       6.495   4.288  14.482  0.00  0.00    +0.000 S 
ATOM     16  C   UNL     1       5.446   3.647  13.090  0.00  0.00    +0.000 C 
ENDBRANCH   6  15
BRANCH   8  17
ATOM     17  C   UNL     1       6.265   7.846  17.371  0.00  0.00    +0.000 C 
BRANCH  17  18
ATOM     18  C   UNL     1       7.780   7.723  17.676  0.00  0.00    +0.000 C 
ATOM     19  C   UNL     1       8.386   9.043  18.168  0.00  0.00    +0.000 C 
ATOM     20  C   UNL     1       8.053   6.634  18.711  0.00  0.00    +0.000 C 
ENDBRANCH  17  18
ENDBRANCH   8  17
TORSDOF 4
ENDMDL
MODEL 5
REMARK VINA RESULT:      -6.5      3.642      5.353
REMARK  Name = 
REMARK  8 active torsions:
REMARK  status: ('A' for Active; 'I' for Inactive)
REMARK    1  A    between atoms: C_1  and  O_2
REMARK    2  A    between atoms: O_2  and  C_3
REMARK    3  A    between atoms: C_8  and  S_9
REMARK    4  A    between atoms: S_9  and  C_10
REMARK    5  A    between atoms: N_12  and  C_13
REMARK    6  A    between atoms: C_13  and  C_14
REMARK    7  A    between atoms: C_14  and  C_15
REMARK    8  A    between atoms: C_14  and  C_16
REMARK                            x       y       z     vdW  Elec       q    Type
REMARK                         _______ _______ _______ _____ _____    ______ ____
ROOT
ATOM      1  C   UNL     1       5.611   5.309  15.991  0.00  0.00    +0.000 A 
ATOM      2  C   UNL     1       5.319   3.954  15.997  0.00  0.00    +0.000 A 
ATOM      3  C   UNL     1       4.401   3.456  16.918  0.00  0.00    +0.000 A 
ATOM      4  C   UNL     1       3.769   4.288  17.820  0.00  0.00    +0.000 A 
ATOM      5  N   UNL     1       2.879   3.749  18.669  0.00  0.00    +0.000 NA
ATOM      6  C   UNL     1       2.261   4.574  19.531  0.00  0.00    +0.000 A 
ATOM      7  C   UNL     1       2.522   5.984  19.547  0.00  0.00    +0.000 A 
ATOM      8  N   UNL     1       1.925   6.846  20.467  0.00  0.00    +0.000 N 
ATOM      9  N   UNL     1       3.457   6.507  18.701  0.00  0.00    +0.000 NA
ATOM     10  C   UNL     1       4.063   5.673  17.838  0.00  0.00    +0.000 A 
ATOM     11  C   UNL     1       4.998   6.150  16.922  0.00  0.00    +0.000 A 
ATOM     12  H   UNL     1       2.489   6.811  21.313  0.00  0.00    +0.000 HD
ENDROOT
BRANCH   1  14
ATOM     13  C   UNL     1       7.037   5.002  14.154  0.00  0.00    +0.000 C 
ATOM     14  O   UNL     1       6.510   5.891  15.138  0.00  0.00    +0.000 OA
ENDBRANCH   1  14
BRANCH   6  15
ATOM     15  S   UNL     1       1.055   3.740  20.584  0.00  0.00    +0.000 S 
ATOM     16  C   UNL     1       2.098   2.695  21.711  0.00  0.00    +0.000 C 
ENDBRANCH   6  15
BRANCH   8  17
ATOM     17  C   UNL     1       1.726   8.251  20.084  0.00  0.00    +0.000 C 
BRANCH  17  18
ATOM     18  C   UNL     1       0.598   8.832  20.975  0.00  0.00    +0.000 C 
ATOM     19  C   UNL     1       1.087   9.172  22.389  0.00  0.00    +0.000 C 
ATOM     20  C   UNL     1      -0.019  10.081  20.349  0.00  0.00    +0.000 C 
ENDBRANCH  17  18
ENDBRANCH   8  17
TORSDOF 4
ENDMDL
MODEL 6
REMARK VINA RESULT:      -6.4      4.181      7.220
REMARK  Name = 
REMARK  8 active torsions:
REMARK  status: ('A' for Active; 'I' for Inactive)
REMARK    1  A    between atoms: C_1  and  O_2
REMARK    2  A    between atoms: O_2  and  C_3
REMARK    3  A    between atoms: C_8  and  S_9
REMARK    4  A    between atoms: S_9  and  C_10
REMARK    5  A    between atoms: N_12  and  C_13
REMARK    6  A    between atoms: C_13  and  C_14
REMARK    7  A    between atoms: C_14  and  C_15
REMARK    8  A    between atoms: C_14  and  C_16
REMARK                            x       y       z     vdW  Elec       q    Type
REMARK                         _______ _______ _______ _____ _____    ______ ____
ROOT
ATOM      1  C   UNL     1       1.387   9.341  19.153  0.00  0.00    +0.000 A 
ATOM      2  C   UNL     1       1.071   8.685  20.333  0.00  0.00    +0.000 A 
ATOM      3  C   UNL     1       1.572   7.406  20.559  0.00  0.00    +0.000 A 
ATOM      4  C   UNL     1       2.386   6.782  19.635  0.00  0.00    +0.000 A 
ATOM      5  N   UNL     1       2.853   5.557  19.922  0.00  0.00    +0.000 NA
ATOM      6  C   UNL     1       3.656   4.968  19.019  0.00  0.00    +0.000 A 
ATOM      7  C   UNL     1       4.021   5.619  17.794  0.00  0.00    +0.000 A 
ATOM      8  N   UNL     1       4.814   5.003  16.826  0.00  0.00    +0.000 N 
ATOM      9  N   UNL     1       3.507   6.849  17.505  0.00  0.00    +0.000 NA
ATOM     10  C   UNL     1       2.711   7.431  18.419  0.00  0.00    +0.000 A 
ATOM     11  C   UNL     1       2.185   8.703  18.202  0.00  0.00    +0.000 A 
ATOM     12  H   UNL     1       4.193   4.440  16.250  0.00  0.00    +0.000 HD
ENDROOT
BRANCH   1  14
ATOM     13  C   UNL     1      -0.467  10.775  19.049  0.00  0.00    +0.000 C 
ATOM     14  O   UNL     1       0.931  10.592  18.831  0.00  0.00    +0.000 OA
ENDBRANCH   1  14
BRANCH   6  15
ATOM     15  S   UNL     1       4.257   3.347  19.540  0.00  0.00    +0.000 S 
ATOM     16  C   UNL     1       3.204   2.155  18.581  0.00  0.00    +0.000 C 
ENDBRANCH   6  15
BRANCH   8  17
ATOM     17  C   UNL     1       5.638   5.851  15.952  0.00  0.00    +0.000 C 
BRANCH  17  18
ATOM     18  C   UNL     1       7.082   5.852  16.514  0.00  0.00    +0.000 C 
ATOM     19  C   UNL     1       7.344   7.041  17.449  0.00  0.00    +0.000 C 
ATOM     20  C   UNL     1       7.391   4.556  17.261  0.00  0.00    +0.000 C 
ENDBRANCH  17  18
ENDBRANCH   8  17
TORSDOF 4
ENDMDL
MODEL 7
REMARK VINA RESULT:      -6.3      0.809      1.295
REMARK  Name = 
REMARK  8 active torsions:
REMARK  status: ('A' for Active; 'I' for Inactive)
REMARK    1  A    between atoms: C_1  and  O_2
REMARK    2  A    between atoms: O_2  and  C_3
REMARK    3  A    between atoms: C_8  and  S_9
REMARK    4  A    between atoms: S_9  and  C_10
REMARK    5  A    between atoms: N_12  and  C_13
REMARK    6  A    between atoms: C_13  and  C_14
REMARK    7  A    between atoms: C_14  and  C_15
REMARK    8  A    between atoms: C_14  and  C_16
REMARK                            x       y       z     vdW  Elec       q    Type
REMARK                         _______ _______ _______ _____ _____    ______ ____
ROOT
ATOM      1  C   UNL     1       5.855   3.564  12.445  0.00  0.00    +0.000 A 
ATOM      2  C   UNL     1       7.143   4.076  12.427  0.00  0.00    +0.000 A 
ATOM      3  C   UNL     1       7.631   4.736  13.551  0.00  0.00    +0.000 A 
ATOM      4  C   UNL     1       6.862   4.882  14.688  0.00  0.00    +0.000 A 
ATOM      5  N   UNL     1       7.399   5.510  15.745  0.00  0.00    +0.000 NA
ATOM      6  C   UNL     1       6.642   5.631  16.849  0.00  0.00    +0.000 A 
ATOM      7  C   UNL     1       5.311   5.101  16.915  0.00  0.00    +0.000 A 
ATOM      8  N   UNL     1       4.496   5.260  18.036  0.00  0.00    +0.000 N 
ATOM      9  N   UNL     1       4.770   4.497  15.817  0.00  0.00    +0.000 NA
ATOM     10  C   UNL     1       5.539   4.375  14.721  0.00  0.00    +0.000 A 
ATOM     11  C   UNL     1       5.061   3.735  13.580  0.00  0.00    +0.000 A 
ATOM     12  H   UNL     1       4.046   6.167  17.948  0.00  0.00    +0.000 HD
ENDROOT
BRANCH   1  14
ATOM     13  C   UNL     1       3.893   3.209  11.208  0.00  0.00    +0.000 C 
ATOM     14  O   UNL     1       5.278   2.915  11.385  0.00  0.00    +0.000 OA
ENDBRANCH   1  14
BRANCH   6  15
ATOM     15  S   UNL     1       7.492   6.450  18.216  0.00  0.00    +0.000 S 
ATOM     16  C   UNL     1       7.757   8.181  17.599  0.00  0.00    +0.000 C 
ENDBRANCH   6  15
BRANCH   8  17
ATOM     17  C   UNL     1       3.470   4.242  18.306  0.00  0.00    +0.000 C 
BRANCH  17  18
ATOM     18  C   UNL     1       4.194   2.921  18.668  0.00  0.00    +0.000 C 
ATOM     19  C   UNL     1       4.306   2.712  20.184  0.00  0.00    +0.000 C 
ATOM     20  C   UNL     1       3.492   1.713  18.051  0.00  0.00    +0.000 C 
ENDBRANCH  17  18
ENDBRANCH   8  17
TORSDOF 4
ENDMDL
MODEL 8
REMARK VINA RESULT:      -6.3      4.183      7.307
REMARK  Name = 
REMARK  8 active torsions:
REMARK  status: ('A' for Active; 'I' for Inactive)
REMARK    1  A    between atoms: C_1  and  O_2
REMARK    2  A    between atoms: O_2  and  C_3
REMARK    3  A    between atoms: C_8  and  S_9
REMARK    4  A    between atoms: S_9  and  C_10
REMARK    5  A    between atoms: N_12  and  C_13
REMARK    6  A    between atoms: C_13  and  C_14
REMARK    7  A    between atoms: C_14  and  C_15
REMARK    8  A    between atoms: C_14  and  C_16
REMARK                            x       y       z     vdW  Elec       q    Type
REMARK                         _______ _______ _______ _____ _____    ______ ____
ROOT
ATOM      1  C   UNL     1       1.286   9.084  19.645  0.00  0.00    +0.000 A 
ATOM      2  C   UNL     1       1.069   8.351  20.802  0.00  0.00    +0.000 A 
ATOM      3  C   UNL     1       1.587   7.063  20.902  0.00  0.00    +0.000 A 
ATOM      4  C   UNL     1       2.320   6.503  19.875  0.00  0.00    +0.000 A 
ATOM      5  N   UNL     1       2.809   5.265  20.041  0.00  0.00    +0.000 NA
ATOM      6  C   UNL     1       3.535   4.740  19.039  0.00  0.00    +0.000 A 
ATOM      7  C   UNL     1       3.796   5.471  17.833  0.00  0.00    +0.000 A 
ATOM      8  N   UNL     1       4.506   4.923  16.764  0.00  0.00    +0.000 N 
ATOM      9  N   UNL     1       3.260   6.715  17.668  0.00  0.00    +0.000 NA
ATOM     10  C   UNL     1       2.543   7.232  18.680  0.00  0.00    +0.000 A 
ATOM     11  C   UNL     1       2.001   8.513  18.591  0.00  0.00    +0.000 A 
ATOM     12  H   UNL     1       3.839   4.395  16.206  0.00  0.00    +0.000 HD
ENDROOT
BRANCH   1  14
ATOM     13  C   UNL     1       1.612  11.148  18.579  0.00  0.00    +0.000 C 
ATOM     14  O   UNL     1       0.805  10.351  19.444  0.00  0.00    +0.000 OA
ENDBRANCH   1  14
BRANCH   6  15
ATOM     15  S   UNL     1       4.176   3.092  19.402  0.00  0.00    +0.000 S 
ATOM     16  C   UNL     1       3.066   1.961  18.433  0.00  0.00    +0.000 C 
ENDBRANCH   6  15
BRANCH   8  17
ATOM     17  C   UNL     1       5.254   5.830  15.881  0.00  0.00    +0.000 C 
BRANCH  17  18
ATOM     18  C   UNL     1       6.595   5.143  15.521  0.00  0.00    +0.000 C 
ATOM     19  C   UNL     1       7.300   4.555  16.751  0.00  0.00    +0.000 C 
ATOM     20  C   UNL     1       6.395   4.036  14.488  0.00  0.00    +0.000 C 
ENDBRANCH  17  18
ENDBRANCH   8  17
TORSDOF 4
ENDMDL
MODEL 9
REMARK VINA RESULT:      -6.3      3.743      5.759
REMARK  Name = 
REMARK  8 active torsions:
REMARK  status: ('A' for Active; 'I' for Inactive)
REMARK    1  A    between atoms: C_1  and  O_2
REMARK    2  A    between atoms: O_2  and  C_3
REMARK    3  A    between atoms: C_8  and  S_9
REMARK    4  A    between atoms: S_9  and  C_10
REMARK    5  A    between atoms: N_12  and  C_13
REMARK    6  A    between atoms: C_13  and  C_14
REMARK    7  A    between atoms: C_14  and  C_15
REMARK    8  A    between atoms: C_14  and  C_16
REMARK                            x       y       z     vdW  Elec       q    Type
REMARK                         _______ _______ _______ _____ _____    ______ ____
ROOT
ATOM      1  C   UNL     1       6.256   5.620  16.840  0.00  0.00    +0.000 A 
ATOM      2  C   UNL     1       5.940   4.304  16.539  0.00  0.00    +0.000 A 
ATOM      3  C   UNL     1       4.842   3.707  17.152  0.00  0.00    +0.000 A 
ATOM      4  C   UNL     1       4.056   4.402  18.049  0.00  0.00    +0.000 A 
ATOM      5  N   UNL     1       3.000   3.776  18.590  0.00  0.00    +0.000 NA
ATOM      6  C   UNL     1       2.235   4.472  19.449  0.00  0.00    +0.000 A 
ATOM      7  C   UNL     1       2.516   5.839  19.775  0.00  0.00    +0.000 A 
ATOM      8  N   UNL     1       1.761   6.560  20.700  0.00  0.00    +0.000 N 
ATOM      9  N   UNL     1       3.616   6.447  19.242  0.00  0.00    +0.000 NA
ATOM     10  C   UNL     1       4.369   5.744  18.378  0.00  0.00    +0.000 A 
ATOM     11  C   UNL     1       5.482   6.319  17.769  0.00  0.00    +0.000 A 
ATOM     12  H   UNL     1       2.138   6.345  21.620  0.00  0.00    +0.000 HD
ENDROOT
BRANCH   1  14
ATOM     13  C   UNL     1       7.671   7.484  17.003  0.00  0.00    +0.000 C 
ATOM     14  O   UNL     1       7.323   6.290  16.303  0.00  0.00    +0.000 OA
ENDBRANCH   1  14
BRANCH   6  15
ATOM     15  S   UNL     1       0.820   3.537  20.071  0.00  0.00    +0.000 S 
ATOM     16  C   UNL     1       1.496   2.644  21.553  0.00  0.00    +0.000 C 
ENDBRANCH   6  15
BRANCH   8  17
ATOM     17  C   UNL     1       1.674   8.020  20.549  0.00  0.00    +0.000 C 
BRANCH  17  18
ATOM     18  C   UNL     1       0.469   8.514  21.389  0.00  0.00    +0.000 C 
ATOM     19  C   UNL     1       0.905   9.171  22.705  0.00  0.00    +0.000 C 
ATOM     20  C   UNL     1      -0.391   9.501  20.603  0.00  0.00    +0.000 C 
ENDBRANCH  17  18
ENDBRANCH   8  17
TORSDOF 4
ENDMDL
