MODEL 1
REMARK VINA RESULT:      -8.0      0.000      0.000
REMARK  Name = 
REMARK  4 active torsions:
REMARK  status: ('A' for Active; 'I' for Inactive)
REMARK    1  A    between atoms: C_2  and  C_17
REMARK    2  A    between atoms: N_3  and  N_4
REMARK    3  A    between atoms: C_5  and  C_6
REMARK    4  A    between atoms: C_7  and  O_8
REMARK                            x       y       z     vdW  Elec       q    Type
REMARK                         _______ _______ _______ _____ _____    ______ ____
ROOT
ATOM      1  N   UNL     1       7.736   7.723  17.468  0.00  0.00    +0.000 NA
ATOM      2  C   UNL     1       7.361   6.591  17.977  0.00  0.00    +0.000 C 
ENDROOT
BRANCH   2   3
ATOM      3  C   UNL     1       6.414   5.705  17.245  0.00  0.00    +0.000 A 
ATOM      4  C   UNL     1       6.691   5.355  15.910  0.00  0.00    +0.000 A 
ATOM      5  C   UNL     1       5.818   4.550  15.189  0.00  0.00    +0.000 A 
ATOM      6  C   UNL     1       4.646   4.093  15.783  0.00  0.00    +0.000 A 
ATOM      7  C   UNL     1       4.336   4.424  17.109  0.00  0.00    +0.000 A 
ATOM      8  C   UNL     1       3.137   3.953  17.669  0.00  0.00    +0.000 A 
ATOM      9  C   UNL     1       2.789   4.253  18.982  0.00  0.00    +0.000 A 
ATOM     10  C   UNL     1       3.639   5.026  19.756  0.00  0.00    +0.000 A 
ATOM     11  C   UNL     1       4.835   5.507  19.213  0.00  0.00    +0.000 A 
ATOM     12  C   UNL     1       5.221   5.232  17.875  0.00  0.00    +0.000 A 
BRANCH   4  13
ATOM     13  O   UNL     1       7.799   5.769  15.218  0.00  0.00    +0.000 OA
ATOM     14  H   UNL     1       7.630   6.666  14.849  0.00  0.00    +0.000 HD
ENDBRANCH   4  13
ENDBRANCH   2   3
BRANCH   1  17
ATOM     15  O   UNL     1       7.749  10.430  17.238  0.00  0.00    +0.000 OA
ATOM     16  C   UNL     1       8.517   9.873  18.023  0.00  0.00    +0.000 C 
ATOM     17  N   UNL     1       8.580   8.499  18.205  0.00  0.00    +0.000 N 
ATOM     18  H   UNL     1       9.127   8.082  18.950  0.00  0.00    +0.000 HD
BRANCH  16  19
ATOM     19  C   UNL     1       9.422  10.714  18.850  0.00  0.00    +0.000 A 
ATOM     20  C   UNL     1       9.252  10.671  20.243  0.00  0.00    +0.000 A 
ATOM     21  C   UNL     1      10.008  11.494  21.077  0.00  0.00    +0.000 A 
ATOM     22  C   UNL     1      10.933  12.376  20.522  0.00  0.00    +0.000 A 
ATOM     23  C   UNL     1      11.103  12.420  19.136  0.00  0.00    +0.000 A 
ATOM     24 BR   UNL     1      12.333  13.650  18.394  0.00  0.00    +0.000 Br
ATOM     25  C   UNL     1      10.359  11.591  18.292  0.00  0.00    +0.000 A 
ENDBRANCH  16  19
ENDBRANCH   1  17
TORSDOF 4
ENDMDL
MODEL 2
REMARK VINA RESULT:      -7.9      1.242      1.242
REMARK  Name = 
REMARK  4 active torsions:
REMARK  status: ('A' for Active; 'I' for Inactive)
REMARK    1  A    between atoms: C_2  and  C_17
REMARK    2  A    between atoms: N_3  and  N_4
REMARK    3  A    between atoms: C_5  and  C_6
REMARK    4  A    between atoms: C_7  and  O_8
REMARK                            x       y       z     vdW  Elec       q    Type
REMARK                         _______ _______ _______ _____ _____    ______ ____
ROOT
ATOM      1  N   UNL     1       7.561   7.577  17.046  0.00  0.00    +0.000 NA
ATOM      2  C   UNL     1       6.285   7.378  17.161  0.00  0.00    +0.000 C 
ENDROOT
BRANCH   2   3
ATOM      3  C   UNL     1       5.685   6.065  16.795  0.00  0.00    +0.000 A 
ATOM      4  C   UNL     1       6.332   5.253  15.844  0.00  0.00    +0.000 A 
ATOM      5  C   UNL     1       5.788   4.033  15.462  0.00  0.00    +0.000 A 
ATOM      6  C   UNL     1       4.582   3.610  16.010  0.00  0.00    +0.000 A 
ATOM      7  C   UNL     1       3.908   4.393  16.957  0.00  0.00    +0.000 A 
ATOM      8  C   UNL     1       2.687   3.936  17.479  0.00  0.00    +0.000 A 
ATOM      9  C   UNL     1       1.984   4.677  18.423  0.00  0.00    +0.000 A 
ATOM     10  C   UNL     1       2.497   5.887  18.863  0.00  0.00    +0.000 A 
ATOM     11  C   UNL     1       3.711   6.359  18.352  0.00  0.00    +0.000 A 
ATOM     12  C   UNL     1       4.452   5.638  17.379  0.00  0.00    +0.000 A 
BRANCH   4  13
ATOM     13  O   UNL     1       7.507   5.582  15.221  0.00  0.00    +0.000 OA
ATOM     14  H   UNL     1       7.841   4.796  14.730  0.00  0.00    +0.000 HD
ENDBRANCH   4  13
ENDBRANCH   2   3
BRANCH   1  17
ATOM     15  O   UNL     1       8.918   8.022  19.358  0.00  0.00    +0.000 OA
ATOM     16  C   UNL     1       8.723   8.946  18.569  0.00  0.00    +0.000 C 
ATOM     17  N   UNL     1       8.040   8.812  17.369  0.00  0.00    +0.000 N 
ATOM     18  H   UNL     1       8.011   9.558  16.683  0.00  0.00    +0.000 HD
BRANCH  16  19
ATOM     19  C   UNL     1       9.265  10.290  18.899  0.00  0.00    +0.000 A 
ATOM     20  C   UNL     1       9.149  10.726  20.229  0.00  0.00    +0.000 A 
ATOM     21  C   UNL     1       9.559  12.008  20.594  0.00  0.00    +0.000 A 
ATOM     22  C   UNL     1      10.079  12.869  19.629  0.00  0.00    +0.000 A 
ATOM     23  C   UNL     1      10.194  12.435  18.306  0.00  0.00    +0.000 A 
ATOM     24 BR   UNL     1      10.863  13.627  16.999  0.00  0.00    +0.000 Br
ATOM     25  C   UNL     1       9.797  11.149  17.931  0.00  0.00    +0.000 A 
ENDBRANCH  16  19
ENDBRANCH   1  17
TORSDOF 4
ENDMDL
MODEL 3
REMARK VINA RESULT:      -7.8      1.525      1.827
REMARK  Name = 
REMARK  4 active torsions:
REMARK  status: ('A' for Active; 'I' for Inactive)
REMARK    1  A    between atoms: C_2  and  C_17
REMARK    2  A    between atoms: N_3  and  N_4
REMARK    3  A    between atoms: C_5  and  C_6
REMARK    4  A    between atoms: C_7  and  O_8
REMARK                            x       y       z     vdW  Elec       q    Type
REMARK                         _______ _______ _______ _____ _____    ______ ____
ROOT
ATOM      1  N   UNL     1       7.477   7.574  17.081  0.00  0.00    +0.000 NA
ATOM      2  C   UNL     1       6.199   7.359  17.093  0.00  0.00    +0.000 C 
ENDROOT
BRANCH   2   3
ATOM      3  C   UNL     1       5.652   6.008  16.788  0.00  0.00    +0.000 A 
ATOM      4  C   UNL     1       6.355   5.164  15.906  0.00  0.00    +0.000 A 
ATOM      5  C   UNL     1       5.863   3.906  15.580  0.00  0.00    +0.000 A 
ATOM      6  C   UNL     1       4.653   3.476  16.115  0.00  0.00    +0.000 A 
ATOM      7  C   UNL     1       3.925   4.290  16.993  0.00  0.00    +0.000 A 
ATOM      8  C   UNL     1       2.702   3.824  17.503  0.00  0.00    +0.000 A 
ATOM      9  C   UNL     1       1.946   4.596  18.379  0.00  0.00    +0.000 A 
ATOM     10  C   UNL     1       2.406   5.845  18.762  0.00  0.00    +0.000 A 
ATOM     11  C   UNL     1       3.620   6.327  18.262  0.00  0.00    +0.000 A 
ATOM     12  C   UNL     1       4.415   5.575  17.358  0.00  0.00    +0.000 A 
BRANCH   4  13
ATOM     13  O   UNL     1       7.539   5.495  15.302  0.00  0.00    +0.000 OA
ATOM     14  H   UNL     1       7.703   6.458  15.423  0.00  0.00    +0.000 HD
ENDBRANCH   4  13
ENDBRANCH   2   3
BRANCH   1  17
ATOM     15  O   UNL     1       8.950   8.158  19.289  0.00  0.00    +0.000 OA
ATOM     16  C   UNL     1       8.656   9.047  18.490  0.00  0.00    +0.000 C 
ATOM     17  N   UNL     1       7.909   8.842  17.339  0.00  0.00    +0.000 N 
ATOM     18  H   UNL     1       7.796   9.564  16.636  0.00  0.00    +0.000 HD
BRANCH  16  19
ATOM     19  C   UNL     1       9.145  10.427  18.748  0.00  0.00    +0.000 A 
ATOM     20  C   UNL     1       9.844  11.070  17.715  0.00  0.00    +0.000 A 
ATOM     21  C   UNL     1      10.405  12.331  17.914  0.00  0.00    +0.000 A 
ATOM     22  C   UNL     1      10.278  12.955  19.154  0.00  0.00    +0.000 A 
ATOM     23  C   UNL     1       9.582  12.316  20.182  0.00  0.00    +0.000 A 
ATOM     24 BR   UNL     1       9.452  13.157  21.872  0.00  0.00    +0.000 Br
ATOM     25  C   UNL     1       9.007  11.057  19.990  0.00  0.00    +0.000 A 
ENDBRANCH  16  19
ENDBRANCH   1  17
TORSDOF 4
ENDMDL
MODEL 4
REMARK VINA RESULT:      -7.8      1.651      1.796
REMARK  Name = 
REMARK  4 active torsions:
REMARK  status: ('A' for Active; 'I' for Inactive)
REMARK    1  A    between atoms: C_2  and  C_17
REMARK    2  A    between atoms: N_3  and  N_4
REMARK    3  A    between atoms: C_5  and  C_6
REMARK    4  A    between atoms: C_7  and  O_8
REMARK                            x       y       z     vdW  Elec       q    Type
REMARK                         _______ _______ _______ _____ _____    ______ ____
ROOT
ATOM      1  N   UNL     1       7.442   7.745  17.147  0.00  0.00    +0.000 NA
ATOM      2  C   UNL     1       6.190   7.510  16.909  0.00  0.00    +0.000 C 
ENDROOT
BRANCH   2   3
ATOM      3  C   UNL     1       5.697   6.115  16.734  0.00  0.00    +0.000 A 
ATOM      4  C   UNL     1       6.456   5.209  15.969  0.00  0.00    +0.000 A 
ATOM      5  C   UNL     1       6.016   3.907  15.764  0.00  0.00    +0.000 A 
ATOM      6  C   UNL     1       4.803   3.493  16.305  0.00  0.00    +0.000 A 
ATOM      7  C   UNL     1       4.020   4.368  17.068  0.00  0.00    +0.000 A 
ATOM      8  C   UNL     1       2.796   3.915  17.588  0.00  0.00    +0.000 A 
ATOM      9  C   UNL     1       1.987   4.748  18.354  0.00  0.00    +0.000 A 
ATOM     10  C   UNL     1       2.393   6.046  18.616  0.00  0.00    +0.000 A 
ATOM     11  C   UNL     1       3.607   6.515  18.104  0.00  0.00    +0.000 A 
ATOM     12  C   UNL     1       4.456   5.701  17.309  0.00  0.00    +0.000 A 
BRANCH   4  13
ATOM     13  O   UNL     1       7.648   5.516  15.368  0.00  0.00    +0.000 OA
ATOM     14  H   UNL     1       8.246   5.929  16.033  0.00  0.00    +0.000 HD
ENDBRANCH   4  13
ENDBRANCH   2   3
BRANCH   1  17
ATOM     15  O   UNL     1       9.010   8.582  19.202  0.00  0.00    +0.000 OA
ATOM     16  C   UNL     1       8.632   9.383  18.348  0.00  0.00    +0.000 C 
ATOM     17  N   UNL     1       7.831   9.046  17.266  0.00  0.00    +0.000 N 
ATOM     18  H   UNL     1       7.647   9.698  16.512  0.00  0.00    +0.000 HD
BRANCH  16  19
ATOM     19  C   UNL     1       9.073  10.799  18.455  0.00  0.00    +0.000 A 
ATOM     20  C   UNL     1      10.296  11.048  19.097  0.00  0.00    +0.000 A 
ATOM     21  C   UNL     1      10.733  12.356  19.309  0.00  0.00    +0.000 A 
ATOM     22  C   UNL     1       9.944  13.425  18.888  0.00  0.00    +0.000 A 
ATOM     23  C   UNL     1       8.727  13.177  18.249  0.00  0.00    +0.000 A 
ATOM     24 BR   UNL     1       7.647  14.637  17.719  0.00  0.00    +0.000 Br
ATOM     25  C   UNL     1       8.285  11.870  18.022  0.00  0.00    +0.000 A 
ENDBRANCH  16  19
ENDBRANCH   1  17
TORSDOF 4
ENDMDL
MODEL 5
REMARK VINA RESULT:      -7.6      6.068      7.612
REMARK  Name = 
REMARK  4 active torsions:
REMARK  status: ('A' for Active; 'I' for Inactive)
REMARK    1  A    between atoms: C_2  and  C_17
REMARK    2  A    between atoms: N_3  and  N_4
REMARK    3  A    between atoms: C_5  and  C_6
REMARK    4  A    between atoms: C_7  and  O_8
REMARK                            x       y       z     vdW  Elec       q    Type
REMARK                         _______ _______ _______ _____ _____    ______ ____
ROOT
ATOM      1  N   UNL     1       2.481   6.335  20.251  0.00  0.00    +0.000 NA
ATOM      2  C   UNL     1       1.824   5.397  19.644  0.00  0.00    +0.000 C 
ENDROOT
BRANCH   2   3
ATOM      3  C   UNL     1       2.535   4.381  18.819  0.00  0.00    +0.000 A 
ATOM      4  C   UNL     1       2.281   3.014  19.041  0.00  0.00    +0.000 A 
ATOM      5  C   UNL     1       2.943   2.039  18.307  0.00  0.00    +0.000 A 
ATOM      6  C   UNL     1       3.882   2.410  17.350  0.00  0.00    +0.000 A 
ATOM      7  C   UNL     1       4.163   3.760  17.104  0.00  0.00    +0.000 A 
ATOM      8  C   UNL     1       5.126   4.093  16.137  0.00  0.00    +0.000 A 
ATOM      9  C   UNL     1       5.436   5.420  15.857  0.00  0.00    +0.000 A 
ATOM     10  C   UNL     1       4.782   6.434  16.538  0.00  0.00    +0.000 A 
ATOM     11  C   UNL     1       3.822   6.121  17.506  0.00  0.00    +0.000 A 
ATOM     12  C   UNL     1       3.486   4.780  17.829  0.00  0.00    +0.000 A 
BRANCH   4  13
ATOM     13  O   UNL     1       1.399   2.536  19.974  0.00  0.00    +0.000 OA
ATOM     14  H   UNL     1       0.942   3.295  20.402  0.00  0.00    +0.000 HD
ENDBRANCH   4  13
ENDBRANCH   2   3
BRANCH   1  17
ATOM     15  O   UNL     1       1.696   8.695  19.158  0.00  0.00    +0.000 OA
ATOM     16  C   UNL     1       1.407   8.428  20.324  0.00  0.00    +0.000 C 
ATOM     17  N   UNL     1       1.766   7.250  20.964  0.00  0.00    +0.000 N 
ATOM     18  H   UNL     1       1.402   7.004  21.877  0.00  0.00    +0.000 HD
BRANCH  16  19
ATOM     19  C   UNL     1       0.604   9.409  21.101  0.00  0.00    +0.000 A 
ATOM     20  C   UNL     1       0.393   9.138  22.462  0.00  0.00    +0.000 A 
ATOM     21  C   UNL     1      -0.420   9.969  23.234  0.00  0.00    +0.000 A 
ATOM     22  C   UNL     1      -1.037  11.071  22.646  0.00  0.00    +0.000 A 
ATOM     23  C   UNL     1      -0.827  11.341  21.291  0.00  0.00    +0.000 A 
ATOM     24 BR   UNL     1      -1.703  12.817  20.497  0.00  0.00    +0.000 Br
ATOM     25  C   UNL     1      -0.006  10.521  20.512  0.00  0.00    +0.000 A 
ENDBRANCH  16  19
ENDBRANCH   1  17
TORSDOF 4
ENDMDL
MODEL 6
REMARK VINA RESULT:      -7.6      3.030      8.969
REMARK  Name = 
REMARK  4 active torsions:
REMARK  status: ('A' for Active; 'I' for Inactive)
REMARK    1  A    between atoms: C_2  and  C_17
REMARK    2  A    between atoms: N_3  and  N_4
REMARK    3  A    between atoms: C_5  and  C_6
REMARK    4  A    between atoms: C_7  and  O_8
REMARK                            x       y       z     vdW  Elec       q    Type
REMARK                         _______ _______ _______ _____ _____    ______ ____
ROOT
ATOM      1  N   UNL     1       8.747   9.148  18.440  0.00  0.00    +0.000 NA
ATOM      2  C   UNL     1       8.739  10.430  18.250  0.00  0.00    +0.000 C 
ENDROOT
BRANCH   2   3
ATOM      3  C   UNL     1       9.659  11.319  19.014  0.00  0.00    +0.000 A 
ATOM      4  C   UNL     1       9.704  11.219  20.417  0.00  0.00    +0.000 A 
ATOM      5  C   UNL     1      10.532  12.048  21.164  0.00  0.00    +0.000 A 
ATOM      6  C   UNL     1      11.316  13.001  20.523  0.00  0.00    +0.000 A 
ATOM      7  C   UNL     1      11.295  13.132  19.128  0.00  0.00    +0.000 A 
ATOM      8  C   UNL     1      12.093  14.115  18.521  0.00  0.00    +0.000 A 
ATOM      9  C   UNL     1      12.106  14.279  17.139  0.00  0.00    +0.000 A 
ATOM     10  C   UNL     1      11.323  13.457  16.345  0.00  0.00    +0.000 A 
ATOM     11  C   UNL     1      10.519  12.475  16.933  0.00  0.00    +0.000 A 
ATOM     12  C   UNL     1      10.469  12.283  18.339  0.00  0.00    +0.000 A 
BRANCH   4  13
ATOM     13  O   UNL     1       8.957  10.337  21.152  0.00  0.00    +0.000 OA
ATOM     14  H   UNL     1       8.752  10.740  22.027  0.00  0.00    +0.000 HD
ENDBRANCH   4  13
ENDBRANCH   2   3
BRANCH   1  17
ATOM     15  O   UNL     1       8.265   6.547  19.060  0.00  0.00    +0.000 OA
ATOM     16  C   UNL     1       7.675   7.077  18.119  0.00  0.00    +0.000 C 
ATOM     17  N   UNL     1       7.859   8.397  17.731  0.00  0.00    +0.000 N 
ATOM     18  H   UNL     1       7.264   8.840  17.040  0.00  0.00    +0.000 HD
BRANCH  16  19
ATOM     19  C   UNL     1       6.684   6.273  17.356  0.00  0.00    +0.000 A 
ATOM     20  C   UNL     1       5.451   6.011  17.974  0.00  0.00    +0.000 A 
ATOM     21  C   UNL     1       4.506   5.194  17.354  0.00  0.00    +0.000 A 
ATOM     22  C   UNL     1       4.792   4.624  16.115  0.00  0.00    +0.000 A 
ATOM     23  C   UNL     1       6.018   4.886  15.499  0.00  0.00    +0.000 A 
ATOM     24 BR   UNL     1       6.409   4.073  13.836  0.00  0.00    +0.000 Br
ATOM     25  C   UNL     1       6.968   5.711  16.107  0.00  0.00    +0.000 A 
ENDBRANCH  16  19
ENDBRANCH   1  17
TORSDOF 4
ENDMDL
MODEL 7
REMARK VINA RESULT:      -7.6      1.117      1.428
REMARK  Name = 
REMARK  4 active torsions:
REMARK  status: ('A' for Active; 'I' for Inactive)
REMARK    1  A    between atoms: C_2  and  C_17
REMARK    2  A    between atoms: N_3  and  N_4
REMARK    3  A    between atoms: C_5  and  C_6
REMARK    4  A    between atoms: C_7  and  O_8
REMARK                            x       y       z     vdW  Elec       q    Type
REMARK                         _______ _______ _______ _____ _____    ______ ____
ROOT
ATOM      1  N   UNL     1       7.598   7.850  17.471  0.00  0.00    +0.000 NA
ATOM      2  C   UNL     1       7.362   6.648  17.893  0.00  0.00    +0.000 C 
ENDROOT
BRANCH   2   3
ATOM      3  C   UNL     1       6.413   5.759  17.167  0.00  0.00    +0.000 A 
ATOM      4  C   UNL     1       6.693   5.394  15.836  0.00  0.00    +0.000 A 
ATOM      5  C   UNL     1       5.819   4.586  15.121  0.00  0.00    +0.000 A 
ATOM      6  C   UNL     1       4.643   4.141  15.715  0.00  0.00    +0.000 A 
ATOM      7  C   UNL     1       4.330   4.486  17.037  0.00  0.00    +0.000 A 
ATOM      8  C   UNL     1       3.127   4.026  17.597  0.00  0.00    +0.000 A 
ATOM      9  C   UNL     1       2.775   4.341  18.906  0.00  0.00    +0.000 A 
ATOM     10  C   UNL     1       3.627   5.118  19.675  0.00  0.00    +0.000 A 
ATOM     11  C   UNL     1       4.827   5.588  19.132  0.00  0.00    +0.000 A 
ATOM     12  C   UNL     1       5.216   5.298  17.798  0.00  0.00    +0.000 A 
BRANCH   4  13
ATOM     13  O   UNL     1       7.805   5.796  15.144  0.00  0.00    +0.000 OA
ATOM     14  H   UNL     1       8.085   6.681  15.473  0.00  0.00    +0.000 HD
ENDBRANCH   4  13
ENDBRANCH   2   3
BRANCH   1  17
ATOM     15  O   UNL     1       7.647  10.555  17.218  0.00  0.00    +0.000 OA
ATOM     16  C   UNL     1       8.409   9.995  18.007  0.00  0.00    +0.000 C 
ATOM     17  N   UNL     1       8.454   8.621  18.200  0.00  0.00    +0.000 N 
ATOM     18  H   UNL     1       8.995   8.203  18.948  0.00  0.00    +0.000 HD
BRANCH  16  19
ATOM     19  C   UNL     1       9.326  10.829  18.826  0.00  0.00    +0.000 A 
ATOM     20  C   UNL     1      10.664  10.917  18.412  0.00  0.00    +0.000 A 
ATOM     21  C   UNL     1      11.601  11.613  19.177  0.00  0.00    +0.000 A 
ATOM     22  C   UNL     1      11.206  12.218  20.368  0.00  0.00    +0.000 A 
ATOM     23  C   UNL     1       9.875  12.131  20.781  0.00  0.00    +0.000 A 
ATOM     24 BR   UNL     1       9.362  12.922  22.421  0.00  0.00    +0.000 Br
ATOM     25  C   UNL     1       8.926  11.446  20.017  0.00  0.00    +0.000 A 
ENDBRANCH  16  19
ENDBRANCH   1  17
TORSDOF 4
ENDMDL
MODEL 8
REMARK VINA RESULT:      -7.5      6.790      9.172
REMARK  Name = 
REMARK  4 active torsions:
REMARK  status: ('A' for Active; 'I' for Inactive)
REMARK    1  A    between atoms: C_2  and  C_17
REMARK    2  A    between atoms: N_3  and  N_4
REMARK    3  A    between atoms: C_5  and  C_6
REMARK    4  A    between atoms: C_7  and  O_8
REMARK                            x       y       z     vdW  Elec       q    Type
REMARK                         _______ _______ _______ _____ _____    ______ ____
ROOT
ATOM      1  N   UNL     1       1.513   8.953  18.890  0.00  0.00    +0.000 NA
ATOM      2  C   UNL     1       0.704   9.616  18.123  0.00  0.00    +0.000 C 
ENDROOT
BRANCH   2   3
ATOM      3  C   UNL     1      -0.252  10.602  18.698  0.00  0.00    +0.000 A 
ATOM      4  C   UNL     1       0.163  11.422  19.765  0.00  0.00    +0.000 A 
ATOM      5  C   UNL     1      -0.709  12.336  20.341  0.00  0.00    +0.000 A 
ATOM      6  C   UNL     1      -2.015  12.438  19.873  0.00  0.00    +0.000 A 
ATOM      7  C   UNL     1      -2.464  11.636  18.815  0.00  0.00    +0.000 A 
ATOM      8  C   UNL     1      -3.794  11.761  18.379  0.00  0.00    +0.000 A 
ATOM      9  C   UNL     1      -4.283  10.988  17.330  0.00  0.00    +0.000 A 
ATOM     10  C   UNL     1      -3.446  10.082  16.699  0.00  0.00    +0.000 A 
ATOM     11  C   UNL     1      -2.120   9.943  17.123  0.00  0.00    +0.000 A 
ATOM     12  C   UNL     1      -1.586  10.704  18.195  0.00  0.00    +0.000 A 
BRANCH   4  13
ATOM     13  O   UNL     1       1.414  11.388  20.322  0.00  0.00    +0.000 OA
ATOM     14  H   UNL     1       1.617  12.270  20.710  0.00  0.00    +0.000 HD
ENDBRANCH   4  13
ENDBRANCH   2   3
BRANCH   1  17
ATOM     15  O   UNL     1       2.021   6.541  20.032  0.00  0.00    +0.000 OA
ATOM     16  C   UNL     1       2.541   6.836  18.956  0.00  0.00    +0.000 C 
ATOM     17  N   UNL     1       2.340   8.043  18.302  0.00  0.00    +0.000 N 
ATOM     18  H   UNL     1       2.675   8.203  17.358  0.00  0.00    +0.000 HD
BRANCH  16  19
ATOM     19  C   UNL     1       3.424   5.840  18.294  0.00  0.00    +0.000 A 
ATOM     20  C   UNL     1       2.809   4.728  17.697  0.00  0.00    +0.000 A 
ATOM     21  C   UNL     1       3.578   3.711  17.131  0.00  0.00    +0.000 A 
ATOM     22  C   UNL     1       4.969   3.794  17.169  0.00  0.00    +0.000 A 
ATOM     23  C   UNL     1       5.580   4.900  17.763  0.00  0.00    +0.000 A 
ATOM     24 BR   UNL     1       7.468   4.980  17.842  0.00  0.00    +0.000 Br
ATOM     25  C   UNL     1       4.819   5.930  18.323  0.00  0.00    +0.000 A 
ENDBRANCH  16  19
ENDBRANCH   1  17
TORSDOF 4
ENDMDL
MODEL 9
REMARK VINA RESULT:      -7.5      6.068      7.707
REMARK  Name = 
REMARK  4 active torsions:
REMARK  status: ('A' for Active; 'I' for Inactive)
REMARK    1  A    between atoms: C_2  and  C_17
REMARK    2  A    between atoms: N_3  and  N_4
REMARK    3  A    between atoms: C_5  and  C_6
REMARK    4  A    between atoms: C_7  and  O_8
REMARK                            x       y       z     vdW  Elec       q    Type
REMARK                         _______ _______ _______ _____ _____    ______ ____
ROOT
ATOM      1  N   UNL     1       1.799   7.366  20.288  0.00  0.00    +0.000 NA
ATOM      2  C   UNL     1       2.312   7.198  19.109  0.00  0.00    +0.000 C 
ENDROOT
BRANCH   2   3
ATOM      3  C   UNL     1       2.704   5.841  18.637  0.00  0.00    +0.000 A 
ATOM      4  C   UNL     1       2.127   4.708  19.242  0.00  0.00    +0.000 A 
ATOM      5  C   UNL     1       2.486   3.427  18.843  0.00  0.00    +0.000 A 
ATOM      6  C   UNL     1       3.439   3.255  17.845  0.00  0.00    +0.000 A 
ATOM      7  C   UNL     1       4.037   4.358  17.223  0.00  0.00    +0.000 A 
ATOM      8  C   UNL     1       5.004   4.142  16.227  0.00  0.00    +0.000 A 
ATOM      9  C   UNL     1       5.622   5.207  15.580  0.00  0.00    +0.000 A 
ATOM     10  C   UNL     1       5.278   6.506  15.917  0.00  0.00    +0.000 A 
ATOM     11  C   UNL     1       4.320   6.740  16.908  0.00  0.00    +0.000 A 
ATOM     12  C   UNL     1       3.674   5.681  17.600  0.00  0.00    +0.000 A 
BRANCH   4  13
ATOM     13  O   UNL     1       1.201   4.761  20.250  0.00  0.00    +0.000 OA
ATOM     14  H   UNL     1       1.667   4.891  21.108  0.00  0.00    +0.000 HD
ENDBRANCH   4  13
ENDBRANCH   2   3
BRANCH   1  17
ATOM     15  O   UNL     1      -0.528   7.950  21.564  0.00  0.00    +0.000 OA
ATOM     16  C   UNL     1       0.281   8.844  21.316  0.00  0.00    +0.000 C 
ATOM     17  N   UNL     1       1.491   8.639  20.669  0.00  0.00    +0.000 N 
ATOM     18  H   UNL     1       2.192   9.368  20.598  0.00  0.00    +0.000 HD
BRANCH  16  19
ATOM     19  C   UNL     1      -0.033  10.230  21.752  0.00  0.00    +0.000 A 
ATOM     20  C   UNL     1      -0.934  10.384  22.817  0.00  0.00    +0.000 A 
ATOM     21  C   UNL     1      -1.341  11.654  23.226  0.00  0.00    +0.000 A 
ATOM     22  C   UNL     1      -0.856  12.781  22.563  0.00  0.00    +0.000 A 
ATOM     23  C   UNL     1       0.041  12.627  21.503  0.00  0.00    +0.000 A 
ATOM     24 BR   UNL     1       0.659  14.162  20.587  0.00  0.00    +0.000 Br
ATOM     25  C   UNL     1       0.463  11.360  21.093  0.00  0.00    +0.000 A 
ENDBRANCH  16  19
ENDBRANCH   1  17
TORSDOF 4
ENDMDL
