MODEL 1
REMARK VINA RESULT:      -8.0      0.000      0.000
REMARK  Name = 
REMARK  7 active torsions:
REMARK  status: ('A' for Active; 'I' for Inactive)
REMARK    1  A    between atoms: C_1  and  C_2
REMARK    2  A    between atoms: N_4  and  C_5
REMARK    3  A    between atoms: C_8  and  C_9
REMARK    4  A    between atoms: C_9  and  C_10
REMARK    5  A    between atoms: C_10  and  N_11
REMARK    6  A    between atoms: N_14  and  C_15
REMARK    7  A    between atoms: C_17  and  C_18
REMARK                            x       y       z     vdW  Elec       q    Type
REMARK                         _______ _______ _______ _____ _____    ______ ____
ROOT
ATOM      1  N   UNL     1       7.502   6.626  17.053  0.00  0.00    +0.000 NA
ATOM      2  C   UNL     1       7.532   5.719  18.226  0.00  0.00    +0.000 C 
ATOM      3  C   UNL     1       6.317   5.839  19.167  0.00  0.00    +0.000 C 
ATOM      4  N   UNL     1       5.047   5.746  18.441  0.00  0.00    +0.000 N 
ATOM      5  C   UNL     1       4.941   6.384  17.125  0.00  0.00    +0.000 C 
ATOM      6  C   UNL     1       6.257   6.326  16.311  0.00  0.00    +0.000 C 
ENDROOT
BRANCH   4   7
ATOM      7  C   UNL     1       4.154   4.750  18.782  0.00  0.00    +0.000 A 
ATOM      8  N   UNL     1       4.425   3.458  18.424  0.00  0.00    +0.000 NA
ATOM      9  C   UNL     1       3.569   2.440  18.713  0.00  0.00    +0.000 A 
ATOM     10  C   UNL     1       3.971   1.075  18.238  0.00  0.00    +0.000 C 
ATOM     11  C   UNL     1       2.386   2.603  19.411  0.00  0.00    +0.000 A 
ATOM     12  C   UNL     1       2.133   3.907  19.799  0.00  0.00    +0.000 A 
ATOM     13  O   UNL     1       1.044   4.317  20.506  0.00  0.00    +0.000 OA
ATOM     14  C   UNL     1       1.179   5.652  20.706  0.00  0.00    +0.000 A 
ATOM     15  C   UNL     1       2.346   6.107  20.141  0.00  0.00    +0.000 A 
ATOM     16  C   UNL     1       2.971   4.981  19.520  0.00  0.00    +0.000 A 
ENDBRANCH   4   7
BRANCH   1  17
ATOM     17  C   UNL     1       7.566   8.050  17.413  0.00  0.00    +0.000 C 
BRANCH  17  18
ATOM     18  C   UNL     1       8.595   8.379  18.506  0.00  0.00    +0.000 C 
BRANCH  18  22
ATOM     19  C   UNL     1       9.181  12.769  19.084  0.00  0.00    +0.000 C 
ATOM     20  C   UNL     1       8.641  12.214  17.756  0.00  0.00    +0.000 C 
ATOM     21  C   UNL     1       8.163  10.770  17.752  0.00  0.00    +0.000 C 
ATOM     22  C   UNL     1       9.094   9.839  18.527  0.00  0.00    +0.000 C 
ATOM     23  C   UNL     1       9.171  10.320  19.976  0.00  0.00    +0.000 C 
ATOM     24  C   UNL     1       9.697  11.742  20.105  0.00  0.00    +0.000 C 
BRANCH  19  28
ATOM     25  C   UNL     1      11.817  12.147  17.731  0.00  0.00    +0.000 C 
ATOM     26  C   UNL     1      11.403  13.547  18.075  0.00  0.00    +0.000 C 
ATOM     27  O   UNL     1      12.073  14.525  17.746  0.00  0.00    +0.000 OA
ATOM     28  N   UNL     1      10.247  13.732  18.771  0.00  0.00    +0.000 N 
ATOM     29  H   UNL     1      10.025  14.718  18.858  0.00  0.00    +0.000 HD
ENDBRANCH  19  28
ENDBRANCH  18  22
ENDBRANCH  17  18
ENDBRANCH   1  17
TORSDOF 5
ENDMDL
MODEL 2
REMARK VINA RESULT:      -7.7      1.536      1.963
REMARK  Name = 
REMARK  7 active torsions:
REMARK  status: ('A' for Active; 'I' for Inactive)
REMARK    1  A    between atoms: C_1  and  C_2
REMARK    2  A    between atoms: N_4  and  C_5
REMARK    3  A    between atoms: C_8  and  C_9
REMARK    4  A    between atoms: C_9  and  C_10
REMARK    5  A    between atoms: C_10  and  N_11
REMARK    6  A    between atoms: N_14  and  C_15
REMARK    7  A    between atoms: C_17  and  C_18
REMARK                            x       y       z     vdW  Elec       q    Type
REMARK                         _______ _______ _______ _____ _____    ______ ____
ROOT
ATOM      1  N   UNL     1       7.694   6.777  17.364  0.00  0.00    +0.000 NA
ATOM      2  C   UNL     1       7.829   5.823  18.491  0.00  0.00    +0.000 C 
ATOM      3  C   UNL     1       6.596   5.732  19.412  0.00  0.00    +0.000 C 
ATOM      4  N   UNL     1       5.360   5.509  18.655  0.00  0.00    +0.000 N 
ATOM      5  C   UNL     1       5.188   6.195  17.371  0.00  0.00    +0.000 C 
ATOM      6  C   UNL     1       6.511   6.354  16.582  0.00  0.00    +0.000 C 
ENDROOT
BRANCH   4   7
ATOM      7  C   UNL     1       4.602   4.387  18.928  0.00  0.00    +0.000 A 
ATOM      8  N   UNL     1       5.152   3.373  19.662  0.00  0.00    +0.000 NA
ATOM      9  C   UNL     1       4.460   2.234  19.941  0.00  0.00    +0.000 A 
ATOM     10  C   UNL     1       5.189   1.186  20.728  0.00  0.00    +0.000 C 
ATOM     11  C   UNL     1       3.152   2.012  19.548  0.00  0.00    +0.000 A 
ATOM     12  C   UNL     1       2.591   3.056  18.834  0.00  0.00    +0.000 A 
ATOM     13  O   UNL     1       1.318   3.080  18.353  0.00  0.00    +0.000 OA
ATOM     14  C   UNL     1       1.147   4.278  17.739  0.00  0.00    +0.000 A 
ATOM     15  C   UNL     1       2.294   5.030  17.825  0.00  0.00    +0.000 A 
ATOM     16  C   UNL     1       3.259   4.233  18.517  0.00  0.00    +0.000 A 
ENDBRANCH   4   7
BRANCH   1  17
ATOM     17  C   UNL     1       7.563   8.177  17.795  0.00  0.00    +0.000 C 
BRANCH  17  18
ATOM     18  C   UNL     1       8.741   8.690  18.639  0.00  0.00    +0.000 C 
BRANCH  18  22
ATOM     19  C   UNL     1       9.887  12.958  19.286  0.00  0.00    +0.000 C 
ATOM     20  C   UNL     1       9.381  12.093  20.452  0.00  0.00    +0.000 C 
ATOM     21  C   UNL     1       9.331  10.589  20.226  0.00  0.00    +0.000 C 
ATOM     22  C   UNL     1       8.791  10.218  18.845  0.00  0.00    +0.000 C 
ATOM     23  C   UNL     1       9.700  10.837  17.784  0.00  0.00    +0.000 C 
ATOM     24  C   UNL     1       9.780  12.354  17.877  0.00  0.00    +0.000 C 
BRANCH  19  28
ATOM     25  C   UNL     1      11.048  15.687  18.683  0.00  0.00    +0.000 C 
ATOM     26  C   UNL     1       9.591  15.482  18.971  0.00  0.00    +0.000 C 
ATOM     27  O   UNL     1       8.775  16.399  18.890  0.00  0.00    +0.000 OA
ATOM     28  N   UNL     1       9.167  14.239  19.330  0.00  0.00    +0.000 N 
ATOM     29  H   UNL     1       8.156  14.203  19.402  0.00  0.00    +0.000 HD
ENDBRANCH  19  28
ENDBRANCH  18  22
ENDBRANCH  17  18
ENDBRANCH   1  17
TORSDOF 5
ENDMDL
MODEL 3
REMARK VINA RESULT:      -7.6      1.168      1.663
REMARK  Name = 
REMARK  7 active torsions:
REMARK  status: ('A' for Active; 'I' for Inactive)
REMARK    1  A    between atoms: C_1  and  C_2
REMARK    2  A    between atoms: N_4  and  C_5
REMARK    3  A    between atoms: C_8  and  C_9
REMARK    4  A    between atoms: C_9  and  C_10
REMARK    5  A    between atoms: C_10  and  N_11
REMARK    6  A    between atoms: N_14  and  C_15
REMARK    7  A    between atoms: C_17  and  C_18
REMARK                            x       y       z     vdW  Elec       q    Type
REMARK                         _______ _______ _______ _____ _____    ______ ____
ROOT
ATOM      1  N   UNL     1       7.539   6.597  17.073  0.00  0.00    +0.000 NA
ATOM      2  C   UNL     1       7.545   5.744  18.285  0.00  0.00    +0.000 C 
ATOM      3  C   UNL     1       6.302   5.891  19.185  0.00  0.00    +0.000 C 
ATOM      4  N   UNL     1       5.055   5.749  18.428  0.00  0.00    +0.000 N 
ATOM      5  C   UNL     1       4.980   6.327  17.083  0.00  0.00    +0.000 C 
ATOM      6  C   UNL     1       6.319   6.249  16.309  0.00  0.00    +0.000 C 
ENDROOT
BRANCH   4   7
ATOM      7  C   UNL     1       4.163   4.758  18.787  0.00  0.00    +0.000 A 
ATOM      8  N   UNL     1       4.433   3.462  18.448  0.00  0.00    +0.000 NA
ATOM      9  C   UNL     1       3.579   2.448  18.756  0.00  0.00    +0.000 A 
ATOM     10  C   UNL     1       3.979   1.076  18.300  0.00  0.00    +0.000 C 
ATOM     11  C   UNL     1       2.398   2.621  19.456  0.00  0.00    +0.000 A 
ATOM     12  C   UNL     1       2.146   3.931  19.825  0.00  0.00    +0.000 A 
ATOM     13  O   UNL     1       1.060   4.351  20.530  0.00  0.00    +0.000 OA
ATOM     14  C   UNL     1       1.196   5.689  20.710  0.00  0.00    +0.000 A 
ATOM     15  C   UNL     1       2.361   6.136  20.133  0.00  0.00    +0.000 A 
ATOM     16  C   UNL     1       2.983   5.000  19.527  0.00  0.00    +0.000 A 
ENDBRANCH   4   7
BRANCH   1  17
ATOM     17  C   UNL     1       7.576   8.037  17.370  0.00  0.00    +0.000 C 
BRANCH  17  18
ATOM     18  C   UNL     1       8.587   8.429  18.460  0.00  0.00    +0.000 C 
BRANCH  18  22
ATOM     19  C   UNL     1       9.558  12.734  19.148  0.00  0.00    +0.000 C 
ATOM     20  C   UNL     1       9.699  11.704  20.280  0.00  0.00    +0.000 C 
ATOM     21  C   UNL     1       9.672  10.235  19.886  0.00  0.00    +0.000 C 
ATOM     22  C   UNL     1       8.602   9.924  18.840  0.00  0.00    +0.000 C 
ATOM     23  C   UNL     1       8.887  10.756  17.590  0.00  0.00    +0.000 C 
ATOM     24  C   UNL     1       8.880  12.254  17.855  0.00  0.00    +0.000 C 
BRANCH  19  28
ATOM     25  C   UNL     1      10.591  15.575  19.294  0.00  0.00    +0.000 C 
ATOM     26  C   UNL     1       9.189  15.211  19.683  0.00  0.00    +0.000 C 
ATOM     27  O   UNL     1       8.358  16.062  19.999  0.00  0.00    +0.000 OA
ATOM     28  N   UNL     1       8.834  13.897  19.682  0.00  0.00    +0.000 N 
ATOM     29  H   UNL     1       7.843  13.785  19.867  0.00  0.00    +0.000 HD
ENDBRANCH  19  28
ENDBRANCH  18  22
ENDBRANCH  17  18
ENDBRANCH   1  17
TORSDOF 5
ENDMDL
MODEL 4
REMARK VINA RESULT:      -7.6      6.534      9.952
REMARK  Name = 
REMARK  7 active torsions:
REMARK  status: ('A' for Active; 'I' for Inactive)
REMARK    1  A    between atoms: C_1  and  C_2
REMARK    2  A    between atoms: N_4  and  C_5
REMARK    3  A    between atoms: C_8  and  C_9
REMARK    4  A    between atoms: C_9  and  C_10
REMARK    5  A    between atoms: C_10  and  N_11
REMARK    6  A    between atoms: N_14  and  C_15
REMARK    7  A    between atoms: C_17  and  C_18
REMARK                            x       y       z     vdW  Elec       q    Type
REMARK                         _______ _______ _______ _____ _____    ______ ____
ROOT
ATOM      1  N   UNL     1       0.145  10.070  19.920  0.00  0.00    +0.000 NA
ATOM      2  C   UNL     1       0.484   9.616  18.550  0.00  0.00    +0.000 C 
ATOM      3  C   UNL     1       1.881   8.980  18.407  0.00  0.00    +0.000 C 
ATOM      4  N   UNL     1       2.110   7.927  19.402  0.00  0.00    +0.000 N 
ATOM      5  C   UNL     1       1.598   8.121  20.762  0.00  0.00    +0.000 C 
ATOM      6  C   UNL     1       0.253   8.888  20.804  0.00  0.00    +0.000 C 
ENDROOT
BRANCH   4   7
ATOM      7  C   UNL     1       2.405   6.649  18.967  0.00  0.00    +0.000 A 
ATOM      8  N   UNL     1       1.682   5.596  19.453  0.00  0.00    +0.000 NA
ATOM      9  C   UNL     1       1.944   4.314  19.078  0.00  0.00    +0.000 A 
ATOM     10  C   UNL     1       1.098   3.247  19.707  0.00  0.00    +0.000 C 
ATOM     11  C   UNL     1       2.922   3.963  18.164  0.00  0.00    +0.000 A 
ATOM     12  C   UNL     1       3.630   5.037  17.652  0.00  0.00    +0.000 A 
ATOM     13  O   UNL     1       4.628   4.950  16.731  0.00  0.00    +0.000 OA
ATOM     14  C   UNL     1       5.042   6.216  16.472  0.00  0.00    +0.000 A 
ATOM     15  C   UNL     1       4.318   7.120  17.212  0.00  0.00    +0.000 A 
ATOM     16  C   UNL     1       3.404   6.361  18.010  0.00  0.00    +0.000 A 
ENDBRANCH   4   7
BRANCH   1  17
ATOM     17  C   UNL     1       1.002  11.164  20.402  0.00  0.00    +0.000 C 
BRANCH  17  18
ATOM     18  C   UNL     1       0.275  12.508  20.569  0.00  0.00    +0.000 C 
BRANCH  18  22
ATOM     19  C   UNL     1      -3.627  13.323  22.582  0.00  0.00    +0.000 C 
ATOM     20  C   UNL     1      -2.331  13.196  23.399  0.00  0.00    +0.000 C 
ATOM     21  C   UNL     1      -1.020  13.251  22.629  0.00  0.00    +0.000 C 
ATOM     22  C   UNL     1      -1.065  12.445  21.330  0.00  0.00    +0.000 C 
ATOM     23  C   UNL     1      -2.173  13.013  20.443  0.00  0.00    +0.000 C 
ATOM     24  C   UNL     1      -3.547  12.955  21.092  0.00  0.00    +0.000 C 
BRANCH  19  28
ATOM     25  C   UNL     1      -6.264  14.310  23.694  0.00  0.00    +0.000 C 
ATOM     26  C   UNL     1      -5.902  12.856  23.663  0.00  0.00    +0.000 C 
ATOM     27  O   UNL     1      -6.693  11.979  24.008  0.00  0.00    +0.000 OA
ATOM     28  N   UNL     1      -4.657  12.504  23.239  0.00  0.00    +0.000 N 
ATOM     29  H   UNL     1      -4.564  11.496  23.170  0.00  0.00    +0.000 HD
ENDBRANCH  19  28
ENDBRANCH  18  22
ENDBRANCH  17  18
ENDBRANCH   1  17
TORSDOF 5
ENDMDL
MODEL 5
REMARK VINA RESULT:      -7.5      6.828     10.584
REMARK  Name = 
REMARK  7 active torsions:
REMARK  status: ('A' for Active; 'I' for Inactive)
REMARK    1  A    between atoms: C_1  and  C_2
REMARK    2  A    between atoms: N_4  and  C_5
REMARK    3  A    between atoms: C_8  and  C_9
REMARK    4  A    between atoms: C_9  and  C_10
REMARK    5  A    between atoms: C_10  and  N_11
REMARK    6  A    between atoms: N_14  and  C_15
REMARK    7  A    between atoms: C_17  and  C_18
REMARK                            x       y       z     vdW  Elec       q    Type
REMARK                         _______ _______ _______ _____ _____    ______ ____
ROOT
ATOM      1  N   UNL     1      -0.766  10.322  19.645  0.00  0.00    +0.000 NA
ATOM      2  C   UNL     1      -0.353   9.861  18.298  0.00  0.00    +0.000 C 
ATOM      3  C   UNL     1       1.168   9.687  18.114  0.00  0.00    +0.000 C 
ATOM      4  N   UNL     1       1.761   8.867  19.175  0.00  0.00    +0.000 N 
ATOM      5  C   UNL     1       1.266   9.027  20.546  0.00  0.00    +0.000 C 
ATOM      6  C   UNL     1      -0.251   9.331  20.616  0.00  0.00    +0.000 C 
ENDROOT
BRANCH   4   7
ATOM      7  C   UNL     1       2.433   7.711  18.830  0.00  0.00    +0.000 A 
ATOM      8  N   UNL     1       3.322   7.740  17.792  0.00  0.00    +0.000 NA
ATOM      9  C   UNL     1       3.995   6.626  17.394  0.00  0.00    +0.000 A 
ATOM     10  C   UNL     1       4.918   6.786  16.222  0.00  0.00    +0.000 C 
ATOM     11  C   UNL     1       3.874   5.392  18.008  0.00  0.00    +0.000 A 
ATOM     12  C   UNL     1       2.997   5.376  19.079  0.00  0.00    +0.000 A 
ATOM     13  O   UNL     1       2.720   4.289  19.849  0.00  0.00    +0.000 OA
ATOM     14  C   UNL     1       1.840   4.689  20.801  0.00  0.00    +0.000 A 
ATOM     15  C   UNL     1       1.551   6.025  20.657  0.00  0.00    +0.000 A 
ATOM     16  C   UNL     1       2.281   6.484  19.517  0.00  0.00    +0.000 A 
ENDBRANCH   4   7
BRANCH   1  17
ATOM     17  C   UNL     1      -0.287  11.673  19.974  0.00  0.00    +0.000 C 
BRANCH  17  18
ATOM     18  C   UNL     1      -0.458  12.061  21.451  0.00  0.00    +0.000 C 
BRANCH  18  22
ATOM     19  C   UNL     1      -4.591  13.095  22.792  0.00  0.00    +0.000 C 
ATOM     20  C   UNL     1      -3.468  12.857  23.814  0.00  0.00    +0.000 C 
ATOM     21  C   UNL     1      -2.042  12.840  23.284  0.00  0.00    +0.000 C 
ATOM     22  C   UNL     1      -1.912  12.073  21.968  0.00  0.00    +0.000 C 
ATOM     23  C   UNL     1      -2.809  12.738  20.925  0.00  0.00    +0.000 C 
ATOM     24  C   UNL     1      -4.277  12.759  21.325  0.00  0.00    +0.000 C 
BRANCH  19  28
ATOM     25  C   UNL     1      -7.141  14.245  23.949  0.00  0.00    +0.000 C 
ATOM     26  C   UNL     1      -6.982  12.783  23.656  0.00  0.00    +0.000 C 
ATOM     27  O   UNL     1      -7.910  11.986  23.790  0.00  0.00    +0.000 OA
ATOM     28  N   UNL     1      -5.770  12.332  23.231  0.00  0.00    +0.000 N 
ATOM     29  H   UNL     1      -5.812  11.351  22.974  0.00  0.00    +0.000 HD
ENDBRANCH  19  28
ENDBRANCH  18  22
ENDBRANCH  17  18
ENDBRANCH   1  17
TORSDOF 5
ENDMDL
MODEL 6
REMARK VINA RESULT:      -7.4      6.261      9.808
REMARK  Name = 
REMARK  7 active torsions:
REMARK  status: ('A' for Active; 'I' for Inactive)
REMARK    1  A    between atoms: C_1  and  C_2
REMARK    2  A    between atoms: N_4  and  C_5
REMARK    3  A    between atoms: C_8  and  C_9
REMARK    4  A    between atoms: C_9  and  C_10
REMARK    5  A    between atoms: C_10  and  N_11
REMARK    6  A    between atoms: N_14  and  C_15
REMARK    7  A    between atoms: C_17  and  C_18
REMARK                            x       y       z     vdW  Elec       q    Type
REMARK                         _______ _______ _______ _____ _____    ______ ____
ROOT
ATOM      1  N   UNL     1       0.102   9.995  19.448  0.00  0.00    +0.000 NA
ATOM      2  C   UNL     1       0.478   9.476  18.111  0.00  0.00    +0.000 C 
ATOM      3  C   UNL     1       1.933   8.980  17.997  0.00  0.00    +0.000 C 
ATOM      4  N   UNL     1       2.278   8.035  19.064  0.00  0.00    +0.000 N 
ATOM      5  C   UNL     1       1.757   8.277  20.413  0.00  0.00    +0.000 C 
ATOM      6  C   UNL     1       0.339   8.901  20.417  0.00  0.00    +0.000 C 
ENDROOT
BRANCH   4   7
ATOM      7  C   UNL     1       2.703   6.766  18.722  0.00  0.00    +0.000 A 
ATOM      8  N   UNL     1       3.619   6.617  17.718  0.00  0.00    +0.000 NA
ATOM      9  C   UNL     1       4.056   5.390  17.324  0.00  0.00    +0.000 A 
ATOM     10  C   UNL     1       5.038   5.363  16.190  0.00  0.00    +0.000 C 
ATOM     11  C   UNL     1       3.652   4.203  17.909  0.00  0.00    +0.000 A 
ATOM     12  C   UNL     1       2.749   4.363  18.947  0.00  0.00    +0.000 A 
ATOM     13  O   UNL     1       2.218   3.351  19.686  0.00  0.00    +0.000 OA
ATOM     14  C   UNL     1       1.405   3.918  20.612  0.00  0.00    +0.000 A 
ATOM     15  C   UNL     1       1.411   5.287  20.483  0.00  0.00    +0.000 A 
ATOM     16  C   UNL     1       2.268   5.593  19.380  0.00  0.00    +0.000 A 
ENDBRANCH   4   7
BRANCH   1  17
ATOM     17  C   UNL     1       0.842  11.206  19.835  0.00  0.00    +0.000 C 
BRANCH  17  18
ATOM     18  C   UNL     1       0.446  11.776  21.207  0.00  0.00    +0.000 C 
BRANCH  18  22
ATOM     19  C   UNL     1      -3.737  12.950  22.238  0.00  0.00    +0.000 C 
ATOM     20  C   UNL     1      -2.862  12.187  23.246  0.00  0.00    +0.000 C 
ATOM     21  C   UNL     1      -1.371  12.119  22.954  0.00  0.00    +0.000 C 
ATOM     22  C   UNL     1      -1.070  11.848  21.480  0.00  0.00    +0.000 C 
ATOM     23  C   UNL     1      -1.676  12.975  20.644  0.00  0.00    +0.000 C 
ATOM     24  C   UNL     1      -3.184  13.099  20.812  0.00  0.00    +0.000 C 
BRANCH  19  28
ATOM     25  C   UNL     1      -6.233  13.816  23.717  0.00  0.00    +0.000 C 
ATOM     26  C   UNL     1      -6.235  12.680  22.738  0.00  0.00    +0.000 C 
ATOM     27  O   UNL     1      -7.270  12.096  22.419  0.00  0.00    +0.000 OA
ATOM     28  N   UNL     1      -5.051  12.290  22.191  0.00  0.00    +0.000 N 
ATOM     29  H   UNL     1      -5.192  11.583  21.477  0.00  0.00    +0.000 HD
ENDBRANCH  19  28
ENDBRANCH  18  22
ENDBRANCH  17  18
ENDBRANCH   1  17
TORSDOF 5
ENDMDL
MODEL 7
REMARK VINA RESULT:      -7.4      6.023      9.847
REMARK  Name = 
REMARK  7 active torsions:
REMARK  status: ('A' for Active; 'I' for Inactive)
REMARK    1  A    between atoms: C_1  and  C_2
REMARK    2  A    between atoms: N_4  and  C_5
REMARK    3  A    between atoms: C_8  and  C_9
REMARK    4  A    between atoms: C_9  and  C_10
REMARK    5  A    between atoms: C_10  and  N_11
REMARK    6  A    between atoms: N_14  and  C_15
REMARK    7  A    between atoms: C_17  and  C_18
REMARK                            x       y       z     vdW  Elec       q    Type
REMARK                         _______ _______ _______ _____ _____    ______ ____
ROOT
ATOM      1  N   UNL     1       0.404   9.381  19.949  0.00  0.00    +0.000 NA
ATOM      2  C   UNL     1      -0.005  10.428  20.916  0.00  0.00    +0.000 C 
ATOM      3  C   UNL     1       0.982  11.605  21.049  0.00  0.00    +0.000 C 
ATOM      4  N   UNL     1       1.337  12.176  19.746  0.00  0.00    +0.000 N 
ATOM      5  C   UNL     1       1.524  11.270  18.609  0.00  0.00    +0.000 C 
ATOM      6  C   UNL     1       0.573  10.048  18.639  0.00  0.00    +0.000 C 
ENDROOT
BRANCH   4   7
ATOM      7  C   UNL     1       1.080  13.512  19.509  0.00  0.00    +0.000 A 
ATOM      8  N   UNL     1      -0.076  14.064  19.986  0.00  0.00    +0.000 NA
ATOM      9  C   UNL     1      -0.392  15.369  19.762  0.00  0.00    +0.000 A 
ATOM     10  C   UNL     1      -1.705  15.843  20.313  0.00  0.00    +0.000 C 
ATOM     11  C   UNL     1       0.423  16.253  19.077  0.00  0.00    +0.000 A 
ATOM     12  C   UNL     1       1.607  15.696  18.626  0.00  0.00    +0.000 A 
ATOM     13  O   UNL     1       2.576  16.364  17.941  0.00  0.00    +0.000 OA
ATOM     14  C   UNL     1       3.578  15.480  17.706  0.00  0.00    +0.000 A 
ATOM     15  C   UNL     1       3.270  14.251  18.237  0.00  0.00    +0.000 A 
ATOM     16  C   UNL     1       1.970  14.369  18.822  0.00  0.00    +0.000 A 
ENDBRANCH   4   7
BRANCH   1  17
ATOM     17  C   UNL     1       1.633   8.673  20.339  0.00  0.00    +0.000 C 
BRANCH  17  18
ATOM     18  C   UNL     1       1.562   7.147  20.168  0.00  0.00    +0.000 C 
BRANCH  18  22
ATOM     19  C   UNL     1       4.384   5.206  17.302  0.00  0.00    +0.000 C 
ATOM     20  C   UNL     1       3.687   4.385  18.399  0.00  0.00    +0.000 C 
ATOM     21  C   UNL     1       2.509   5.037  19.108  0.00  0.00    +0.000 C 
ATOM     22  C   UNL     1       2.764   6.506  19.444  0.00  0.00    +0.000 C 
ATOM     23  C   UNL     1       3.027   7.265  18.144  0.00  0.00    +0.000 C 
ATOM     24  C   UNL     1       4.227   6.733  17.374  0.00  0.00    +0.000 C 
BRANCH  19  28
ATOM     25  C   UNL     1       6.003   4.192  14.954  0.00  0.00    +0.000 C 
ATOM     26  C   UNL     1       6.625   4.499  16.284  0.00  0.00    +0.000 C 
ATOM     27  O   UNL     1       7.841   4.439  16.465  0.00  0.00    +0.000 OA
ATOM     28  N   UNL     1       5.812   4.856  17.316  0.00  0.00    +0.000 N 
ATOM     29  H   UNL     1       6.352   5.131  18.130  0.00  0.00    +0.000 HD
ENDBRANCH  19  28
ENDBRANCH  18  22
ENDBRANCH  17  18
ENDBRANCH   1  17
TORSDOF 5
ENDMDL
MODEL 8
REMARK VINA RESULT:      -7.3      6.158      9.513
REMARK  Name = 
REMARK  7 active torsions:
REMARK  status: ('A' for Active; 'I' for Inactive)
REMARK    1  A    between atoms: C_1  and  C_2
REMARK    2  A    between atoms: N_4  and  C_5
REMARK    3  A    between atoms: C_8  and  C_9
REMARK    4  A    between atoms: C_9  and  C_10
REMARK    5  A    between atoms: C_10  and  N_11
REMARK    6  A    between atoms: N_14  and  C_15
REMARK    7  A    between atoms: C_17  and  C_18
REMARK                            x       y       z     vdW  Elec       q    Type
REMARK                         _______ _______ _______ _____ _____    ______ ____
ROOT
ATOM      1  N   UNL     1       0.486   9.803  19.435  0.00  0.00    +0.000 NA
ATOM      2  C   UNL     1       0.805   9.395  18.046  0.00  0.00    +0.000 C 
ATOM      3  C   UNL     1       2.212   8.794  17.856  0.00  0.00    +0.000 C 
ATOM      4  N   UNL     1       2.484   7.718  18.814  0.00  0.00    +0.000 N 
ATOM      5  C   UNL     1       1.997   7.862  20.190  0.00  0.00    +0.000 C 
ATOM      6  C   UNL     1       0.638   8.598  20.282  0.00  0.00    +0.000 C 
ENDROOT
BRANCH   4   7
ATOM      7  C   UNL     1       2.797   6.460  18.337  0.00  0.00    +0.000 A 
ATOM      8  N   UNL     1       1.926   5.429  18.554  0.00  0.00    +0.000 NA
ATOM      9  C   UNL     1       2.193   4.164  18.127  0.00  0.00    +0.000 A 
ATOM     10  C   UNL     1       1.171   3.117  18.456  0.00  0.00    +0.000 C 
ATOM     11  C   UNL     1       3.329   3.814  17.417  0.00  0.00    +0.000 A 
ATOM     12  C   UNL     1       4.190   4.869  17.172  0.00  0.00    +0.000 A 
ATOM     13  O   UNL     1       5.362   4.781  16.485  0.00  0.00    +0.000 OA
ATOM     14  C   UNL     1       5.893   6.029  16.441  0.00  0.00    +0.000 A 
ATOM     15  C   UNL     1       5.073   6.923  17.088  0.00  0.00    +0.000 A 
ATOM     16  C   UNL     1       3.965   6.174  17.595  0.00  0.00    +0.000 A 
ENDBRANCH   4   7
BRANCH   1  17
ATOM     17  C   UNL     1       1.330  10.900  19.932  0.00  0.00    +0.000 C 
BRANCH  17  18
ATOM     18  C   UNL     1       0.621  12.263  19.991  0.00  0.00    +0.000 C 
BRANCH  18  22
ATOM     19  C   UNL     1      -2.875  13.027  22.662  0.00  0.00    +0.000 C 
ATOM     20  C   UNL     1      -1.924  11.848  22.927  0.00  0.00    +0.000 C 
ATOM     21  C   UNL     1      -0.595  11.853  22.187  0.00  0.00    +0.000 C 
ATOM     22  C   UNL     1      -0.736  12.272  20.724  0.00  0.00    +0.000 C 
ATOM     23  C   UNL     1      -1.322  13.683  20.676  0.00  0.00    +0.000 C 
ATOM     24  C   UNL     1      -2.687  13.785  21.339  0.00  0.00    +0.000 C 
BRANCH  19  28
ATOM     25  C   UNL     1      -4.496  12.673  25.194  0.00  0.00    +0.000 C 
ATOM     26  C   UNL     1      -5.076  12.438  23.832  0.00  0.00    +0.000 C 
ATOM     27  O   UNL     1      -6.267  12.174  23.667  0.00  0.00    +0.000 OA
ATOM     28  N   UNL     1      -4.254  12.523  22.750  0.00  0.00    +0.000 N 
ATOM     29  H   UNL     1      -4.777  12.441  21.885  0.00  0.00    +0.000 HD
ENDBRANCH  19  28
ENDBRANCH  18  22
ENDBRANCH  17  18
ENDBRANCH   1  17
TORSDOF 5
ENDMDL
MODEL 9
REMARK VINA RESULT:      -7.3      6.553     10.305
REMARK  Name = 
REMARK  7 active torsions:
REMARK  status: ('A' for Active; 'I' for Inactive)
REMARK    1  A    between atoms: C_1  and  C_2
REMARK    2  A    between atoms: N_4  and  C_5
REMARK    3  A    between atoms: C_8  and  C_9
REMARK    4  A    between atoms: C_9  and  C_10
REMARK    5  A    between atoms: C_10  and  N_11
REMARK    6  A    between atoms: N_14  and  C_15
REMARK    7  A    between atoms: C_17  and  C_18
REMARK                            x       y       z     vdW  Elec       q    Type
REMARK                         _______ _______ _______ _____ _____    ______ ____
ROOT
ATOM      1  N   UNL     1       1.383  10.533  19.238  0.00  0.00    +0.000 NA
ATOM      2  C   UNL     1       0.816  11.795  18.705  0.00  0.00    +0.000 C 
ATOM      3  C   UNL     1      -0.721  11.813  18.587  0.00  0.00    +0.000 C 
ATOM      4  N   UNL     1      -1.373  11.410  19.837  0.00  0.00    +0.000 N 
ATOM      5  C   UNL     1      -0.775  10.327  20.624  0.00  0.00    +0.000 C 
ATOM      6  C   UNL     1       0.773  10.316  20.569  0.00  0.00    +0.000 C 
ENDROOT
BRANCH   4   7
ATOM      7  C   UNL     1      -2.247  12.287  20.449  0.00  0.00    +0.000 A 
ATOM      8  N   UNL     1      -3.516  12.417  19.958  0.00  0.00    +0.000 NA
ATOM      9  C   UNL     1      -4.411  13.282  20.507  0.00  0.00    +0.000 A 
ATOM     10  C   UNL     1      -5.760  13.352  19.855  0.00  0.00    +0.000 C 
ATOM     11  C   UNL     1      -4.143  14.072  21.612  0.00  0.00    +0.000 A 
ATOM     12  C   UNL     1      -2.867  13.912  22.124  0.00  0.00    +0.000 A 
ATOM     13  O   UNL     1      -2.371  14.564  23.211  0.00  0.00    +0.000 OA
ATOM     14  C   UNL     1      -1.106  14.114  23.403  0.00  0.00    +0.000 A 
ATOM     15  C   UNL     1      -0.781  13.173  22.455  0.00  0.00    +0.000 A 
ATOM     16  C   UNL     1      -1.916  13.048  21.594  0.00  0.00    +0.000 A 
ENDBRANCH   4   7
BRANCH   1  17
ATOM     17  C   UNL     1       1.154   9.373  18.363  0.00  0.00    +0.000 C 
BRANCH  17  18
ATOM     18  C   UNL     1       2.425   8.832  17.688  0.00  0.00    +0.000 C 
BRANCH  18  22
ATOM     19  C   UNL     1       3.730   4.593  18.210  0.00  0.00    +0.000 C 
ATOM     20  C   UNL     1       2.303   5.029  18.580  0.00  0.00    +0.000 C 
ATOM     21  C   UNL     1       1.841   6.386  18.071  0.00  0.00    +0.000 C 
ATOM     22  C   UNL     1       2.916   7.464  18.204  0.00  0.00    +0.000 C 
ATOM     23  C   UNL     1       4.140   7.034  17.395  0.00  0.00    +0.000 C 
ATOM     24  C   UNL     1       4.727   5.709  17.859  0.00  0.00    +0.000 C 
BRANCH  19  28
ATOM     25  C   UNL     1       3.469   1.596  18.544  0.00  0.00    +0.000 C 
ATOM     26  C   UNL     1       4.275   2.440  19.486  0.00  0.00    +0.000 C 
ATOM     27  O   UNL     1       4.944   1.947  20.393  0.00  0.00    +0.000 OA
ATOM     28  N   UNL     1       4.260   3.791  19.323  0.00  0.00    +0.000 N 
ATOM     29  H   UNL     1       4.915   4.243  19.953  0.00  0.00    +0.000 HD
ENDBRANCH  19  28
ENDBRANCH  18  22
ENDBRANCH  17  18
ENDBRANCH   1  17
TORSDOF 5
ENDMDL
