MODEL 1
REMARK VINA RESULT:      -8.7      0.000      0.000
REMARK  Name = 
REMARK  4 active torsions:
REMARK  status: ('A' for Active; 'I' for Inactive)
REMARK    1  A    between atoms: C_1  and  C_2
REMARK    2  A    between atoms: C_6  and  N_7
REMARK    3  A    between atoms: C_23  and  C_24
REMARK    4  A    between atoms: C_24  and  O_26
REMARK                            x       y       z     vdW  Elec       q    Type
REMARK                         _______ _______ _______ _____ _____    ______ ____
ROOT
ATOM      1  C   UNL     1       5.612   5.584  16.189  0.00  0.00    +0.000 C 
ATOM      2  C   UNL     1       4.505   6.190  17.055  0.00  0.00    +0.000 C 
ATOM      3  N   UNL     1       4.154   7.395  16.726  0.00  0.00    +0.000 NA
ATOM      4  O   UNL     1       3.013   7.937  17.356  0.00  0.00    +0.000 OA
ATOM      5  C   UNL     1       2.615   7.449  18.593  0.00  0.00    +0.000 A 
ATOM      6  C   UNL     1       1.725   8.279  19.414  0.00  0.00    +0.000 A 
ATOM      7  C   UNL     1       1.229   7.621  20.551  0.00  0.00    +0.000 A 
ATOM      8  F   UNL     1       0.434   8.265  21.418  0.00  0.00    +0.000 F 
ATOM      9  C   UNL     1       1.593   6.278  20.868  0.00  0.00    +0.000 A 
ATOM     10  C   UNL     1       2.489   5.557  20.058  0.00  0.00    +0.000 A 
ATOM     11  C   UNL     1       2.878   4.143  20.383  0.00  0.00    +0.000 A 
ATOM     12  O   UNL     1       2.420   3.549  21.334  0.00  0.00    +0.000 OA
ATOM     13  C   UNL     1       3.867   3.461  19.496  0.00  0.00    +0.000 A 
ATOM     14  C   UNL     1       4.322   4.162  18.444  0.00  0.00    +0.000 A 
ATOM     15  N   UNL     1       3.955   5.444  18.089  0.00  0.00    +0.000 N 
ATOM     16  C   UNL     1       3.018   6.139  18.916  0.00  0.00    +0.000 A 
ENDROOT
BRANCH   6  17
ATOM     17  N   UNL     1       1.489   9.663  19.116  0.00  0.00    +0.000 N 
ATOM     18  C   UNL     1       0.057   9.931  19.277  0.00  0.00    +0.000 C 
ATOM     19  C   UNL     1      -0.523  11.157  18.659  0.00  0.00    +0.000 C 
ATOM     20  C   UNL     1       0.385  12.323  18.730  0.00  0.00    +0.000 A 
ATOM     21  C   UNL     1      -0.187  13.559  19.059  0.00  0.00    +0.000 A 
ATOM     22  C   UNL     1       0.589  14.692  19.113  0.00  0.00    +0.000 A 
ATOM     23  C   UNL     1       1.911  14.595  18.689  0.00  0.00    +0.000 A 
ATOM     24  C   UNL     1       2.481  13.340  18.316  0.00  0.00    +0.000 A 
ATOM     25  C   UNL     1       1.748  12.137  18.441  0.00  0.00    +0.000 A 
ATOM     26  C   UNL     1       2.277  10.663  18.274  0.00  0.00    +0.000 C 
ENDBRANCH   6  17
BRANCH  13  27
ATOM     27  C   UNL     1       4.389   2.074  19.700  0.00  0.00    +0.000 C 
ATOM     28  O   UNL     1       5.096   1.760  20.651  0.00  0.00    +0.000 OA
BRANCH  27  29
ATOM     29  O   UNL     1       4.012   1.204  18.751  0.00  0.00    +0.000 OA
ATOM     30  H   UNL     1       3.401   1.600  18.075  0.00  0.00    +0.000 HD
ENDBRANCH  27  29
ENDBRANCH  13  27
TORSDOF 3
ENDMDL
MODEL 2
REMARK VINA RESULT:      -8.3      2.600      3.891
REMARK  Name = 
REMARK  4 active torsions:
REMARK  status: ('A' for Active; 'I' for Inactive)
REMARK    1  A    between atoms: C_1  and  C_2
REMARK    2  A    between atoms: C_6  and  N_7
REMARK    3  A    between atoms: C_23  and  C_24
REMARK    4  A    between atoms: C_24  and  O_26
REMARK                            x       y       z     vdW  Elec       q    Type
REMARK                         _______ _______ _______ _____ _____    ______ ____
ROOT
ATOM      1  C   UNL     1       1.666   3.857  21.127  0.00  0.00    +0.000 C 
ATOM      2  C   UNL     1       1.782   5.289  20.597  0.00  0.00    +0.000 C 
ATOM      3  N   UNL     1       1.069   6.164  21.236  0.00  0.00    +0.000 NA
ATOM      4  O   UNL     1       1.276   7.526  20.925  0.00  0.00    +0.000 OA
ATOM      5  C   UNL     1       1.796   7.876  19.687  0.00  0.00    +0.000 A 
ATOM      6  C   UNL     1       1.607   9.255  19.218  0.00  0.00    +0.000 A 
ATOM      7  C   UNL     1       2.329   9.558  18.053  0.00  0.00    +0.000 A 
ATOM      8  F   UNL     1       2.225  10.768  17.483  0.00  0.00    +0.000 F 
ATOM      9  C   UNL     1       3.144   8.590  17.393  0.00  0.00    +0.000 A 
ATOM     10  C   UNL     1       3.242   7.272  17.875  0.00  0.00    +0.000 A 
ATOM     11  C   UNL     1       4.098   6.246  17.187  0.00  0.00    +0.000 A 
ATOM     12  O   UNL     1       4.763   6.509  16.209  0.00  0.00    +0.000 OA
ATOM     13  C   UNL     1       4.115   4.859  17.738  0.00  0.00    +0.000 A 
ATOM     14  C   UNL     1       3.377   4.633  18.837  0.00  0.00    +0.000 A 
ATOM     15  N   UNL     1       2.615   5.558  19.520  0.00  0.00    +0.000 N 
ATOM     16  C   UNL     1       2.561   6.898  19.022  0.00  0.00    +0.000 A 
ENDROOT
BRANCH   6  17
ATOM     17  N   UNL     1       0.681  10.150  19.849  0.00  0.00    +0.000 N 
ATOM     18  C   UNL     1      -0.239  10.656  18.827  0.00  0.00    +0.000 C 
ATOM     19  C   UNL     1      -1.035  11.884  19.113  0.00  0.00    +0.000 C 
ATOM     20  C   UNL     1      -1.494  11.959  20.518  0.00  0.00    +0.000 A 
ATOM     21  C   UNL     1      -2.806  12.396  20.739  0.00  0.00    +0.000 A 
ATOM     22  C   UNL     1      -3.291  12.522  22.019  0.00  0.00    +0.000 A 
ATOM     23  C   UNL     1      -2.399  12.345  23.072  0.00  0.00    +0.000 A 
ATOM     24  C   UNL     1      -1.049  11.938  22.842  0.00  0.00    +0.000 A 
ATOM     25  C   UNL     1      -0.593  11.619  21.542  0.00  0.00    +0.000 A 
ATOM     26  C   UNL     1       0.782  10.967  21.136  0.00  0.00    +0.000 C 
ENDBRANCH   6  17
BRANCH  13  27
ATOM     27  C   UNL     1       4.879   3.713  17.153  0.00  0.00    +0.000 C 
ATOM     28  O   UNL     1       4.403   2.591  17.021  0.00  0.00    +0.000 OA
BRANCH  27  29
ATOM     29  O   UNL     1       6.131   4.024  16.782  0.00  0.00    +0.000 OA
ATOM     30  H   UNL     1       6.542   4.733  17.343  0.00  0.00    +0.000 HD
ENDBRANCH  27  29
ENDBRANCH  13  27
TORSDOF 3
ENDMDL
MODEL 3
REMARK VINA RESULT:      -8.1      0.881      1.086
REMARK  Name = 
REMARK  4 active torsions:
REMARK  status: ('A' for Active; 'I' for Inactive)
REMARK    1  A    between atoms: C_1  and  C_2
REMARK    2  A    between atoms: C_6  and  N_7
REMARK    3  A    between atoms: C_23  and  C_24
REMARK    4  A    between atoms: C_24  and  O_26
REMARK                            x       y       z     vdW  Elec       q    Type
REMARK                         _______ _______ _______ _____ _____    ______ ____
ROOT
ATOM      1  C   UNL     1       5.597   5.840  16.319  0.00  0.00    +0.000 C 
ATOM      2  C   UNL     1       4.479   6.337  17.238  0.00  0.00    +0.000 C 
ATOM      3  N   UNL     1       4.166   7.587  17.086  0.00  0.00    +0.000 NA
ATOM      4  O   UNL     1       3.019   8.058  17.762  0.00  0.00    +0.000 OA
ATOM      5  C   UNL     1       2.574   7.401  18.899  0.00  0.00    +0.000 A 
ATOM      6  C   UNL     1       1.679   8.122  19.814  0.00  0.00    +0.000 A 
ATOM      7  C   UNL     1       1.135   7.314  20.825  0.00  0.00    +0.000 A 
ATOM      8  F   UNL     1       0.330   7.842  21.759  0.00  0.00    +0.000 F 
ATOM      9  C   UNL     1       1.459   5.929  20.944  0.00  0.00    +0.000 A 
ATOM     10  C   UNL     1       2.362   5.315  20.058  0.00  0.00    +0.000 A 
ATOM     11  C   UNL     1       2.709   3.858  20.175  0.00  0.00    +0.000 A 
ATOM     12  O   UNL     1       2.210   3.140  21.014  0.00  0.00    +0.000 OA
ATOM     13  C   UNL     1       3.708   3.291  19.222  0.00  0.00    +0.000 A 
ATOM     14  C   UNL     1       4.209   4.129  18.299  0.00  0.00    +0.000 A 
ATOM     15  N   UNL     1       3.883   5.460  18.133  0.00  0.00    +0.000 N 
ATOM     16  C   UNL     1       2.937   6.047  19.032  0.00  0.00    +0.000 A 
ENDROOT
BRANCH   6  17
ATOM     17  N   UNL     1       1.483   9.541  19.723  0.00  0.00    +0.000 N 
ATOM     18  C   UNL     1       0.922  10.011  20.992  0.00  0.00    +0.000 C 
ATOM     19  C   UNL     1       0.258  11.344  21.040  0.00  0.00    +0.000 C 
ATOM     20  C   UNL     1       0.933  12.355  20.196  0.00  0.00    +0.000 A 
ATOM     21  C   UNL     1       1.079  13.641  20.732  0.00  0.00    +0.000 A 
ATOM     22  C   UNL     1       1.667  14.639  19.993  0.00  0.00    +0.000 A 
ATOM     23  C   UNL     1       1.971  14.370  18.662  0.00  0.00    +0.000 A 
ATOM     24  C   UNL     1       1.784  13.068  18.106  0.00  0.00    +0.000 A 
ATOM     25  C   UNL     1       1.361  11.984  18.909  0.00  0.00    +0.000 A 
ATOM     26  C   UNL     1       1.299  10.460  18.517  0.00  0.00    +0.000 C 
ENDBRANCH   6  17
BRANCH  13  27
ATOM     27  C   UNL     1       4.192   1.876  19.227  0.00  0.00    +0.000 C 
ATOM     28  O   UNL     1       3.708   1.002  18.515  0.00  0.00    +0.000 OA
BRANCH  27  29
ATOM     29  O   UNL     1       5.205   1.648  20.077  0.00  0.00    +0.000 OA
ATOM     30  H   UNL     1       5.911   2.346  20.043  0.00  0.00    +0.000 HD
ENDBRANCH  27  29
ENDBRANCH  13  27
TORSDOF 3
ENDMDL
MODEL 4
REMARK VINA RESULT:      -8.0      2.542      3.895
REMARK  Name = 
REMARK  4 active torsions:
REMARK  status: ('A' for Active; 'I' for Inactive)
REMARK    1  A    between atoms: C_1  and  C_2
REMARK    2  A    between atoms: C_6  and  N_7
REMARK    3  A    between atoms: C_23  and  C_24
REMARK    4  A    between atoms: C_24  and  O_26
REMARK                            x       y       z     vdW  Elec       q    Type
REMARK                         _______ _______ _______ _____ _____    ______ ____
ROOT
ATOM      1  C   UNL     1       2.142   3.513  20.890  0.00  0.00    +0.000 C 
ATOM      2  C   UNL     1       2.138   4.978  20.449  0.00  0.00    +0.000 C 
ATOM      3  N   UNL     1       1.377   5.757  21.155  0.00  0.00    +0.000 NA
ATOM      4  O   UNL     1       1.475   7.146  20.926  0.00  0.00    +0.000 OA
ATOM      5  C   UNL     1       1.938   7.610  19.703  0.00  0.00    +0.000 A 
ATOM      6  C   UNL     1       1.635   8.996  19.325  0.00  0.00    +0.000 A 
ATOM      7  C   UNL     1       2.306   9.424  18.168  0.00  0.00    +0.000 A 
ATOM      8  F   UNL     1       2.099  10.656  17.677  0.00  0.00    +0.000 F 
ATOM      9  C   UNL     1       3.175   8.564  17.433  0.00  0.00    +0.000 A 
ATOM     10  C   UNL     1       3.382   7.229  17.829  0.00  0.00    +0.000 A 
ATOM     11  C   UNL     1       4.295   6.316  17.063  0.00  0.00    +0.000 A 
ATOM     12  O   UNL     1       4.916   6.688  16.090  0.00  0.00    +0.000 OA
ATOM     13  C   UNL     1       4.430   4.902  17.524  0.00  0.00    +0.000 A 
ATOM     14  C   UNL     1       3.736   4.554  18.621  0.00  0.00    +0.000 A 
ATOM     15  N   UNL     1       2.923   5.376  19.375  0.00  0.00    +0.000 N 
ATOM     16  C   UNL     1       2.758   6.736  18.963  0.00  0.00    +0.000 A 
ENDROOT
BRANCH   6  17
ATOM     17  N   UNL     1       0.660   9.779  20.028  0.00  0.00    +0.000 N 
ATOM     18  C   UNL     1       0.934   9.674  21.464  0.00  0.00    +0.000 C 
ATOM     19  C   UNL     1      -0.135  10.049  22.433  0.00  0.00    +0.000 C 
ATOM     20  C   UNL     1      -0.932  11.214  21.990  0.00  0.00    +0.000 A 
ATOM     21  C   UNL     1      -1.255  12.173  22.959  0.00  0.00    +0.000 A 
ATOM     22  C   UNL     1      -2.020  13.266  22.629  0.00  0.00    +0.000 A 
ATOM     23  C   UNL     1      -2.576  13.308  21.354  0.00  0.00    +0.000 A 
ATOM     24  C   UNL     1      -2.277  12.308  20.380  0.00  0.00    +0.000 A 
ATOM     25  C   UNL     1      -1.340  11.283  20.647  0.00  0.00    +0.000 A 
ATOM     26  C   UNL     1      -0.744  10.233  19.635  0.00  0.00    +0.000 C 
ENDBRANCH   6  17
BRANCH  13  27
ATOM     27  C   UNL     1       5.263   3.856  16.854  0.00  0.00    +0.000 C 
ATOM     28  O   UNL     1       6.303   4.112  16.258  0.00  0.00    +0.000 OA
BRANCH  27  29
ATOM     29  O   UNL     1       4.772   2.612  16.967  0.00  0.00    +0.000 OA
ATOM     30  H   UNL     1       4.810   2.257  17.894  0.00  0.00    +0.000 HD
ENDBRANCH  27  29
ENDBRANCH  13  27
TORSDOF 3
ENDMDL
MODEL 5
REMARK VINA RESULT:      -8.0      1.079      1.293
REMARK  Name = 
REMARK  4 active torsions:
REMARK  status: ('A' for Active; 'I' for Inactive)
REMARK    1  A    between atoms: C_1  and  C_2
REMARK    2  A    between atoms: C_6  and  N_7
REMARK    3  A    between atoms: C_23  and  C_24
REMARK    4  A    between atoms: C_24  and  O_26
REMARK                            x       y       z     vdW  Elec       q    Type
REMARK                         _______ _______ _______ _____ _____    ______ ____
ROOT
ATOM      1  C   UNL     1       4.874   6.679  16.289  0.00  0.00    +0.000 C 
ATOM      2  C   UNL     1       3.810   7.195  17.260  0.00  0.00    +0.000 C 
ATOM      3  N   UNL     1       3.406   8.406  17.032  0.00  0.00    +0.000 NA
ATOM      4  O   UNL     1       2.294   8.872  17.767  0.00  0.00    +0.000 OA
ATOM      5  C   UNL     1       1.990   8.296  18.992  0.00  0.00    +0.000 A 
ATOM      6  C   UNL     1       1.132   9.046  19.919  0.00  0.00    +0.000 A 
ATOM      7  C   UNL     1       0.730   8.302  21.040  0.00  0.00    +0.000 A 
ATOM      8  F   UNL     1      -0.025   8.866  21.995  0.00  0.00    +0.000 F 
ATOM      9  C   UNL     1       1.149   6.954  21.247  0.00  0.00    +0.000 A 
ATOM     10  C   UNL     1       2.011   6.313  20.337  0.00  0.00    +0.000 A 
ATOM     11  C   UNL     1       2.458   4.895  20.545  0.00  0.00    +0.000 A 
ATOM     12  O   UNL     1       2.079   4.228  21.484  0.00  0.00    +0.000 OA
ATOM     13  C   UNL     1       3.405   4.301  19.556  0.00  0.00    +0.000 A 
ATOM     14  C   UNL     1       3.772   5.080  18.524  0.00  0.00    +0.000 A 
ATOM     15  N   UNL     1       3.348   6.369  18.277  0.00  0.00    +0.000 N 
ATOM     16  C   UNL     1       2.448   6.981  19.205  0.00  0.00    +0.000 A 
ENDROOT
BRANCH   6  17
ATOM     17  N   UNL     1       0.840  10.437  19.726  0.00  0.00    +0.000 N 
ATOM     18  C   UNL     1      -0.609  10.585  19.565  0.00  0.00    +0.000 C 
ATOM     19  C   UNL     1      -1.145  11.839  18.963  0.00  0.00    +0.000 C 
ATOM     20  C   UNL     1      -0.394  13.044  19.378  0.00  0.00    +0.000 A 
ATOM     21  C   UNL     1      -1.142  14.186  19.693  0.00  0.00    +0.000 A 
ATOM     22  C   UNL     1      -0.512  15.353  20.055  0.00  0.00    +0.000 A 
ATOM     23  C   UNL     1       0.875  15.400  19.956  0.00  0.00    +0.000 A 
ATOM     24  C   UNL     1       1.634  14.245  19.596  0.00  0.00    +0.000 A 
ATOM     25  C   UNL     1       1.010  12.990  19.408  0.00  0.00    +0.000 A 
ATOM     26  C   UNL     1       1.702  11.588  19.213  0.00  0.00    +0.000 C 
ENDBRANCH   6  17
BRANCH  13  27
ATOM     27  C   UNL     1       3.977   2.921  19.637  0.00  0.00    +0.000 C 
ATOM     28  O   UNL     1       3.282   1.915  19.725  0.00  0.00    +0.000 OA
BRANCH  27  29
ATOM     29  O   UNL     1       5.318   2.882  19.601  0.00  0.00    +0.000 OA
ATOM     30  H   UNL     1       5.681   2.647  18.707  0.00  0.00    +0.000 HD
ENDBRANCH  27  29
ENDBRANCH  13  27
TORSDOF 3
ENDMDL
MODEL 6
REMARK VINA RESULT:      -7.9      1.131      1.407
REMARK  Name = 
REMARK  4 active torsions:
REMARK  status: ('A' for Active; 'I' for Inactive)
REMARK    1  A    between atoms: C_1  and  C_2
REMARK    2  A    between atoms: C_6  and  N_7
REMARK    3  A    between atoms: C_23  and  C_24
REMARK    4  A    between atoms: C_24  and  O_26
REMARK                            x       y       z     vdW  Elec       q    Type
REMARK                         _______ _______ _______ _____ _____    ______ ____
ROOT
ATOM      1  C   UNL     1       5.199   6.712  16.414  0.00  0.00    +0.000 C 
ATOM      2  C   UNL     1       4.053   7.079  17.359  0.00  0.00    +0.000 C 
ATOM      3  N   UNL     1       3.593   8.283  17.213  0.00  0.00    +0.000 NA
ATOM      4  O   UNL     1       2.415   8.620  17.915  0.00  0.00    +0.000 OA
ATOM      5  C   UNL     1       2.077   7.920  19.064  0.00  0.00    +0.000 A 
ATOM      6  C   UNL     1       1.126   8.536  19.999  0.00  0.00    +0.000 A 
ATOM      7  C   UNL     1       0.705   7.674  21.024  0.00  0.00    +0.000 A 
ATOM      8  F   UNL     1      -0.134   8.108  21.977  0.00  0.00    +0.000 F 
ATOM      9  C   UNL     1       1.190   6.337  21.137  0.00  0.00    +0.000 A 
ATOM     10  C   UNL     1       2.138   5.828  20.230  0.00  0.00    +0.000 A 
ATOM     11  C   UNL     1       2.655   4.422  20.341  0.00  0.00    +0.000 A 
ATOM     12  O   UNL     1       2.263   3.654  21.193  0.00  0.00    +0.000 OA
ATOM     13  C   UNL     1       3.690   3.972  19.364  0.00  0.00    +0.000 A 
ATOM     14  C   UNL     1       4.068   4.859  18.429  0.00  0.00    +0.000 A 
ATOM     15  N   UNL     1       3.584   6.142  18.269  0.00  0.00    +0.000 N 
ATOM     16  C   UNL     1       2.598   6.618  19.189  0.00  0.00    +0.000 A 
ENDROOT
BRANCH   6  17
ATOM     17  N   UNL     1       0.764   9.921  19.911  0.00  0.00    +0.000 N 
ATOM     18  C   UNL     1       1.095  10.565  21.185  0.00  0.00    +0.000 C 
ATOM     19  C   UNL     1       0.474  11.880  21.514  0.00  0.00    +0.000 C 
ATOM     20  C   UNL     1       0.340  12.765  20.336  0.00  0.00    +0.000 A 
ATOM     21  C   UNL     1       0.653  14.118  20.514  0.00  0.00    +0.000 A 
ATOM     22  C   UNL     1       0.521  15.006  19.473  0.00  0.00    +0.000 A 
ATOM     23  C   UNL     1      -0.067  14.547  18.299  0.00  0.00    +0.000 A 
ATOM     24  C   UNL     1      -0.423  13.173  18.133  0.00  0.00    +0.000 A 
ATOM     25  C   UNL     1      -0.115  12.214  19.125  0.00  0.00    +0.000 A 
ATOM     26  C   UNL     1      -0.246  10.647  19.025  0.00  0.00    +0.000 C 
ENDBRANCH   6  17
BRANCH  13  27
ATOM     27  C   UNL     1       4.336   2.622  19.359  0.00  0.00    +0.000 C 
ATOM     28  O   UNL     1       5.070   2.231  20.259  0.00  0.00    +0.000 OA
BRANCH  27  29
ATOM     29  O   UNL     1       4.038   1.878  18.283  0.00  0.00    +0.000 OA
ATOM     30  H   UNL     1       3.571   2.388  17.569  0.00  0.00    +0.000 HD
ENDBRANCH  27  29
ENDBRANCH  13  27
TORSDOF 3
ENDMDL
MODEL 7
REMARK VINA RESULT:      -7.9      4.063      8.559
REMARK  Name = 
REMARK  4 active torsions:
REMARK  status: ('A' for Active; 'I' for Inactive)
REMARK    1  A    between atoms: C_1  and  C_2
REMARK    2  A    between atoms: C_6  and  N_7
REMARK    3  A    between atoms: C_23  and  C_24
REMARK    4  A    between atoms: C_24  and  O_26
REMARK                            x       y       z     vdW  Elec       q    Type
REMARK                         _______ _______ _______ _____ _____    ______ ____
ROOT
ATOM      1  C   UNL     1      -3.430  11.380  17.067  0.00  0.00    +0.000 C 
ATOM      2  C   UNL     1      -2.272  10.981  17.986  0.00  0.00    +0.000 C 
ATOM      3  N   UNL     1      -1.406  10.177  17.452  0.00  0.00    +0.000 NA
ATOM      4  O   UNL     1      -0.219   9.925  18.174  0.00  0.00    +0.000 OA
ATOM      5  C   UNL     1      -0.206  10.086  19.552  0.00  0.00    +0.000 A 
ATOM      6  C   UNL     1       0.858   9.426  20.320  0.00  0.00    +0.000 A 
ATOM      7  C   UNL     1       0.895   9.805  21.672  0.00  0.00    +0.000 A 
ATOM      8  F   UNL     1       1.789   9.256  22.508  0.00  0.00    +0.000 F 
ATOM      9  C   UNL     1      -0.041  10.727  22.227  0.00  0.00    +0.000 A 
ATOM     10  C   UNL     1      -1.065  11.286  21.440  0.00  0.00    +0.000 A 
ATOM     11  C   UNL     1      -2.056  12.258  22.015  0.00  0.00    +0.000 A 
ATOM     12  O   UNL     1      -2.004  12.628  23.168  0.00  0.00    +0.000 OA
ATOM     13  C   UNL     1      -3.137  12.773  21.125  0.00  0.00    +0.000 A 
ATOM     14  C   UNL     1      -3.129  12.346  19.851  0.00  0.00    +0.000 A 
ATOM     15  N   UNL     1      -2.212  11.489  19.277  0.00  0.00    +0.000 N 
ATOM     16  C   UNL     1      -1.165  10.963  20.096  0.00  0.00    +0.000 A 
ENDROOT
BRANCH   6  17
ATOM     17  N   UNL     1       1.695   8.415  19.742  0.00  0.00    +0.000 N 
ATOM     18  C   UNL     1       2.132   8.877  18.422  0.00  0.00    +0.000 C 
ATOM     19  C   UNL     1       2.670   7.884  17.450  0.00  0.00    +0.000 C 
ATOM     20  C   UNL     1       3.489   6.833  18.092  0.00  0.00    +0.000 A 
ATOM     21  C   UNL     1       4.671   6.456  17.440  0.00  0.00    +0.000 A 
ATOM     22  C   UNL     1       5.466   5.464  17.961  0.00  0.00    +0.000 A 
ATOM     23  C   UNL     1       4.988   4.757  19.060  0.00  0.00    +0.000 A 
ATOM     24  C   UNL     1       3.763   5.118  19.700  0.00  0.00    +0.000 A 
ATOM     25  C   UNL     1       3.032   6.258  19.290  0.00  0.00    +0.000 A 
ATOM     26  C   UNL     1       1.789   6.912  20.002  0.00  0.00    +0.000 C 
ENDBRANCH   6  17
BRANCH  13  27
ATOM     27  C   UNL     1      -4.222  13.713  21.547  0.00  0.00    +0.000 C 
ATOM     28  O   UNL     1      -4.560  14.685  20.882  0.00  0.00    +0.000 OA
BRANCH  27  29
ATOM     29  O   UNL     1      -4.795  13.394  22.718  0.00  0.00    +0.000 OA
ATOM     30  H   UNL     1      -4.490  12.520  23.080  0.00  0.00    +0.000 HD
ENDBRANCH  27  29
ENDBRANCH  13  27
TORSDOF 3
ENDMDL
MODEL 8
REMARK VINA RESULT:      -7.8      2.916      7.581
REMARK  Name = 
REMARK  4 active torsions:
REMARK  status: ('A' for Active; 'I' for Inactive)
REMARK    1  A    between atoms: C_1  and  C_2
REMARK    2  A    between atoms: C_6  and  N_7
REMARK    3  A    between atoms: C_23  and  C_24
REMARK    4  A    between atoms: C_24  and  O_26
REMARK                            x       y       z     vdW  Elec       q    Type
REMARK                         _______ _______ _______ _____ _____    ______ ____
ROOT
ATOM      1  C   UNL     1       1.309  12.137  17.875  0.00  0.00    +0.000 C 
ATOM      2  C   UNL     1       1.669  10.744  18.398  0.00  0.00    +0.000 C 
ATOM      3  N   UNL     1       2.542  10.104  17.683  0.00  0.00    +0.000 NA
ATOM      4  O   UNL     1       3.060   8.901  18.210  0.00  0.00    +0.000 OA
ATOM      5  C   UNL     1       2.326   8.189  19.147  0.00  0.00    +0.000 A 
ATOM      6  C   UNL     1       2.653   6.773  19.357  0.00  0.00    +0.000 A 
ATOM      7  C   UNL     1       1.989   6.197  20.451  0.00  0.00    +0.000 A 
ATOM      8  F   UNL     1       2.158   4.898  20.744  0.00  0.00    +0.000 F 
ATOM      9  C   UNL     1       1.068   6.935  21.253  0.00  0.00    +0.000 A 
ATOM     10  C   UNL     1       0.767   8.279  20.964  0.00  0.00    +0.000 A 
ATOM     11  C   UNL     1      -0.201   9.064  21.802  0.00  0.00    +0.000 A 
ATOM     12  O   UNL     1      -0.744   8.592  22.778  0.00  0.00    +0.000 OA
ATOM     13  C   UNL     1      -0.497  10.472  21.405  0.00  0.00    +0.000 A 
ATOM     14  C   UNL     1       0.152  10.949  20.330  0.00  0.00    +0.000 A 
ATOM     15  N   UNL     1       1.079  10.272  19.563  0.00  0.00    +0.000 N 
ATOM     16  C   UNL     1       1.386   8.917  19.902  0.00  0.00    +0.000 A 
ENDROOT
BRANCH   6  17
ATOM     17  N   UNL     1       3.491   6.045  18.448  0.00  0.00    +0.000 N 
ATOM     18  C   UNL     1       2.676   5.023  17.786  0.00  0.00    +0.000 C 
ATOM     19  C   UNL     1       3.355   3.885  17.105  0.00  0.00    +0.000 C 
ATOM     20  C   UNL     1       4.604   4.284  16.421  0.00  0.00    +0.000 A 
ATOM     21  C   UNL     1       4.840   3.741  15.152  0.00  0.00    +0.000 A 
ATOM     22  C   UNL     1       5.995   4.041  14.470  0.00  0.00    +0.000 A 
ATOM     23  C   UNL     1       6.972   4.773  15.138  0.00  0.00    +0.000 A 
ATOM     24  C   UNL     1       6.745   5.293  16.449  0.00  0.00    +0.000 A 
ATOM     25  C   UNL     1       5.489   5.153  17.083  0.00  0.00    +0.000 A 
ATOM     26  C   UNL     1       5.003   5.830  18.420  0.00  0.00    +0.000 C 
ENDBRANCH   6  17
BRANCH  13  27
ATOM     27  C   UNL     1      -1.462  11.376  22.105  0.00  0.00    +0.000 C 
ATOM     28  O   UNL     1      -2.283  12.065  21.509  0.00  0.00    +0.000 OA
BRANCH  27  29
ATOM     29  O   UNL     1      -1.351  11.364  23.442  0.00  0.00    +0.000 OA
ATOM     30  H   UNL     1      -1.488  10.464  23.840  0.00  0.00    +0.000 HD
ENDBRANCH  27  29
ENDBRANCH  13  27
TORSDOF 3
ENDMDL
MODEL 9
REMARK VINA RESULT:      -7.7      3.753      8.539
REMARK  Name = 
REMARK  4 active torsions:
REMARK  status: ('A' for Active; 'I' for Inactive)
REMARK    1  A    between atoms: C_1  and  C_2
REMARK    2  A    between atoms: C_6  and  N_7
REMARK    3  A    between atoms: C_23  and  C_24
REMARK    4  A    between atoms: C_24  and  O_26
REMARK                            x       y       z     vdW  Elec       q    Type
REMARK                         _______ _______ _______ _____ _____    ______ ____
ROOT
ATOM      1  C   UNL     1      -2.786  11.350  16.912  0.00  0.00    +0.000 C 
ATOM      2  C   UNL     1      -1.742  10.811  17.894  0.00  0.00    +0.000 C 
ATOM      3  N   UNL     1      -1.015   9.840  17.435  0.00  0.00    +0.000 NA
ATOM      4  O   UNL     1       0.089   9.429  18.214  0.00  0.00    +0.000 OA
ATOM      5  C   UNL     1       0.091   9.665  19.581  0.00  0.00    +0.000 A 
ATOM      6  C   UNL     1       1.002   8.877  20.421  0.00  0.00    +0.000 A 
ATOM      7  C   UNL     1       1.067   9.321  21.752  0.00  0.00    +0.000 A 
ATOM      8  F   UNL     1       1.828   8.675  22.648  0.00  0.00    +0.000 F 
ATOM      9  C   UNL     1       0.291  10.422  22.222  0.00  0.00    +0.000 A 
ATOM     10  C   UNL     1      -0.597  11.103  21.370  0.00  0.00    +0.000 A 
ATOM     11  C   UNL     1      -1.418  12.263  21.855  0.00  0.00    +0.000 A 
ATOM     12  O   UNL     1      -1.334  12.686  22.988  0.00  0.00    +0.000 OA
ATOM     13  C   UNL     1      -2.367  12.906  20.899  0.00  0.00    +0.000 A 
ATOM     14  C   UNL     1      -2.399  12.410  19.651  0.00  0.00    +0.000 A 
ATOM     15  N   UNL     1      -1.630  11.376  19.157  0.00  0.00    +0.000 N 
ATOM     16  C   UNL     1      -0.714  10.725  20.042  0.00  0.00    +0.000 A 
ENDROOT
BRANCH   6  17
ATOM     17  N   UNL     1       1.664   7.704  19.929  0.00  0.00    +0.000 N 
ATOM     18  C   UNL     1       1.241   6.560  20.742  0.00  0.00    +0.000 C 
ATOM     19  C   UNL     1       2.056   5.312  20.715  0.00  0.00    +0.000 C 
ATOM     20  C   UNL     1       2.604   5.010  19.375  0.00  0.00    +0.000 A 
ATOM     21  C   UNL     1       2.562   3.674  18.954  0.00  0.00    +0.000 A 
ATOM     22  C   UNL     1       3.082   3.313  17.735  0.00  0.00    +0.000 A 
ATOM     23  C   UNL     1       3.773   4.280  17.010  0.00  0.00    +0.000 A 
ATOM     24  C   UNL     1       3.848   5.633  17.461  0.00  0.00    +0.000 A 
ATOM     25  C   UNL     1       3.154   6.058  18.618  0.00  0.00    +0.000 A 
ATOM     26  C   UNL     1       2.959   7.532  19.138  0.00  0.00    +0.000 C 
ENDBRANCH   6  17
BRANCH  13  27
ATOM     27  C   UNL     1      -3.283  14.041  21.231  0.00  0.00    +0.000 C 
ATOM     28  O   UNL     1      -4.454  14.082  20.871  0.00  0.00    +0.000 OA
BRANCH  27  29
ATOM     29  O   UNL     1      -2.709  15.010  21.961  0.00  0.00    +0.000 OA
ATOM     30  H   UNL     1      -3.175  15.884  21.891  0.00  0.00    +0.000 HD
ENDBRANCH  27  29
ENDBRANCH  13  27
TORSDOF 3
ENDMDL
