MODEL 1
REMARK VINA RESULT:      -7.2      0.000      0.000
REMARK  Name = 
REMARK  5 active torsions:
REMARK  status: ('A' for Active; 'I' for Inactive)
REMARK    1  A    between atoms: S_2  and  N_4
REMARK    2  A    between atoms: S_2  and  C_13
REMARK    3  A    between atoms: N_4  and  C_5
REMARK    4  A    between atoms: C_5  and  C_6
REMARK    5  A    between atoms: C_6  and  N_7
REMARK                            x       y       z     vdW  Elec       q    Type
REMARK                         _______ _______ _______ _____ _____    ______ ____
ROOT
ATOM      1  O   UNL     1       2.238   3.372  16.793  0.00  0.00    +0.000 OA
ATOM      2  S   UNL     1       2.713   3.327  18.158  0.00  0.00    +0.000 S 
ATOM      3  O   UNL     1       2.285   2.300  19.072  0.00  0.00    +0.000 OA
ENDROOT
BRANCH   2   4
ATOM      4  C   UNL     1       2.366   4.911  18.874  0.00  0.00    +0.000 A 
ATOM      5  C   UNL     1       1.941   4.951  20.209  0.00  0.00    +0.000 A 
ATOM      6  C   UNL     1       1.653   6.177  20.800  0.00  0.00    +0.000 A 
ATOM      7  C   UNL     1       1.802   7.348  20.062  0.00  0.00    +0.000 A 
ATOM      8  F   UNL     1       1.522   8.518  20.654  0.00  0.00    +0.000 F 
ATOM      9  C   UNL     1       2.237   7.305  18.734  0.00  0.00    +0.000 A 
ATOM     10 CL   UNL     1       2.424   8.760  17.834  0.00  0.00    +0.000 Cl
ATOM     11  C   UNL     1       2.523   6.083  18.127  0.00  0.00    +0.000 A 
ENDBRANCH   2   4
BRANCH   2  12
ATOM     12  N   UNL     1       4.394   3.356  18.067  0.00  0.00    +0.000 NA
ATOM     13  H   UNL     1       4.716   3.719  17.170  0.00  0.00    +0.000 HD
BRANCH  12  14
ATOM     14  C   UNL     1       5.224   3.684  19.240  0.00  0.00    +0.000 C 
BRANCH  14  15
ATOM     15  C   UNL     1       5.898   5.059  19.100  0.00  0.00    +0.000 C 
BRANCH  15  16
ATOM     16  N   UNL     1       7.329   5.037  18.748  0.00  0.00    +0.000 NA
ATOM     17  C   UNL     1       7.986   6.358  18.798  0.00  0.00    +0.000 C 
ATOM     18  C   UNL     1       7.514   7.323  17.698  0.00  0.00    +0.000 C 
ATOM     19  O   UNL     1       7.722   6.760  16.397  0.00  0.00    +0.000 OA
ATOM     20  C   UNL     1       7.053   5.499  16.267  0.00  0.00    +0.000 C 
ATOM     21  C   UNL     1       7.487   4.509  17.366  0.00  0.00    +0.000 C 
ENDBRANCH  15  16
ENDBRANCH  14  15
ENDBRANCH  12  14
ENDBRANCH   2  12
TORSDOF 5
ENDMDL
MODEL 2
REMARK VINA RESULT:      -6.8      0.974      1.067
REMARK  Name = 
REMARK  5 active torsions:
REMARK  status: ('A' for Active; 'I' for Inactive)
REMARK    1  A    between atoms: S_2  and  N_4
REMARK    2  A    between atoms: S_2  and  C_13
REMARK    3  A    between atoms: N_4  and  C_5
REMARK    4  A    between atoms: C_5  and  C_6
REMARK    5  A    between atoms: C_6  and  N_7
REMARK                            x       y       z     vdW  Elec       q    Type
REMARK                         _______ _______ _______ _____ _____    ______ ____
ROOT
ATOM      1  O   UNL     1       3.517   4.763  17.155  0.00  0.00    +0.000 OA
ATOM      2  S   UNL     1       2.727   4.513  18.340  0.00  0.00    +0.000 S 
ATOM      3  O   UNL     1       1.558   3.673  18.302  0.00  0.00    +0.000 OA
ENDROOT
BRANCH   2   4
ATOM      4  C   UNL     1       2.273   6.095  18.999  0.00  0.00    +0.000 A 
ATOM      5  C   UNL     1       1.862   6.157  20.337  0.00  0.00    +0.000 A 
ATOM      6  C   UNL     1       1.492   7.383  20.884  0.00  0.00    +0.000 A 
ATOM      7  C   UNL     1       1.548   8.530  20.098  0.00  0.00    +0.000 A 
ATOM      8  F   UNL     1       1.190   9.700  20.648  0.00  0.00    +0.000 F 
ATOM      9  C   UNL     1       1.970   8.466  18.767  0.00  0.00    +0.000 A 
ATOM     10 CL   UNL     1       2.042   9.893  17.808  0.00  0.00    +0.000 Cl
ATOM     11  C   UNL     1       2.337   7.244  18.204  0.00  0.00    +0.000 A 
ENDBRANCH   2   4
BRANCH   2  12
ATOM     12  N   UNL     1       3.803   3.954  19.508  0.00  0.00    +0.000 NA
ATOM     13  H   UNL     1       3.386   3.224  20.085  0.00  0.00    +0.000 HD
BRANCH  12  14
ATOM     14  C   UNL     1       5.244   3.822  19.227  0.00  0.00    +0.000 C 
BRANCH  14  15
ATOM     15  C   UNL     1       5.964   5.180  19.268  0.00  0.00    +0.000 C 
BRANCH  15  16
ATOM     16  N   UNL     1       7.375   5.170  18.841  0.00  0.00    +0.000 NA
ATOM     17  C   UNL     1       7.984   6.510  18.730  0.00  0.00    +0.000 C 
ATOM     18  C   UNL     1       7.421   7.349  17.573  0.00  0.00    +0.000 C 
ATOM     19  O   UNL     1       7.581   6.672  16.321  0.00  0.00    +0.000 OA
ATOM     20  C   UNL     1       6.953   5.384  16.347  0.00  0.00    +0.000 C 
ATOM     21  C   UNL     1       7.479   4.518  17.508  0.00  0.00    +0.000 C 
ENDBRANCH  15  16
ENDBRANCH  14  15
ENDBRANCH  12  14
ENDBRANCH   2  12
TORSDOF 5
ENDMDL
MODEL 3
REMARK VINA RESULT:      -6.7      4.412      7.156
REMARK  Name = 
REMARK  5 active torsions:
REMARK  status: ('A' for Active; 'I' for Inactive)
REMARK    1  A    between atoms: S_2  and  N_4
REMARK    2  A    between atoms: S_2  and  C_13
REMARK    3  A    between atoms: N_4  and  C_5
REMARK    4  A    between atoms: C_5  and  C_6
REMARK    5  A    between atoms: C_6  and  N_7
REMARK                            x       y       z     vdW  Elec       q    Type
REMARK                         _______ _______ _______ _____ _____    ______ ____
ROOT
ATOM      1  O   UNL     1       5.991   5.910  16.907  0.00  0.00    +0.000 OA
ATOM      2  S   UNL     1       6.671   4.670  16.603  0.00  0.00    +0.000 S 
ATOM      3  O   UNL     1       7.934   4.335  17.210  0.00  0.00    +0.000 OA
ENDROOT
BRANCH   2   4
ATOM      4  C   UNL     1       6.847   4.600  14.840  0.00  0.00    +0.000 A 
ATOM      5  C   UNL     1       7.815   5.419  14.243  0.00  0.00    +0.000 A 
ATOM      6  C   UNL     1       7.974   5.394  12.860  0.00  0.00    +0.000 A 
ATOM      7  C   UNL     1       7.180   4.547  12.092  0.00  0.00    +0.000 A 
ATOM      8  F   UNL     1       7.354   4.538  10.763  0.00  0.00    +0.000 F 
ATOM      9  C   UNL     1       6.223   3.724  12.693  0.00  0.00    +0.000 A 
ATOM     10 CL   UNL     1       5.251   2.677  11.734  0.00  0.00    +0.000 Cl
ATOM     11  C   UNL     1       6.048   3.744  14.077  0.00  0.00    +0.000 A 
ENDBRANCH   2   4
BRANCH   2  12
ATOM     12  N   UNL     1       5.552   3.445  16.883  0.00  0.00    +0.000 NA
ATOM     13  H   UNL     1       6.005   2.581  17.177  0.00  0.00    +0.000 HD
BRANCH  12  14
ATOM     14  C   UNL     1       4.234   3.727  17.481  0.00  0.00    +0.000 C 
BRANCH  14  15
ATOM     15  C   UNL     1       4.242   3.530  19.006  0.00  0.00    +0.000 C 
BRANCH  15  16
ATOM     16  N   UNL     1       3.391   2.439  19.515  0.00  0.00    +0.000 NA
ATOM     17  C   UNL     1       2.097   2.304  18.817  0.00  0.00    +0.000 C 
ATOM     18  C   UNL     1       1.129   3.467  19.083  0.00  0.00    +0.000 C 
ATOM     19  O   UNL     1       0.876   3.614  20.486  0.00  0.00    +0.000 OA
ATOM     20  C   UNL     1       2.095   3.812  21.212  0.00  0.00    +0.000 C 
ATOM     21  C   UNL     1       3.101   2.673  20.955  0.00  0.00    +0.000 C 
ENDBRANCH  15  16
ENDBRANCH  14  15
ENDBRANCH  12  14
ENDBRANCH   2  12
TORSDOF 5
ENDMDL
MODEL 4
REMARK VINA RESULT:      -6.7      1.096      1.620
REMARK  Name = 
REMARK  5 active torsions:
REMARK  status: ('A' for Active; 'I' for Inactive)
REMARK    1  A    between atoms: S_2  and  N_4
REMARK    2  A    between atoms: S_2  and  C_13
REMARK    3  A    between atoms: N_4  and  C_5
REMARK    4  A    between atoms: C_5  and  C_6
REMARK    5  A    between atoms: C_6  and  N_7
REMARK                            x       y       z     vdW  Elec       q    Type
REMARK                         _______ _______ _______ _____ _____    ______ ____
ROOT
ATOM      1  O   UNL     1       2.238   3.296  16.831  0.00  0.00    +0.000 OA
ATOM      2  S   UNL     1       2.128   3.155  18.266  0.00  0.00    +0.000 S 
ATOM      3  O   UNL     1       1.098   2.347  18.867  0.00  0.00    +0.000 OA
ENDROOT
BRANCH   2   4
ATOM      4  C   UNL     1       2.033   4.794  18.936  0.00  0.00    +0.000 A 
ATOM      5  C   UNL     1       1.712   4.932  20.294  0.00  0.00    +0.000 A 
ATOM      6  C   UNL     1       1.623   6.204  20.851  0.00  0.00    +0.000 A 
ATOM      7  C   UNL     1       1.865   7.321  20.056  0.00  0.00    +0.000 A 
ATOM      8  F   UNL     1       1.776   8.536  20.615  0.00  0.00    +0.000 F 
ATOM      9  C   UNL     1       2.196   7.179  18.705  0.00  0.00    +0.000 A 
ATOM     10 CL   UNL     1       2.501   8.566  17.734  0.00  0.00    +0.000 Cl
ATOM     11  C   UNL     1       2.283   5.910  18.132  0.00  0.00    +0.000 A 
ENDBRANCH   2   4
BRANCH   2  12
ATOM     12  N   UNL     1       3.643   2.655  18.802  0.00  0.00    +0.000 NA
ATOM     13  H   UNL     1       3.979   1.847  18.279  0.00  0.00    +0.000 HD
BRANCH  12  14
ATOM     14  C   UNL     1       4.666   3.624  19.235  0.00  0.00    +0.000 C 
BRANCH  14  15
ATOM     15  C   UNL     1       5.644   3.971  18.100  0.00  0.00    +0.000 C 
BRANCH  15  16
ATOM     16  N   UNL     1       5.193   5.018  17.165  0.00  0.00    +0.000 NA
ATOM     17  C   UNL     1       5.465   4.719  15.745  0.00  0.00    +0.000 C 
ATOM     18  C   UNL     1       6.958   4.745  15.384  0.00  0.00    +0.000 C 
ATOM     19  O   UNL     1       7.542   6.014  15.702  0.00  0.00    +0.000 OA
ATOM     20  C   UNL     1       7.364   6.332  17.088  0.00  0.00    +0.000 C 
ATOM     21  C   UNL     1       5.877   6.297  17.493  0.00  0.00    +0.000 C 
ENDBRANCH  15  16
ENDBRANCH  14  15
ENDBRANCH  12  14
ENDBRANCH   2  12
TORSDOF 5
ENDMDL
MODEL 5
REMARK VINA RESULT:      -6.6      3.884      6.615
REMARK  Name = 
REMARK  5 active torsions:
REMARK  status: ('A' for Active; 'I' for Inactive)
REMARK    1  A    between atoms: S_2  and  N_4
REMARK    2  A    between atoms: S_2  and  C_13
REMARK    3  A    between atoms: N_4  and  C_5
REMARK    4  A    between atoms: C_5  and  C_6
REMARK    5  A    between atoms: C_6  and  N_7
REMARK                            x       y       z     vdW  Elec       q    Type
REMARK                         _______ _______ _______ _____ _____    ______ ____
ROOT
ATOM      1  O   UNL     1       7.570   7.018  17.482  0.00  0.00    +0.000 OA
ATOM      2  S   UNL     1       7.061   5.684  17.709  0.00  0.00    +0.000 S 
ATOM      3  O   UNL     1       7.817   4.705  18.447  0.00  0.00    +0.000 OA
ENDROOT
BRANCH   2   4
ATOM      4  C   UNL     1       6.653   5.012  16.120  0.00  0.00    +0.000 A 
ATOM      5  C   UNL     1       5.561   4.137  16.036  0.00  0.00    +0.000 A 
ATOM      6  C   UNL     1       5.218   3.586  14.805  0.00  0.00    +0.000 A 
ATOM      7  C   UNL     1       5.954   3.923  13.673  0.00  0.00    +0.000 A 
ATOM      8  F   UNL     1       5.602   3.382  12.497  0.00  0.00    +0.000 F 
ATOM      9  C   UNL     1       7.034   4.805  13.758  0.00  0.00    +0.000 A 
ATOM     10 CL   UNL     1       7.932   5.219  12.349  0.00  0.00    +0.000 Cl
ATOM     11  C   UNL     1       7.394   5.359  14.986  0.00  0.00    +0.000 A 
ENDBRANCH   2   4
BRANCH   2  12
ATOM     12  N   UNL     1       5.538   5.878  18.398  0.00  0.00    +0.000 NA
ATOM     13  H   UNL     1       4.839   6.135  17.701  0.00  0.00    +0.000 HD
BRANCH  12  14
ATOM     14  C   UNL     1       5.074   5.014  19.500  0.00  0.00    +0.000 C 
BRANCH  14  15
ATOM     15  C   UNL     1       3.540   4.914  19.543  0.00  0.00    +0.000 C 
BRANCH  15  16
ATOM     16  N   UNL     1       2.973   3.613  19.143  0.00  0.00    +0.000 NA
ATOM     17  C   UNL     1       1.503   3.607  19.014  0.00  0.00    +0.000 C 
ATOM     18  C   UNL     1       0.765   3.755  20.353  0.00  0.00    +0.000 C 
ATOM     19  O   UNL     1       1.145   2.718  21.266  0.00  0.00    +0.000 OA
ATOM     20  C   UNL     1       2.562   2.714  21.481  0.00  0.00    +0.000 C 
ATOM     21  C   UNL     1       3.338   2.586  20.156  0.00  0.00    +0.000 C 
ENDBRANCH  15  16
ENDBRANCH  14  15
ENDBRANCH  12  14
ENDBRANCH   2  12
TORSDOF 5
ENDMDL
MODEL 6
REMARK VINA RESULT:      -6.5      3.787      6.460
REMARK  Name = 
REMARK  5 active torsions:
REMARK  status: ('A' for Active; 'I' for Inactive)
REMARK    1  A    between atoms: S_2  and  N_4
REMARK    2  A    between atoms: S_2  and  C_13
REMARK    3  A    between atoms: N_4  and  C_5
REMARK    4  A    between atoms: C_5  and  C_6
REMARK    5  A    between atoms: C_6  and  N_7
REMARK                            x       y       z     vdW  Elec       q    Type
REMARK                         _______ _______ _______ _____ _____    ______ ____
ROOT
ATOM      1  O   UNL     1       5.690   6.063  18.163  0.00  0.00    +0.000 OA
ATOM      2  S   UNL     1       6.489   4.881  17.928  0.00  0.00    +0.000 S 
ATOM      3  O   UNL     1       7.849   4.787  18.392  0.00  0.00    +0.000 OA
ENDROOT
BRANCH   2   4
ATOM      4  C   UNL     1       6.458   4.580  16.181  0.00  0.00    +0.000 A 
ATOM      5  C   UNL     1       5.486   3.702  15.682  0.00  0.00    +0.000 A 
ATOM      6  C   UNL     1       5.438   3.438  14.317  0.00  0.00    +0.000 A 
ATOM      7  C   UNL     1       6.347   4.058  13.464  0.00  0.00    +0.000 A 
ATOM      8  F   UNL     1       6.279   3.791  12.152  0.00  0.00    +0.000 F 
ATOM      9  C   UNL     1       7.307   4.943  13.964  0.00  0.00    +0.000 A 
ATOM     10 CL   UNL     1       8.421   5.709  12.900  0.00  0.00    +0.000 Cl
ATOM     11  C   UNL     1       7.371   5.211  15.331  0.00  0.00    +0.000 A 
ENDBRANCH   2   4
BRANCH   2  12
ATOM     12  N   UNL     1       5.587   3.586  18.513  0.00  0.00    +0.000 NA
ATOM     13  H   UNL     1       5.966   2.692  18.201  0.00  0.00    +0.000 HD
BRANCH  12  14
ATOM     14  C   UNL     1       4.992   3.607  19.862  0.00  0.00    +0.000 C 
BRANCH  14  15
ATOM     15  C   UNL     1       3.680   2.807  19.923  0.00  0.00    +0.000 C 
BRANCH  15  16
ATOM     16  N   UNL     1       2.466   3.592  20.213  0.00  0.00    +0.000 NA
ATOM     17  C   UNL     1       1.208   2.830  20.087  0.00  0.00    +0.000 C 
ATOM     18  C   UNL     1       0.865   2.440  18.641  0.00  0.00    +0.000 C 
ATOM     19  O   UNL     1       0.781   3.599  17.803  0.00  0.00    +0.000 OA
ATOM     20  C   UNL     1       2.001   4.349  17.835  0.00  0.00    +0.000 C 
ATOM     21  C   UNL     1       2.389   4.743  19.274  0.00  0.00    +0.000 C 
ENDBRANCH  15  16
ENDBRANCH  14  15
ENDBRANCH  12  14
ENDBRANCH   2  12
TORSDOF 5
ENDMDL
MODEL 7
REMARK VINA RESULT:      -6.4      3.778      6.482
REMARK  Name = 
REMARK  5 active torsions:
REMARK  status: ('A' for Active; 'I' for Inactive)
REMARK    1  A    between atoms: S_2  and  N_4
REMARK    2  A    between atoms: S_2  and  C_13
REMARK    3  A    between atoms: N_4  and  C_5
REMARK    4  A    between atoms: C_5  and  C_6
REMARK    5  A    between atoms: C_6  and  N_7
REMARK                            x       y       z     vdW  Elec       q    Type
REMARK                         _______ _______ _______ _____ _____    ______ ____
ROOT
ATOM      1  O   UNL     1       5.483   6.182  18.090  0.00  0.00    +0.000 OA
ATOM      2  S   UNL     1       6.526   5.207  17.860  0.00  0.00    +0.000 S 
ATOM      3  O   UNL     1       7.894   5.466  18.226  0.00  0.00    +0.000 OA
ENDROOT
BRANCH   2   4
ATOM      4  C   UNL     1       6.464   4.788  16.138  0.00  0.00    +0.000 A 
ATOM      5  C   UNL     1       5.474   3.890  15.715  0.00  0.00    +0.000 A 
ATOM      6  C   UNL     1       5.402   3.533  14.372  0.00  0.00    +0.000 A 
ATOM      7  C   UNL     1       6.305   4.083  13.466  0.00  0.00    +0.000 A 
ATOM      8  F   UNL     1       6.214   3.727  12.176  0.00  0.00    +0.000 F 
ATOM      9  C   UNL     1       7.283   4.987  13.889  0.00  0.00    +0.000 A 
ATOM     10 CL   UNL     1       8.389   5.665  12.759  0.00  0.00    +0.000 Cl
ATOM     11  C   UNL     1       7.371   5.347  15.234  0.00  0.00    +0.000 A 
ENDBRANCH   2   4
BRANCH   2  12
ATOM     12  N   UNL     1       5.995   3.780  18.577  0.00  0.00    +0.000 NA
ATOM     13  H   UNL     1       6.776   3.186  18.856  0.00  0.00    +0.000 HD
BRANCH  12  14
ATOM     14  C   UNL     1       4.808   3.752  19.452  0.00  0.00    +0.000 C 
BRANCH  14  15
ATOM     15  C   UNL     1       3.675   2.902  18.854  0.00  0.00    +0.000 C 
BRANCH  15  16
ATOM     16  N   UNL     1       2.548   3.656  18.275  0.00  0.00    +0.000 NA
ATOM     17  C   UNL     1       2.352   4.997  18.862  0.00  0.00    +0.000 C 
ATOM     18  C   UNL     1       1.861   4.968  20.317  0.00  0.00    +0.000 C 
ATOM     19  O   UNL     1       0.633   4.238  20.431  0.00  0.00    +0.000 OA
ATOM     20  C   UNL     1       0.779   2.902  19.933  0.00  0.00    +0.000 C 
ATOM     21  C   UNL     1       1.289   2.890  18.479  0.00  0.00    +0.000 C 
ENDBRANCH  15  16
ENDBRANCH  14  15
ENDBRANCH  12  14
ENDBRANCH   2  12
TORSDOF 5
ENDMDL
MODEL 8
REMARK VINA RESULT:      -6.4      2.338      2.949
REMARK  Name = 
REMARK  5 active torsions:
REMARK  status: ('A' for Active; 'I' for Inactive)
REMARK    1  A    between atoms: S_2  and  N_4
REMARK    2  A    between atoms: S_2  and  C_13
REMARK    3  A    between atoms: N_4  and  C_5
REMARK    4  A    between atoms: C_5  and  C_6
REMARK    5  A    between atoms: C_6  and  N_7
REMARK                            x       y       z     vdW  Elec       q    Type
REMARK                         _______ _______ _______ _____ _____    ______ ____
ROOT
ATOM      1  O   UNL     1       1.689   4.894  20.508  0.00  0.00    +0.000 OA
ATOM      2  S   UNL     1       2.643   5.475  19.590  0.00  0.00    +0.000 S 
ATOM      3  O   UNL     1       4.058   5.453  19.859  0.00  0.00    +0.000 OA
ENDROOT
BRANCH   2   4
ATOM      4  C   UNL     1       2.139   7.153  19.320  0.00  0.00    +0.000 A 
ATOM      5  C   UNL     1       2.325   7.699  18.042  0.00  0.00    +0.000 A 
ATOM      6  C   UNL     1       1.947   9.016  17.798  0.00  0.00    +0.000 A 
ATOM      7  C   UNL     1       1.377   9.768  18.821  0.00  0.00    +0.000 A 
ATOM      8  F   UNL     1       1.017  11.033  18.561  0.00  0.00    +0.000 F 
ATOM      9  C   UNL     1       1.182   9.217  20.090  0.00  0.00    +0.000 A 
ATOM     10 CL   UNL     1       0.470  10.155  21.345  0.00  0.00    +0.000 Cl
ATOM     11  C   UNL     1       1.563   7.901  20.351  0.00  0.00    +0.000 A 
ENDBRANCH   2   4
BRANCH   2  12
ATOM     12  N   UNL     1       2.329   4.780  18.090  0.00  0.00    +0.000 NA
ATOM     13  H   UNL     1       1.890   5.443  17.452  0.00  0.00    +0.000 HD
BRANCH  12  14
ATOM     14  C   UNL     1       3.253   3.804  17.483  0.00  0.00    +0.000 C 
BRANCH  14  15
ATOM     15  C   UNL     1       4.348   4.493  16.652  0.00  0.00    +0.000 C 
BRANCH  15  16
ATOM     16  N   UNL     1       5.687   3.881  16.727  0.00  0.00    +0.000 NA
ATOM     17  C   UNL     1       6.666   4.663  17.510  0.00  0.00    +0.000 C 
ATOM     18  C   UNL     1       7.076   5.984  16.842  0.00  0.00    +0.000 C 
ATOM     19  O   UNL     1       7.618   5.754  15.536  0.00  0.00    +0.000 OA
ATOM     20  C   UNL     1       6.684   5.051  14.706  0.00  0.00    +0.000 C 
ATOM     21  C   UNL     1       6.234   3.726  15.352  0.00  0.00    +0.000 C 
ENDBRANCH  15  16
ENDBRANCH  14  15
ENDBRANCH  12  14
ENDBRANCH   2  12
TORSDOF 5
ENDMDL
MODEL 9
REMARK VINA RESULT:      -6.4      3.774      6.204
REMARK  Name = 
REMARK  5 active torsions:
REMARK  status: ('A' for Active; 'I' for Inactive)
REMARK    1  A    between atoms: S_2  and  N_4
REMARK    2  A    between atoms: S_2  and  C_13
REMARK    3  A    between atoms: N_4  and  C_5
REMARK    4  A    between atoms: C_5  and  C_6
REMARK    5  A    between atoms: C_6  and  N_7
REMARK                            x       y       z     vdW  Elec       q    Type
REMARK                         _______ _______ _______ _____ _____    ______ ____
ROOT
ATOM      1  O   UNL     1       7.199   6.792  18.082  0.00  0.00    +0.000 OA
ATOM      2  S   UNL     1       6.411   5.580  18.120  0.00  0.00    +0.000 S 
ATOM      3  O   UNL     1       6.744   4.493  19.004  0.00  0.00    +0.000 OA
ENDROOT
BRANCH   2   4
ATOM      4  C   UNL     1       6.336   4.964  16.459  0.00  0.00    +0.000 A 
ATOM      5  C   UNL     1       5.373   3.990  16.162  0.00  0.00    +0.000 A 
ATOM      6  C   UNL     1       5.292   3.480  14.870  0.00  0.00    +0.000 A 
ATOM      7  C   UNL     1       6.158   3.952  13.889  0.00  0.00    +0.000 A 
ATOM      8  F   UNL     1       6.059   3.448  12.650  0.00  0.00    +0.000 F 
ATOM      9  C   UNL     1       7.110   4.932  14.186  0.00  0.00    +0.000 A 
ATOM     10 CL   UNL     1       8.171   5.514  12.963  0.00  0.00    +0.000 Cl
ATOM     11  C   UNL     1       7.207   5.448  15.478  0.00  0.00    +0.000 A 
ENDBRANCH   2   4
BRANCH   2  12
ATOM     12  N   UNL     1       4.820   6.067  18.375  0.00  0.00    +0.000 NA
ATOM     13  H   UNL     1       4.335   6.243  17.496  0.00  0.00    +0.000 HD
BRANCH  12  14
ATOM     14  C   UNL     1       4.007   5.502  19.468  0.00  0.00    +0.000 C 
BRANCH  14  15
ATOM     15  C   UNL     1       2.639   5.009  18.968  0.00  0.00    +0.000 C 
BRANCH  15  16
ATOM     16  N   UNL     1       2.104   3.814  19.646  0.00  0.00    +0.000 NA
ATOM     17  C   UNL     1       3.125   3.003  20.340  0.00  0.00    +0.000 C 
ATOM     18  C   UNL     1       4.096   2.288  19.389  0.00  0.00    +0.000 C 
ATOM     19  O   UNL     1       3.391   1.443  18.473  0.00  0.00    +0.000 OA
ATOM     20  C   UNL     1       2.424   2.189  17.722  0.00  0.00    +0.000 C 
ATOM     21  C   UNL     1       1.441   2.937  18.644  0.00  0.00    +0.000 C 
ENDBRANCH  15  16
ENDBRANCH  14  15
ENDBRANCH  12  14
ENDBRANCH   2  12
TORSDOF 5
ENDMDL
