MODEL 1
REMARK VINA RESULT:      -7.9      0.000      0.000
REMARK  Name = 
REMARK  10 active torsions:
REMARK  status: ('A' for Active; 'I' for Inactive)
REMARK    1  A    between atoms: C_1  and  O_2
REMARK    2  A    between atoms: O_2  and  C_3
REMARK    3  A    between atoms: C_5  and  O_6
REMARK    4  A    between atoms: C_7  and  C_8
REMARK    5  A    between atoms: C_8  and  C_9
REMARK    6  A    between atoms: C_8  and  C_24
REMARK    7  A    between atoms: C_9  and  C_10
REMARK    8  A    between atoms: C_15  and  C_16
REMARK    9  A    between atoms: C_33  and  O_34
REMARK   10  A    between atoms: O_34  and  C_35
REMARK                            x       y       z     vdW  Elec       q    Type
REMARK                         _______ _______ _______ _____ _____    ______ ____
ROOT
ATOM      1  C   UNL     1      -0.064  10.989  19.348  0.00  0.00    +0.000 C 
ENDROOT
BRANCH   1   2
ATOM      2  C   UNL     1      -1.439  10.874  18.660  0.00  0.00    +0.000 A 
ATOM      3  C   UNL     1      -1.557  10.068  17.496  0.00  0.00    +0.000 A 
ATOM      4  C   UNL     1      -2.721  10.075  16.716  0.00  0.00    +0.000 A 
ATOM      5  C   UNL     1      -3.760  10.881  17.122  0.00  0.00    +0.000 A 
ATOM      6  C   UNL     1      -3.687  11.616  18.278  0.00  0.00    +0.000 A 
ATOM      7  C   UNL     1      -2.560  11.620  19.072  0.00  0.00    +0.000 A 
ATOM      8  O   UNL     1      -4.809  12.352  18.502  0.00  0.00    +0.000 OA
ATOM      9  C   UNL     1      -5.566  12.050  17.314  0.00  0.00    +0.000 C 
ATOM     10  O   UNL     1      -4.932  11.075  16.460  0.00  0.00    +0.000 OA
ENDBRANCH   1   2
BRANCH   1  14
ATOM     11  C   UNL     1       2.290   7.320  19.649  0.00  0.00    +0.000 A 
ATOM     12  C   UNL     1       2.394   8.134  18.524  0.00  0.00    +0.000 A 
ATOM     13  C   UNL     1       1.631   9.291  18.429  0.00  0.00    +0.000 A 
ATOM     14  C   UNL     1       0.742   9.686  19.446  0.00  0.00    +0.000 A 
ATOM     15  C   UNL     1       0.666   8.869  20.597  0.00  0.00    +0.000 A 
ATOM     16  C   UNL     1       1.423   7.688  20.677  0.00  0.00    +0.000 A 
BRANCH  11  18
ATOM     17  C   UNL     1       2.488   4.976  19.990  0.00  0.00    +0.000 C 
ATOM     18  O   UNL     1       3.088   6.211  19.625  0.00  0.00    +0.000 OA
ENDBRANCH  11  18
BRANCH  13  19
ATOM     19  O   UNL     1       1.795  10.072  17.327  0.00  0.00    +0.000 OA
ATOM     20  H   UNL     1       2.664   9.888  16.934  0.00  0.00    +0.000 HD
ENDBRANCH  13  19
BRANCH  15  21
ATOM     21  O   UNL     1      -0.185   9.277  21.598  0.00  0.00    +0.000 OA
ATOM     22  C   UNL     1       0.394   9.471  22.887  0.00  0.00    +0.000 C 
ENDBRANCH  15  21
ENDBRANCH   1  14
BRANCH   1  23
ATOM     23  C   UNL     1       0.810  12.174  18.889  0.00  0.00    +0.000 C 
BRANCH  23  24
ATOM     24  C   UNL     1       1.375  13.095  19.969  0.00  0.00    +0.000 C 
ATOM     25  O   UNL     1       0.714  13.548  20.901  0.00  0.00    +0.000 OA
ATOM     26  N   UNL     1       2.723  13.425  19.827  0.00  0.00    +0.000 N 
ATOM     27  C   UNL     1       3.369  14.162  20.910  0.00  0.00    +0.000 C 
ATOM     28  C   UNL     1       3.466  15.656  20.584  0.00  0.00    +0.000 C 
ATOM     29  C   UNL     1       4.079  15.919  19.187  0.00  0.00    +0.000 C 
ATOM     30  C   UNL     1       3.296  15.080  18.152  0.00  0.00    +0.000 C 
ATOM     31  C   UNL     1       3.341  13.599  18.518  0.00  0.00    +0.000 C 
BRANCH  29  32
ATOM     32  C   UNL     1       5.590  15.716  19.060  0.00  0.00    +0.000 A 
ATOM     33  C   UNL     1       6.198  15.146  17.931  0.00  0.00    +0.000 A 
ATOM     34  C   UNL     1       7.585  14.992  17.854  0.00  0.00    +0.000 A 
ATOM     35  C   UNL     1       8.392  15.385  18.914  0.00  0.00    +0.000 A 
ATOM     36  C   UNL     1       7.811  15.933  20.055  0.00  0.00    +0.000 A 
ATOM     37  C   UNL     1       6.426  16.093  20.126  0.00  0.00    +0.000 A 
ENDBRANCH  29  32
ENDBRANCH  23  24
ENDBRANCH   1  23
TORSDOF 8
ENDMDL
MODEL 2
REMARK VINA RESULT:      -7.7      0.988      1.234
REMARK  Name = 
REMARK  10 active torsions:
REMARK  status: ('A' for Active; 'I' for Inactive)
REMARK    1  A    between atoms: C_1  and  O_2
REMARK    2  A    between atoms: O_2  and  C_3
REMARK    3  A    between atoms: C_5  and  O_6
REMARK    4  A    between atoms: C_7  and  C_8
REMARK    5  A    between atoms: C_8  and  C_9
REMARK    6  A    between atoms: C_8  and  C_24
REMARK    7  A    between atoms: C_9  and  C_10
REMARK    8  A    between atoms: C_15  and  C_16
REMARK    9  A    between atoms: C_33  and  O_34
REMARK   10  A    between atoms: O_34  and  C_35
REMARK                            x       y       z     vdW  Elec       q    Type
REMARK                         _______ _______ _______ _____ _____    ______ ____
ROOT
ATOM      1  C   UNL     1      -0.018  11.153  19.244  0.00  0.00    +0.000 C 
ENDROOT
BRANCH   1   2
ATOM      2  C   UNL     1      -1.434  11.042  18.644  0.00  0.00    +0.000 A 
ATOM      3  C   UNL     1      -1.609  10.324  17.431  0.00  0.00    +0.000 A 
ATOM      4  C   UNL     1      -2.825  10.348  16.735  0.00  0.00    +0.000 A 
ATOM      5  C   UNL     1      -3.857  11.083  17.273  0.00  0.00    +0.000 A 
ATOM      6  C   UNL     1      -3.725  11.729  18.476  0.00  0.00    +0.000 A 
ATOM      7  C   UNL     1      -2.545  11.713  19.189  0.00  0.00    +0.000 A 
ATOM      8  O   UNL     1      -4.850  12.406  18.833  0.00  0.00    +0.000 OA
ATOM      9  C   UNL     1      -5.680  12.169  17.680  0.00  0.00    +0.000 C 
ATOM     10  O   UNL     1      -5.078  11.285  16.710  0.00  0.00    +0.000 OA
ENDBRANCH   1   2
BRANCH   1  14
ATOM     11  C   UNL     1       2.126   7.406  19.915  0.00  0.00    +0.000 A 
ATOM     12  C   UNL     1       2.252   8.083  18.704  0.00  0.00    +0.000 A 
ATOM     13  C   UNL     1       1.555   9.265  18.493  0.00  0.00    +0.000 A 
ATOM     14  C   UNL     1       0.714   9.822  19.473  0.00  0.00    +0.000 A 
ATOM     15  C   UNL     1       0.616   9.143  20.709  0.00  0.00    +0.000 A 
ATOM     16  C   UNL     1       1.305   7.936  20.909  0.00  0.00    +0.000 A 
BRANCH  11  18
ATOM     17  C   UNL     1       3.618   5.884  18.860  0.00  0.00    +0.000 C 
ATOM     18  O   UNL     1       2.859   6.254  20.002  0.00  0.00    +0.000 OA
ENDBRANCH  11  18
BRANCH  13  19
ATOM     19  O   UNL     1       1.739   9.909  17.308  0.00  0.00    +0.000 OA
ATOM     20  H   UNL     1       1.028  10.560  17.188  0.00  0.00    +0.000 HD
ENDBRANCH  13  19
BRANCH  15  21
ATOM     21  O   UNL     1      -0.187   9.710  21.672  0.00  0.00    +0.000 OA
ATOM     22  C   UNL     1       0.147   9.426  23.029  0.00  0.00    +0.000 C 
ENDBRANCH  15  21
ENDBRANCH   1  14
BRANCH   1  23
ATOM     23  C   UNL     1       0.897  12.208  18.590  0.00  0.00    +0.000 C 
BRANCH  23  24
ATOM     24  C   UNL     1       0.743  13.658  19.048  0.00  0.00    +0.000 C 
ATOM     25  O   UNL     1      -0.328  14.262  19.066  0.00  0.00    +0.000 OA
ATOM     26  N   UNL     1       1.923  14.290  19.438  0.00  0.00    +0.000 N 
ATOM     27  C   UNL     1       1.826  15.615  20.043  0.00  0.00    +0.000 C 
ATOM     28  C   UNL     1       2.142  16.716  19.024  0.00  0.00    +0.000 C 
ATOM     29  C   UNL     1       3.470  16.460  18.269  0.00  0.00    +0.000 C 
ATOM     30  C   UNL     1       3.424  15.030  17.685  0.00  0.00    +0.000 C 
ATOM     31  C   UNL     1       3.200  14.006  18.793  0.00  0.00    +0.000 C 
BRANCH  29  32
ATOM     32  C   UNL     1       4.757  16.715  19.055  0.00  0.00    +0.000 A 
ATOM     33  C   UNL     1       6.001  16.178  18.690  0.00  0.00    +0.000 A 
ATOM     34  C   UNL     1       7.154  16.448  19.433  0.00  0.00    +0.000 A 
ATOM     35  C   UNL     1       7.083  17.244  20.569  0.00  0.00    +0.000 A 
ATOM     36  C   UNL     1       5.857  17.771  20.964  0.00  0.00    +0.000 A 
ATOM     37  C   UNL     1       4.708  17.506  20.217  0.00  0.00    +0.000 A 
ENDBRANCH  29  32
ENDBRANCH  23  24
ENDBRANCH   1  23
TORSDOF 8
ENDMDL
MODEL 3
REMARK VINA RESULT:      -7.4      0.717      1.068
REMARK  Name = 
REMARK  10 active torsions:
REMARK  status: ('A' for Active; 'I' for Inactive)
REMARK    1  A    between atoms: C_1  and  O_2
REMARK    2  A    between atoms: O_2  and  C_3
REMARK    3  A    between atoms: C_5  and  O_6
REMARK    4  A    between atoms: C_7  and  C_8
REMARK    5  A    between atoms: C_8  and  C_9
REMARK    6  A    between atoms: C_8  and  C_24
REMARK    7  A    between atoms: C_9  and  C_10
REMARK    8  A    between atoms: C_15  and  C_16
REMARK    9  A    between atoms: C_33  and  O_34
REMARK   10  A    between atoms: O_34  and  C_35
REMARK                            x       y       z     vdW  Elec       q    Type
REMARK                         _______ _______ _______ _____ _____    ______ ____
ROOT
ATOM      1  C   UNL     1       0.312  10.880  19.291  0.00  0.00    +0.000 C 
ENDROOT
BRANCH   1   2
ATOM      2  C   UNL     1      -1.106  10.798  18.695  0.00  0.00    +0.000 A 
ATOM      3  C   UNL     1      -1.315  10.019  17.525  0.00  0.00    +0.000 A 
ATOM      4  C   UNL     1      -2.528  10.058  16.826  0.00  0.00    +0.000 A 
ATOM      5  C   UNL     1      -3.525  10.870  17.316  0.00  0.00    +0.000 A 
ATOM      6  C   UNL     1      -3.363  11.580  18.479  0.00  0.00    +0.000 A 
ATOM      7  C   UNL     1      -2.186  11.551  19.196  0.00  0.00    +0.000 A 
ATOM      8  O   UNL     1      -4.456  12.328  18.792  0.00  0.00    +0.000 OA
ATOM      9  C   UNL     1      -5.296  12.061  17.653  0.00  0.00    +0.000 C 
ATOM     10  O   UNL     1      -4.735  11.095  16.738  0.00  0.00    +0.000 OA
ENDBRANCH   1   2
BRANCH   1  14
ATOM     11  C   UNL     1       2.546   7.132  19.548  0.00  0.00    +0.000 A 
ATOM     12  C   UNL     1       2.523   7.859  18.361  0.00  0.00    +0.000 A 
ATOM     13  C   UNL     1       1.798   9.042  18.282  0.00  0.00    +0.000 A 
ATOM     14  C   UNL     1       1.075   9.549  19.377  0.00  0.00    +0.000 A 
ATOM     15  C   UNL     1       1.129   8.819  20.587  0.00  0.00    +0.000 A 
ATOM     16  C   UNL     1       1.845   7.613  20.654  0.00  0.00    +0.000 A 
BRANCH  11  18
ATOM     17  C   UNL     1       2.762   4.845  20.160  0.00  0.00    +0.000 C 
ATOM     18  O   UNL     1       3.291   5.987  19.501  0.00  0.00    +0.000 OA
ENDBRANCH  11  18
BRANCH  13  19
ATOM     19  O   UNL     1       1.837   9.735  17.111  0.00  0.00    +0.000 OA
ATOM     20  H   UNL     1       0.995   9.611  16.643  0.00  0.00    +0.000 HD
ENDBRANCH  13  19
BRANCH  15  21
ATOM     21  O   UNL     1       0.441   9.338  21.660  0.00  0.00    +0.000 OA
ATOM     22  C   UNL     1      -0.710   8.613  22.090  0.00  0.00    +0.000 C 
ENDBRANCH  15  21
ENDBRANCH   1  14
BRANCH   1  23
ATOM     23  C   UNL     1       1.198  12.016  18.741  0.00  0.00    +0.000 C 
BRANCH  23  24
ATOM     24  C   UNL     1       1.291  13.300  19.565  0.00  0.00    +0.000 C 
ATOM     25  O   UNL     1       0.335  13.822  20.134  0.00  0.00    +0.000 OA
ATOM     26  N   UNL     1       2.558  13.882  19.623  0.00  0.00    +0.000 N 
ATOM     27  C   UNL     1       2.755  15.012  20.526  0.00  0.00    +0.000 C 
ATOM     28  C   UNL     1       2.708  16.343  19.767  0.00  0.00    +0.000 C 
ATOM     29  C   UNL     1       3.638  16.352  18.529  0.00  0.00    +0.000 C 
ATOM     30  C   UNL     1       3.313  15.108  17.673  0.00  0.00    +0.000 C 
ATOM     31  C   UNL     1       3.481  13.833  18.495  0.00  0.00    +0.000 C 
BRANCH  29  32
ATOM     32  C   UNL     1       5.136  16.478  18.807  0.00  0.00    +0.000 A 
ATOM     33  C   UNL     1       5.673  17.359  19.759  0.00  0.00    +0.000 A 
ATOM     34  C   UNL     1       7.050  17.431  19.987  0.00  0.00    +0.000 A 
ATOM     35  C   UNL     1       7.922  16.639  19.252  0.00  0.00    +0.000 A 
ATOM     36  C   UNL     1       7.417  15.772  18.286  0.00  0.00    +0.000 A 
ATOM     37  C   UNL     1       6.041  15.697  18.065  0.00  0.00    +0.000 A 
ENDBRANCH  29  32
ENDBRANCH  23  24
ENDBRANCH   1  23
TORSDOF 8
ENDMDL
MODEL 4
REMARK VINA RESULT:      -7.4      2.336      3.082
REMARK  Name = 
REMARK  10 active torsions:
REMARK  status: ('A' for Active; 'I' for Inactive)
REMARK    1  A    between atoms: C_1  and  O_2
REMARK    2  A    between atoms: O_2  and  C_3
REMARK    3  A    between atoms: C_5  and  O_6
REMARK    4  A    between atoms: C_7  and  C_8
REMARK    5  A    between atoms: C_8  and  C_9
REMARK    6  A    between atoms: C_8  and  C_24
REMARK    7  A    between atoms: C_9  and  C_10
REMARK    8  A    between atoms: C_15  and  C_16
REMARK    9  A    between atoms: C_33  and  O_34
REMARK   10  A    between atoms: O_34  and  C_35
REMARK                            x       y       z     vdW  Elec       q    Type
REMARK                         _______ _______ _______ _____ _____    ______ ____
ROOT
ATOM      1  C   UNL     1      -0.127  12.406  21.225  0.00  0.00    +0.000 C 
ENDROOT
BRANCH   1   2
ATOM      2  C   UNL     1      -1.642  12.421  21.509  0.00  0.00    +0.000 A 
ATOM      3  C   UNL     1      -2.529  12.828  20.476  0.00  0.00    +0.000 A 
ATOM      4  C   UNL     1      -3.890  13.049  20.725  0.00  0.00    +0.000 A 
ATOM      5  C   UNL     1      -4.349  12.847  22.006  0.00  0.00    +0.000 A 
ATOM      6  C   UNL     1      -3.520  12.393  23.000  0.00  0.00    +0.000 A 
ATOM      7  C   UNL     1      -2.179  12.154  22.783  0.00  0.00    +0.000 A 
ATOM      8  O   UNL     1      -4.157  12.265  24.196  0.00  0.00    +0.000 OA
ATOM      9  C   UNL     1      -5.466  12.759  23.854  0.00  0.00    +0.000 C 
ATOM     10  O   UNL     1      -5.612  13.080  22.454  0.00  0.00    +0.000 OA
ENDBRANCH   1   2
BRANCH   1  14
ATOM     11  C   UNL     1       1.416   8.971  19.010  0.00  0.00    +0.000 A 
ATOM     12  C   UNL     1       0.967  10.101  18.333  0.00  0.00    +0.000 A 
ATOM     13  C   UNL     1       0.463  11.184  19.043  0.00  0.00    +0.000 A 
ATOM     14  C   UNL     1       0.392  11.187  20.449  0.00  0.00    +0.000 A 
ATOM     15  C   UNL     1       0.879  10.047  21.127  0.00  0.00    +0.000 A 
ATOM     16  C   UNL     1       1.366   8.946  20.403  0.00  0.00    +0.000 A 
BRANCH  11  18
ATOM     17  C   UNL     1       2.705   6.983  18.810  0.00  0.00    +0.000 C 
ATOM     18  O   UNL     1       1.887   7.973  18.202  0.00  0.00    +0.000 OA
ENDBRANCH  11  18
BRANCH  13  19
ATOM     19  O   UNL     1       0.070  12.280  18.339  0.00  0.00    +0.000 OA
ATOM     20  H   UNL     1       0.750  12.493  17.680  0.00  0.00    +0.000 HD
ENDBRANCH  13  19
BRANCH  15  21
ATOM     21  O   UNL     1       0.831  10.070  22.502  0.00  0.00    +0.000 OA
ATOM     22  C   UNL     1      -0.163   9.254  23.120  0.00  0.00    +0.000 C 
ENDBRANCH  15  21
ENDBRANCH   1  14
BRANCH   1  23
ATOM     23  C   UNL     1       0.459  13.726  20.683  0.00  0.00    +0.000 C 
BRANCH  23  24
ATOM     24  C   UNL     1       1.592  14.374  21.478  0.00  0.00    +0.000 C 
ATOM     25  O   UNL     1       1.421  15.064  22.480  0.00  0.00    +0.000 OA
ATOM     26  N   UNL     1       2.875  14.153  20.977  0.00  0.00    +0.000 N 
ATOM     27  C   UNL     1       4.012  14.600  21.776  0.00  0.00    +0.000 C 
ATOM     28  C   UNL     1       4.563  15.934  21.260  0.00  0.00    +0.000 C 
ATOM     29  C   UNL     1       4.831  15.914  19.735  0.00  0.00    +0.000 C 
ATOM     30  C   UNL     1       3.546  15.428  19.027  0.00  0.00    +0.000 C 
ATOM     31  C   UNL     1       3.137  14.052  19.545  0.00  0.00    +0.000 C 
BRANCH  29  32
ATOM     32  C   UNL     1       6.065  15.140  19.273  0.00  0.00    +0.000 A 
ATOM     33  C   UNL     1       7.168  14.882  20.101  0.00  0.00    +0.000 A 
ATOM     34  C   UNL     1       8.271  14.159  19.637  0.00  0.00    +0.000 A 
ATOM     35  C   UNL     1       8.303  13.697  18.328  0.00  0.00    +0.000 A 
ATOM     36  C   UNL     1       7.230  13.958  17.479  0.00  0.00    +0.000 A 
ATOM     37  C   UNL     1       6.128  14.674  17.946  0.00  0.00    +0.000 A 
ENDBRANCH  29  32
ENDBRANCH  23  24
ENDBRANCH   1  23
TORSDOF 8
ENDMDL
MODEL 5
REMARK VINA RESULT:      -7.3      1.104      1.263
REMARK  Name = 
REMARK  10 active torsions:
REMARK  status: ('A' for Active; 'I' for Inactive)
REMARK    1  A    between atoms: C_1  and  O_2
REMARK    2  A    between atoms: O_2  and  C_3
REMARK    3  A    between atoms: C_5  and  O_6
REMARK    4  A    between atoms: C_7  and  C_8
REMARK    5  A    between atoms: C_8  and  C_9
REMARK    6  A    between atoms: C_8  and  C_24
REMARK    7  A    between atoms: C_9  and  C_10
REMARK    8  A    between atoms: C_15  and  C_16
REMARK    9  A    between atoms: C_33  and  O_34
REMARK   10  A    between atoms: O_34  and  C_35
REMARK                            x       y       z     vdW  Elec       q    Type
REMARK                         _______ _______ _______ _____ _____    ______ ____
ROOT
ATOM      1  C   UNL     1       0.327  10.524  19.456  0.00  0.00    +0.000 C 
ENDROOT
BRANCH   1   2
ATOM      2  C   UNL     1      -1.038  10.548  18.742  0.00  0.00    +0.000 A 
ATOM      3  C   UNL     1      -1.175   9.867  17.502  0.00  0.00    +0.000 A 
ATOM      4  C   UNL     1      -2.322  10.011  16.711  0.00  0.00    +0.000 A 
ATOM      5  C   UNL     1      -3.327  10.827  17.180  0.00  0.00    +0.000 A 
ATOM      6  C   UNL     1      -3.237  11.440  18.403  0.00  0.00    +0.000 A 
ATOM      7  C   UNL     1      -2.127  11.308  19.210  0.00  0.00    +0.000 A 
ATOM      8  O   UNL     1      -4.325  12.210  18.683  0.00  0.00    +0.000 OA
ATOM      9  C   UNL     1      -5.074  12.065  17.462  0.00  0.00    +0.000 C 
ATOM     10  O   UNL     1      -4.474  11.146  16.524  0.00  0.00    +0.000 OA
ENDBRANCH   1   2
BRANCH   1  14
ATOM     11  C   UNL     1       2.636   6.827  19.140  0.00  0.00    +0.000 A 
ATOM     12  C   UNL     1       2.662   7.765  18.111  0.00  0.00    +0.000 A 
ATOM     13  C   UNL     1       1.914   8.930  18.212  0.00  0.00    +0.000 A 
ATOM     14  C   UNL     1       1.117   9.211  19.337  0.00  0.00    +0.000 A 
ATOM     15  C   UNL     1       1.121   8.268  20.389  0.00  0.00    +0.000 A 
ATOM     16  C   UNL     1       1.862   7.080  20.272  0.00  0.00    +0.000 A 
BRANCH  11  18
ATOM     17  C   UNL     1       4.776   5.806  19.308  0.00  0.00    +0.000 C 
ATOM     18  O   UNL     1       3.411   5.722  18.924  0.00  0.00    +0.000 OA
ENDBRANCH  11  18
BRANCH  13  19
ATOM     19  O   UNL     1       2.001   9.832  17.197  0.00  0.00    +0.000 OA
ATOM     20  H   UNL     1       1.855   9.374  16.353  0.00  0.00    +0.000 HD
ENDBRANCH  13  19
BRANCH  15  21
ATOM     21  O   UNL     1       0.361   8.564  21.498  0.00  0.00    +0.000 OA
ATOM     22  C   UNL     1       1.040   9.181  22.590  0.00  0.00    +0.000 C 
ENDBRANCH  15  21
ENDBRANCH   1  14
BRANCH   1  23
ATOM     23  C   UNL     1       1.222  11.757  19.219  0.00  0.00    +0.000 C 
BRANCH  23  24
ATOM     24  C   UNL     1       1.265  12.820  20.317  0.00  0.00    +0.000 C 
ATOM     25  O   UNL     1       0.377  12.981  21.152  0.00  0.00    +0.000 OA
ATOM     26  N   UNL     1       2.393  13.640  20.311  0.00  0.00    +0.000 N 
ATOM     27  C   UNL     1       2.579  14.562  21.427  0.00  0.00    +0.000 C 
ATOM     28  C   UNL     1       2.139  15.983  21.053  0.00  0.00    +0.000 C 
ATOM     29  C   UNL     1       2.764  16.466  19.723  0.00  0.00    +0.000 C 
ATOM     30  C   UNL     1       2.485  15.396  18.642  0.00  0.00    +0.000 C 
ATOM     31  C   UNL     1       3.046  14.043  19.070  0.00  0.00    +0.000 C 
BRANCH  29  32
ATOM     32  C   UNL     1       4.242  16.856  19.769  0.00  0.00    +0.000 A 
ATOM     33  C   UNL     1       5.116  16.696  18.683  0.00  0.00    +0.000 A 
ATOM     34  C   UNL     1       6.458  17.079  18.768  0.00  0.00    +0.000 A 
ATOM     35  C   UNL     1       6.959  17.610  19.949  0.00  0.00    +0.000 A 
ATOM     36  C   UNL     1       6.117  17.760  21.049  0.00  0.00    +0.000 A 
ATOM     37  C   UNL     1       4.777  17.383  20.959  0.00  0.00    +0.000 A 
ENDBRANCH  29  32
ENDBRANCH  23  24
ENDBRANCH   1  23
TORSDOF 8
ENDMDL
MODEL 6
REMARK VINA RESULT:      -7.3      1.941      5.516
REMARK  Name = 
REMARK  10 active torsions:
REMARK  status: ('A' for Active; 'I' for Inactive)
REMARK    1  A    between atoms: C_1  and  O_2
REMARK    2  A    between atoms: O_2  and  C_3
REMARK    3  A    between atoms: C_5  and  O_6
REMARK    4  A    between atoms: C_7  and  C_8
REMARK    5  A    between atoms: C_8  and  C_9
REMARK    6  A    between atoms: C_8  and  C_24
REMARK    7  A    between atoms: C_9  and  C_10
REMARK    8  A    between atoms: C_15  and  C_16
REMARK    9  A    between atoms: C_33  and  O_34
REMARK   10  A    between atoms: O_34  and  C_35
REMARK                            x       y       z     vdW  Elec       q    Type
REMARK                         _______ _______ _______ _____ _____    ______ ____
ROOT
ATOM      1  C   UNL     1      -0.204  12.179  20.461  0.00  0.00    +0.000 C 
ENDROOT
BRANCH   1   2
ATOM      2  C   UNL     1       0.324  10.747  20.248  0.00  0.00    +0.000 A 
ATOM      3  C   UNL     1       0.419   9.878  21.368  0.00  0.00    +0.000 A 
ATOM      4  C   UNL     1       1.068   8.639  21.280  0.00  0.00    +0.000 A 
ATOM      5  C   UNL     1       1.603   8.280  20.064  0.00  0.00    +0.000 A 
ATOM      6  C   UNL     1       1.464   9.078  18.957  0.00  0.00    +0.000 A 
ATOM      7  C   UNL     1       0.820  10.296  19.009  0.00  0.00    +0.000 A 
ATOM      8  O   UNL     1       2.068   8.555  17.855  0.00  0.00    +0.000 OA
ATOM      9  C   UNL     1       2.663   7.369  18.416  0.00  0.00    +0.000 C 
ATOM     10  O   UNL     1       2.328   7.159  19.804  0.00  0.00    +0.000 OA
ENDBRANCH   1   2
BRANCH   1  14
ATOM     11  C   UNL     1      -4.357  12.561  21.766  0.00  0.00    +0.000 A 
ATOM     12  C   UNL     1      -3.332  12.446  22.701  0.00  0.00    +0.000 A 
ATOM     13  C   UNL     1      -2.016  12.310  22.279  0.00  0.00    +0.000 A 
ATOM     14  C   UNL     1      -1.668  12.287  20.915  0.00  0.00    +0.000 A 
ATOM     15  C   UNL     1      -2.712  12.434  19.974  0.00  0.00    +0.000 A 
ATOM     16  C   UNL     1      -4.043  12.549  20.407  0.00  0.00    +0.000 A 
BRANCH  11  18
ATOM     17  C   UNL     1      -6.704  12.309  21.483  0.00  0.00    +0.000 C 
ATOM     18  O   UNL     1      -5.608  12.687  22.303  0.00  0.00    +0.000 OA
ENDBRANCH  11  18
BRANCH  13  19
ATOM     19  O   UNL     1      -1.046  12.238  23.231  0.00  0.00    +0.000 OA
ATOM     20  H   UNL     1      -0.249  11.844  22.841  0.00  0.00    +0.000 HD
ENDBRANCH  13  19
BRANCH  15  21
ATOM     21  O   UNL     1      -2.358  12.439  18.645  0.00  0.00    +0.000 OA
ATOM     22  C   UNL     1      -2.793  11.325  17.865  0.00  0.00    +0.000 C 
ENDBRANCH  15  21
ENDBRANCH   1  14
BRANCH   1  23
ATOM     23  C   UNL     1       0.720  13.113  21.268  0.00  0.00    +0.000 C 
BRANCH  23  24
ATOM     24  C   UNL     1       0.916  14.536  20.745  0.00  0.00    +0.000 C 
ATOM     25  O   UNL     1      -0.000  15.338  20.577  0.00  0.00    +0.000 OA
ATOM     26  N   UNL     1       2.231  14.883  20.438  0.00  0.00    +0.000 N 
ATOM     27  C   UNL     1       2.513  16.274  20.095  0.00  0.00    +0.000 C 
ATOM     28  C   UNL     1       2.619  16.461  18.577  0.00  0.00    +0.000 C 
ATOM     29  C   UNL     1       3.580  15.440  17.921  0.00  0.00    +0.000 C 
ATOM     30  C   UNL     1       3.158  14.023  18.370  0.00  0.00    +0.000 C 
ATOM     31  C   UNL     1       3.177  13.916  19.892  0.00  0.00    +0.000 C 
BRANCH  29  32
ATOM     32  C   UNL     1       5.075  15.683  18.130  0.00  0.00    +0.000 A 
ATOM     33  C   UNL     1       5.595  16.867  18.677  0.00  0.00    +0.000 A 
ATOM     34  C   UNL     1       6.969  17.040  18.860  0.00  0.00    +0.000 A 
ATOM     35  C   UNL     1       7.856  16.040  18.481  0.00  0.00    +0.000 A 
ATOM     36  C   UNL     1       7.368  14.865  17.916  0.00  0.00    +0.000 A 
ATOM     37  C   UNL     1       5.994  14.692  17.740  0.00  0.00    +0.000 A 
ENDBRANCH  29  32
ENDBRANCH  23  24
ENDBRANCH   1  23
TORSDOF 8
ENDMDL
MODEL 7
REMARK VINA RESULT:      -7.3      1.043      1.484
REMARK  Name = 
REMARK  10 active torsions:
REMARK  status: ('A' for Active; 'I' for Inactive)
REMARK    1  A    between atoms: C_1  and  O_2
REMARK    2  A    between atoms: O_2  and  C_3
REMARK    3  A    between atoms: C_5  and  O_6
REMARK    4  A    between atoms: C_7  and  C_8
REMARK    5  A    between atoms: C_8  and  C_9
REMARK    6  A    between atoms: C_8  and  C_24
REMARK    7  A    between atoms: C_9  and  C_10
REMARK    8  A    between atoms: C_15  and  C_16
REMARK    9  A    between atoms: C_33  and  O_34
REMARK   10  A    between atoms: O_34  and  C_35
REMARK                            x       y       z     vdW  Elec       q    Type
REMARK                         _______ _______ _______ _____ _____    ______ ____
ROOT
ATOM      1  C   UNL     1       0.397  11.799  19.795  0.00  0.00    +0.000 C 
ENDROOT
BRANCH   1   2
ATOM      2  C   UNL     1      -1.070  11.972  19.357  0.00  0.00    +0.000 A 
ATOM      3  C   UNL     1      -2.026  12.400  20.318  0.00  0.00    +0.000 A 
ATOM      4  C   UNL     1      -3.399  12.390  20.038  0.00  0.00    +0.000 A 
ATOM      5  C   UNL     1      -3.797  11.964  18.792  0.00  0.00    +0.000 A 
ATOM      6  C   UNL     1      -2.884  11.608  17.832  0.00  0.00    +0.000 A 
ATOM      7  C   UNL     1      -1.527  11.620  18.073  0.00  0.00    +0.000 A 
ATOM      8  O   UNL     1      -3.473  11.209  16.672  0.00  0.00    +0.000 OA
ATOM      9  C   UNL     1      -4.863  11.285  17.040  0.00  0.00    +0.000 C 
ATOM     10  O   UNL     1      -5.080  11.815  18.365  0.00  0.00    +0.000 OA
ENDBRANCH   1   2
BRANCH   1  14
ATOM     11  C   UNL     1       1.918   7.707  19.978  0.00  0.00    +0.000 A 
ATOM     12  C   UNL     1       1.921   8.407  18.774  0.00  0.00    +0.000 A 
ATOM     13  C   UNL     1       1.422   9.702  18.721  0.00  0.00    +0.000 A 
ATOM     14  C   UNL     1       0.907  10.351  19.858  0.00  0.00    +0.000 A 
ATOM     15  C   UNL     1       0.936   9.644  21.081  0.00  0.00    +0.000 A 
ATOM     16  C   UNL     1       1.421   8.326  21.124  0.00  0.00    +0.000 A 
BRANCH  11  18
ATOM     17  C   UNL     1       1.745   5.423  20.616  0.00  0.00    +0.000 C 
ATOM     18  O   UNL     1       2.432   6.442  19.903  0.00  0.00    +0.000 OA
ENDBRANCH  11  18
BRANCH  13  19
ATOM     19  O   UNL     1       1.480  10.357  17.530  0.00  0.00    +0.000 OA
ATOM     20  H   UNL     1       1.103  11.246  17.639  0.00  0.00    +0.000 HD
ENDBRANCH  13  19
BRANCH  15  21
ATOM     21  O   UNL     1       0.456  10.297  22.193  0.00  0.00    +0.000 OA
ATOM     22  C   UNL     1      -0.350   9.530  23.085  0.00  0.00    +0.000 C 
ENDBRANCH  15  21
ENDBRANCH   1  14
BRANCH   1  23
ATOM     23  C   UNL     1       1.409  12.736  19.105  0.00  0.00    +0.000 C 
BRANCH  23  24
ATOM     24  C   UNL     1       1.720  14.067  19.790  0.00  0.00    +0.000 C 
ATOM     25  O   UNL     1       0.869  14.790  20.305  0.00  0.00    +0.000 OA
ATOM     26  N   UNL     1       3.062  14.444  19.782  0.00  0.00    +0.000 N 
ATOM     27  C   UNL     1       3.453  15.616  20.561  0.00  0.00    +0.000 C 
ATOM     28  C   UNL     1       3.600  16.852  19.667  0.00  0.00    +0.000 C 
ATOM     29  C   UNL     1       4.495  16.587  18.432  0.00  0.00    +0.000 C 
ATOM     30  C   UNL     1       3.961  15.328  17.712  0.00  0.00    +0.000 C 
ATOM     31  C   UNL     1       3.944  14.134  18.662  0.00  0.00    +0.000 C 
BRANCH  29  32
ATOM     32  C   UNL     1       6.000  16.502  18.690  0.00  0.00    +0.000 A 
ATOM     33  C   UNL     1       6.837  15.564  18.066  0.00  0.00    +0.000 A 
ATOM     34  C   UNL     1       8.210  15.531  18.324  0.00  0.00    +0.000 A 
ATOM     35  C   UNL     1       8.772  16.423  19.228  0.00  0.00    +0.000 A 
ATOM     36  C   UNL     1       7.961  17.349  19.876  0.00  0.00    +0.000 A 
ATOM     37  C   UNL     1       6.590  17.385  19.612  0.00  0.00    +0.000 A 
ENDBRANCH  29  32
ENDBRANCH  23  24
ENDBRANCH   1  23
TORSDOF 8
ENDMDL
MODEL 8
REMARK VINA RESULT:      -7.2      1.215      1.898
REMARK  Name = 
REMARK  10 active torsions:
REMARK  status: ('A' for Active; 'I' for Inactive)
REMARK    1  A    between atoms: C_1  and  O_2
REMARK    2  A    between atoms: O_2  and  C_3
REMARK    3  A    between atoms: C_5  and  O_6
REMARK    4  A    between atoms: C_7  and  C_8
REMARK    5  A    between atoms: C_8  and  C_9
REMARK    6  A    between atoms: C_8  and  C_24
REMARK    7  A    between atoms: C_9  and  C_10
REMARK    8  A    between atoms: C_15  and  C_16
REMARK    9  A    between atoms: C_33  and  O_34
REMARK   10  A    between atoms: O_34  and  C_35
REMARK                            x       y       z     vdW  Elec       q    Type
REMARK                         _______ _______ _______ _____ _____    ______ ____
ROOT
ATOM      1  C   UNL     1       0.446  11.759  19.627  0.00  0.00    +0.000 C 
ENDROOT
BRANCH   1   2
ATOM      2  C   UNL     1      -1.038  11.940  19.250  0.00  0.00    +0.000 A 
ATOM      3  C   UNL     1      -1.939  12.432  20.231  0.00  0.00    +0.000 A 
ATOM      4  C   UNL     1      -3.324  12.436  20.017  0.00  0.00    +0.000 A 
ATOM      5  C   UNL     1      -3.788  11.958  18.813  0.00  0.00    +0.000 A 
ATOM      6  C   UNL     1      -2.928  11.539  17.830  0.00  0.00    +0.000 A 
ATOM      7  C   UNL     1      -1.560  11.535  18.006  0.00  0.00    +0.000 A 
ATOM      8  O   UNL     1      -3.578  11.095  16.719  0.00  0.00    +0.000 OA
ATOM      9  C   UNL     1      -4.948  11.217  17.147  0.00  0.00    +0.000 C 
ATOM     10  O   UNL     1      -5.091  11.814  18.454  0.00  0.00    +0.000 OA
ENDBRANCH   1   2
BRANCH   1  14
ATOM     11  C   UNL     1       1.904   7.652  19.936  0.00  0.00    +0.000 A 
ATOM     12  C   UNL     1       1.958   8.329  18.721  0.00  0.00    +0.000 A 
ATOM     13  C   UNL     1       1.478   9.629  18.626  0.00  0.00    +0.000 A 
ATOM     14  C   UNL     1       0.934  10.307  19.733  0.00  0.00    +0.000 A 
ATOM     15  C   UNL     1       0.911   9.621  20.969  0.00  0.00    +0.000 A 
ATOM     16  C   UNL     1       1.376   8.298  21.053  0.00  0.00    +0.000 A 
BRANCH  11  18
ATOM     17  C   UNL     1       1.736   5.403  20.689  0.00  0.00    +0.000 C 
ATOM     18  O   UNL     1       2.403   6.380  19.902  0.00  0.00    +0.000 OA
ENDBRANCH  11  18
BRANCH  13  19
ATOM     19  O   UNL     1       1.586  10.262  17.427  0.00  0.00    +0.000 OA
ATOM     20  H   UNL     1       0.696  10.474  17.099  0.00  0.00    +0.000 HD
ENDBRANCH  13  19
BRANCH  15  21
ATOM     21  O   UNL     1       0.402  10.302  22.051  0.00  0.00    +0.000 OA
ATOM     22  C   UNL     1       0.106   9.525  23.211  0.00  0.00    +0.000 C 
ENDBRANCH  15  21
ENDBRANCH   1  14
BRANCH   1  23
ATOM     23  C   UNL     1       1.440  12.644  18.848  0.00  0.00    +0.000 C 
BRANCH  23  24
ATOM     24  C   UNL     1       1.340  14.157  19.042  0.00  0.00    +0.000 C 
ATOM     25  O   UNL     1       0.329  14.815  18.806  0.00  0.00    +0.000 OA
ATOM     26  N   UNL     1       2.503  14.779  19.496  0.00  0.00    +0.000 N 
ATOM     27  C   UNL     1       2.431  16.191  19.862  0.00  0.00    +0.000 C 
ATOM     28  C   UNL     1       2.969  17.084  18.739  0.00  0.00    +0.000 C 
ATOM     29  C   UNL     1       4.362  16.631  18.238  0.00  0.00    +0.000 C 
ATOM     30  C   UNL     1       4.283  15.128  17.888  0.00  0.00    +0.000 C 
ATOM     31  C   UNL     1       3.829  14.319  19.100  0.00  0.00    +0.000 C 
BRANCH  29  32
ATOM     32  C   UNL     1       5.547  16.942  19.154  0.00  0.00    +0.000 A 
ATOM     33  C   UNL     1       5.461  17.800  20.260  0.00  0.00    +0.000 A 
ATOM     34  C   UNL     1       6.569  18.045  21.076  0.00  0.00    +0.000 A 
ATOM     35  C   UNL     1       7.792  17.454  20.790  0.00  0.00    +0.000 A 
ATOM     36  C   UNL     1       7.909  16.614  19.685  0.00  0.00    +0.000 A 
ATOM     37  C   UNL     1       6.800  16.366  18.876  0.00  0.00    +0.000 A 
ENDBRANCH  29  32
ENDBRANCH  23  24
ENDBRANCH   1  23
TORSDOF 8
ENDMDL
MODEL 9
REMARK VINA RESULT:      -7.2      2.800      7.944
REMARK  Name = 
REMARK  10 active torsions:
REMARK  status: ('A' for Active; 'I' for Inactive)
REMARK    1  A    between atoms: C_1  and  O_2
REMARK    2  A    between atoms: O_2  and  C_3
REMARK    3  A    between atoms: C_5  and  O_6
REMARK    4  A    between atoms: C_7  and  C_8
REMARK    5  A    between atoms: C_8  and  C_9
REMARK    6  A    between atoms: C_8  and  C_24
REMARK    7  A    between atoms: C_9  and  C_10
REMARK    8  A    between atoms: C_15  and  C_16
REMARK    9  A    between atoms: C_33  and  O_34
REMARK   10  A    between atoms: O_34  and  C_35
REMARK                            x       y       z     vdW  Elec       q    Type
REMARK                         _______ _______ _______ _____ _____    ______ ____
ROOT
ATOM      1  C   UNL     1      -0.358  12.530  19.539  0.00  0.00    +0.000 C 
ENDROOT
BRANCH   1   2
ATOM      2  C   UNL     1       0.277  13.843  19.042  0.00  0.00    +0.000 A 
ATOM      3  C   UNL     1       1.659  13.855  18.714  0.00  0.00    +0.000 A 
ATOM      4  C   UNL     1       2.337  15.052  18.444  0.00  0.00    +0.000 A 
ATOM      5  C   UNL     1       1.615  16.223  18.493  0.00  0.00    +0.000 A 
ATOM      6  C   UNL     1       0.267  16.223  18.745  0.00  0.00    +0.000 A 
ATOM      7  C   UNL     1      -0.430  15.061  19.002  0.00  0.00    +0.000 A 
ATOM      8  O   UNL     1      -0.263  17.476  18.760  0.00  0.00    +0.000 OA
ATOM      9  C   UNL     1       0.923  18.268  18.560  0.00  0.00    +0.000 C 
ATOM     10  O   UNL     1       2.111  17.479  18.335  0.00  0.00    +0.000 OA
ENDBRANCH   1   2
BRANCH   1  14
ATOM     11  C   UNL     1      -4.620  11.989  18.741  0.00  0.00    +0.000 A 
ATOM     12  C   UNL     1      -3.676  11.691  17.762  0.00  0.00    +0.000 A 
ATOM     13  C   UNL     1      -2.324  11.880  18.017  0.00  0.00    +0.000 A 
ATOM     14  C   UNL     1      -1.858  12.365  19.253  0.00  0.00    +0.000 A 
ATOM     15  C   UNL     1      -2.822  12.636  20.251  0.00  0.00    +0.000 A 
ATOM     16  C   UNL     1      -4.189  12.465  19.979  0.00  0.00    +0.000 A 
BRANCH  11  18
ATOM     17  C   UNL     1      -6.929  12.215  19.259  0.00  0.00    +0.000 C 
ATOM     18  O   UNL     1      -5.916  11.764  18.371  0.00  0.00    +0.000 OA
ENDBRANCH  11  18
BRANCH  13  19
ATOM     19  O   UNL     1      -1.438  11.540  17.042  0.00  0.00    +0.000 OA
ATOM     20  H   UNL     1      -1.191  12.339  16.547  0.00  0.00    +0.000 HD
ENDBRANCH  13  19
BRANCH  15  21
ATOM     21  O   UNL     1      -2.355  13.084  21.465  0.00  0.00    +0.000 OA
ATOM     22  C   UNL     1      -2.566  12.226  22.585  0.00  0.00    +0.000 C 
ENDBRANCH  15  21
ENDBRANCH   1  14
BRANCH   1  23
ATOM     23  C   UNL     1       0.434  11.247  19.214  0.00  0.00    +0.000 C 
BRANCH  23  24
ATOM     24  C   UNL     1       0.765  10.308  20.374  0.00  0.00    +0.000 C 
ATOM     25  O   UNL     1       1.106  10.691  21.491  0.00  0.00    +0.000 OA
ATOM     26  N   UNL     1       0.679   8.947  20.084  0.00  0.00    +0.000 N 
ATOM     27  C   UNL     1       0.818   7.998  21.185  0.00  0.00    +0.000 C 
ATOM     28  C   UNL     1       2.231   7.406  21.233  0.00  0.00    +0.000 C 
ATOM     29  C   UNL     1       2.689   6.854  19.861  0.00  0.00    +0.000 C 
ATOM     30  C   UNL     1       2.487   7.963  18.804  0.00  0.00    +0.000 C 
ATOM     31  C   UNL     1       1.030   8.414  18.772  0.00  0.00    +0.000 C 
BRANCH  29  32
ATOM     32  C   UNL     1       2.068   5.527  19.422  0.00  0.00    +0.000 A 
ATOM     33  C   UNL     1       1.406   4.657  20.303  0.00  0.00    +0.000 A 
ATOM     34  C   UNL     1       0.843   3.459  19.853  0.00  0.00    +0.000 A 
ATOM     35  C   UNL     1       0.948   3.096  18.517  0.00  0.00    +0.000 A 
ATOM     36  C   UNL     1       1.618   3.932  17.627  0.00  0.00    +0.000 A 
ATOM     37  C   UNL     1       2.174   5.131  18.077  0.00  0.00    +0.000 A 
ENDBRANCH  29  32
ENDBRANCH  23  24
ENDBRANCH   1  23
TORSDOF 8
ENDMDL
