MODEL 1
REMARK VINA RESULT:      -7.5      0.000      0.000
REMARK  Name = 
REMARK  9 active torsions:
REMARK  status: ('A' for Active; 'I' for Inactive)
REMARK    1  A    between atoms: C_1  and  C_2
REMARK    2  A    between atoms: C_2  and  C_3
REMARK    3  A    between atoms: C_3  and  C_4
REMARK    4  A    between atoms: C_3  and  N_6
REMARK    5  A    between atoms: C_4  and  C_5
REMARK    6  A    between atoms: N_6  and  C_7
REMARK    7  A    between atoms: N_6  and  C_18
REMARK    8  A    between atoms: C_7  and  C_8
REMARK    9  A    between atoms: C_13  and  C_14
REMARK                            x       y       z     vdW  Elec       q    Type
REMARK                         _______ _______ _______ _____ _____    ______ ____
ROOT
ATOM      1  N   UNL     1       2.967   5.383  18.884  0.00  0.00    +0.000 NA
ENDROOT
BRANCH   1   2
ATOM      2  C   UNL     1       2.559   4.381  19.933  0.00  0.00    +0.000 C 
ATOM      3  C   UNL     1       3.399   3.089  20.117  0.00  0.00    +0.000 C 
ATOM      4  C   UNL     1       3.209   2.064  19.004  0.00  0.00    +0.000 C 
ATOM      5  N   UNL     1       1.815   1.632  18.926  0.00  0.00    +0.000 NA
ATOM      6  C   UNL     1       0.963   2.795  18.664  0.00  0.00    +0.000 C 
ATOM      7  C   UNL     1       1.101   3.856  19.760  0.00  0.00    +0.000 C 
ATOM      8  H   UNL     1       1.547   1.207  19.813  0.00  0.00    +0.000 HD
ENDBRANCH   1   2
BRANCH   1   9
ATOM      9  C   UNL     1       2.199   6.717  19.025  0.00  0.00    +0.000 C 
BRANCH   9  11
ATOM     10  C   UNL     1       0.903   7.785  21.069  0.00  0.00    +0.000 C 
ATOM     11  C   UNL     1       2.216   7.281  20.485  0.00  0.00    +0.000 C 
ENDBRANCH   9  11
BRANCH   9  12
ATOM     12  C   UNL     1       2.675   7.740  17.946  0.00  0.00    +0.000 C 
ATOM     13  C   UNL     1       1.892   9.048  17.857  0.00  0.00    +0.000 C 
ENDBRANCH   9  12
ENDBRANCH   1   9
BRANCH   1  14
ATOM     14  C   UNL     1       4.419   5.702  18.805  0.00  0.00    +0.000 C 
BRANCH  14  15
ATOM     15  C   UNL     1       5.283   5.242  17.650  0.00  0.00    +0.000 A 
ATOM     16  C   UNL     1       4.594   4.739  16.514  0.00  0.00    +0.000 A 
ATOM     17  C   UNL     1       5.268   4.238  15.408  0.00  0.00    +0.000 A 
ATOM     18  C   UNL     1       6.652   4.208  15.407  0.00  0.00    +0.000 A 
ATOM     19  C   UNL     1       7.354   4.685  16.516  0.00  0.00    +0.000 A 
ATOM     20  C   UNL     1       6.696   5.206  17.654  0.00  0.00    +0.000 A 
BRANCH  20  21
ATOM     21  C   UNL     1       7.585   5.664  18.793  0.00  0.00    +0.000 C 
ATOM     22  F   UNL     1       8.050   6.935  18.729  0.00  0.00    +0.000 F 
ATOM     23  F   UNL     1       6.947   5.573  19.996  0.00  0.00    +0.000 F 
ATOM     24  F   UNL     1       8.690   4.869  18.922  0.00  0.00    +0.000 F 
ENDBRANCH  20  21
ENDBRANCH  14  15
ENDBRANCH   1  14
TORSDOF 7
ENDMDL
MODEL 2
REMARK VINA RESULT:      -7.4      0.379      1.566
REMARK  Name = 
REMARK  9 active torsions:
REMARK  status: ('A' for Active; 'I' for Inactive)
REMARK    1  A    between atoms: C_1  and  C_2
REMARK    2  A    between atoms: C_2  and  C_3
REMARK    3  A    between atoms: C_3  and  C_4
REMARK    4  A    between atoms: C_3  and  N_6
REMARK    5  A    between atoms: C_4  and  C_5
REMARK    6  A    between atoms: N_6  and  C_7
REMARK    7  A    between atoms: N_6  and  C_18
REMARK    8  A    between atoms: C_7  and  C_8
REMARK    9  A    between atoms: C_13  and  C_14
REMARK                            x       y       z     vdW  Elec       q    Type
REMARK                         _______ _______ _______ _____ _____    ______ ____
ROOT
ATOM      1  N   UNL     1       3.045   5.451  19.082  0.00  0.00    +0.000 NA
ENDROOT
BRANCH   1   2
ATOM      2  C   UNL     1       2.434   4.406  19.980  0.00  0.00    +0.000 C 
ATOM      3  C   UNL     1       3.278   3.169  20.389  0.00  0.00    +0.000 C 
ATOM      4  C   UNL     1       3.471   2.154  19.269  0.00  0.00    +0.000 C 
ATOM      5  N   UNL     1       2.185   1.631  18.810  0.00  0.00    +0.000 NA
ATOM      6  C   UNL     1       1.360   2.740  18.323  0.00  0.00    +0.000 C 
ATOM      7  C   UNL     1       1.119   3.789  19.414  0.00  0.00    +0.000 C 
ATOM      8  H   UNL     1       1.714   1.174  19.591  0.00  0.00    +0.000 HD
ENDBRANCH   1   2
BRANCH   1   9
ATOM      9  C   UNL     1       2.524   6.870  19.406  0.00  0.00    +0.000 C 
BRANCH   9  11
ATOM     10  C   UNL     1       2.304   8.980  17.825  0.00  0.00    +0.000 C 
ATOM     11  C   UNL     1       1.851   7.569  18.178  0.00  0.00    +0.000 C 
ENDBRANCH   9  11
BRANCH   9  12
ATOM     12  C   UNL     1       1.633   6.848  20.688  0.00  0.00    +0.000 C 
ATOM     13  C   UNL     1       1.152   8.201  21.205  0.00  0.00    +0.000 C 
ENDBRANCH   9  12
ENDBRANCH   1   9
BRANCH   1  14
ATOM     14  C   UNL     1       4.531   5.509  19.053  0.00  0.00    +0.000 C 
BRANCH  14  15
ATOM     15  C   UNL     1       5.329   5.136  17.820  0.00  0.00    +0.000 A 
ATOM     16  C   UNL     1       4.579   4.667  16.709  0.00  0.00    +0.000 A 
ATOM     17  C   UNL     1       5.191   4.243  15.536  0.00  0.00    +0.000 A 
ATOM     18  C   UNL     1       6.571   4.261  15.441  0.00  0.00    +0.000 A 
ATOM     19  C   UNL     1       7.333   4.706  16.524  0.00  0.00    +0.000 A 
ATOM     20  C   UNL     1       6.739   5.148  17.728  0.00  0.00    +0.000 A 
BRANCH  20  21
ATOM     21  C   UNL     1       7.690   5.581  18.827  0.00  0.00    +0.000 C 
ATOM     22  F   UNL     1       7.189   5.621  20.085  0.00  0.00    +0.000 F 
ATOM     23  F   UNL     1       8.780   4.762  18.898  0.00  0.00    +0.000 F 
ATOM     24  F   UNL     1       8.202   6.826  18.589  0.00  0.00    +0.000 F 
ENDBRANCH  20  21
ENDBRANCH  14  15
ENDBRANCH   1  14
TORSDOF 7
ENDMDL
MODEL 3
REMARK VINA RESULT:      -7.4      0.875      1.336
REMARK  Name = 
REMARK  9 active torsions:
REMARK  status: ('A' for Active; 'I' for Inactive)
REMARK    1  A    between atoms: C_1  and  C_2
REMARK    2  A    between atoms: C_2  and  C_3
REMARK    3  A    between atoms: C_3  and  C_4
REMARK    4  A    between atoms: C_3  and  N_6
REMARK    5  A    between atoms: C_4  and  C_5
REMARK    6  A    between atoms: N_6  and  C_7
REMARK    7  A    between atoms: N_6  and  C_18
REMARK    8  A    between atoms: C_7  and  C_8
REMARK    9  A    between atoms: C_13  and  C_14
REMARK                            x       y       z     vdW  Elec       q    Type
REMARK                         _______ _______ _______ _____ _____    ______ ____
ROOT
ATOM      1  N   UNL     1       3.079   5.217  18.744  0.00  0.00    +0.000 NA
ENDROOT
BRANCH   1   2
ATOM      2  C   UNL     1       2.756   4.181  19.790  0.00  0.00    +0.000 C 
ATOM      3  C   UNL     1       3.579   2.866  19.836  0.00  0.00    +0.000 C 
ATOM      4  C   UNL     1       3.253   1.891  18.710  0.00  0.00    +0.000 C 
ATOM      5  N   UNL     1       1.848   1.490  18.758  0.00  0.00    +0.000 NA
ATOM      6  C   UNL     1       1.002   2.680  18.630  0.00  0.00    +0.000 C 
ATOM      7  C   UNL     1       1.276   3.693  19.747  0.00  0.00    +0.000 C 
ATOM      8  H   UNL     1       1.662   1.035  19.651  0.00  0.00    +0.000 HD
ENDBRANCH   1   2
BRANCH   1   9
ATOM      9  C   UNL     1       2.327   6.545  18.991  0.00  0.00    +0.000 C 
BRANCH   9  11
ATOM     10  C   UNL     1       1.205   7.949  20.931  0.00  0.00    +0.000 C 
ATOM     11  C   UNL     1       2.261   6.938  20.504  0.00  0.00    +0.000 C 
ENDBRANCH   9  11
BRANCH   9  12
ATOM     12  C   UNL     1       2.890   7.672  18.068  0.00  0.00    +0.000 C 
ATOM     13  C   UNL     1       1.917   8.785  17.685  0.00  0.00    +0.000 C 
ENDBRANCH   9  12
ENDBRANCH   1   9
BRANCH   1  14
ATOM     14  C   UNL     1       4.520   5.540  18.558  0.00  0.00    +0.000 C 
BRANCH  14  15
ATOM     15  C   UNL     1       5.258   5.221  17.274  0.00  0.00    +0.000 A 
ATOM     16  C   UNL     1       4.743   4.142  16.508  0.00  0.00    +0.000 A 
ATOM     17  C   UNL     1       5.355   3.714  15.337  0.00  0.00    +0.000 A 
ATOM     18  C   UNL     1       6.511   4.340  14.902  0.00  0.00    +0.000 A 
ATOM     19  C   UNL     1       7.046   5.395  15.644  0.00  0.00    +0.000 A 
ATOM     20  C   UNL     1       6.442   5.857  16.837  0.00  0.00    +0.000 A 
BRANCH  20  21
ATOM     21  C   UNL     1       7.146   6.994  17.549  0.00  0.00    +0.000 C 
ATOM     22  F   UNL     1       7.692   6.712  18.757  0.00  0.00    +0.000 F 
ATOM     23  F   UNL     1       8.170   7.499  16.800  0.00  0.00    +0.000 F 
ATOM     24  F   UNL     1       6.309   8.054  17.757  0.00  0.00    +0.000 F 
ENDBRANCH  20  21
ENDBRANCH  14  15
ENDBRANCH   1  14
TORSDOF 7
ENDMDL
MODEL 4
REMARK VINA RESULT:      -7.1      0.919      1.732
REMARK  Name = 
REMARK  9 active torsions:
REMARK  status: ('A' for Active; 'I' for Inactive)
REMARK    1  A    between atoms: C_1  and  C_2
REMARK    2  A    between atoms: C_2  and  C_3
REMARK    3  A    between atoms: C_3  and  C_4
REMARK    4  A    between atoms: C_3  and  N_6
REMARK    5  A    between atoms: C_4  and  C_5
REMARK    6  A    between atoms: N_6  and  C_7
REMARK    7  A    between atoms: N_6  and  C_18
REMARK    8  A    between atoms: C_7  and  C_8
REMARK    9  A    between atoms: C_13  and  C_14
REMARK                            x       y       z     vdW  Elec       q    Type
REMARK                         _______ _______ _______ _____ _____    ______ ____
ROOT
ATOM      1  N   UNL     1       3.249   5.215  18.930  0.00  0.00    +0.000 NA
ENDROOT
BRANCH   1   2
ATOM      2  C   UNL     1       2.734   4.201  19.919  0.00  0.00    +0.000 C 
ATOM      3  C   UNL     1       3.507   2.869  20.114  0.00  0.00    +0.000 C 
ATOM      4  C   UNL     1       3.348   1.886  18.959  0.00  0.00    +0.000 C 
ATOM      5  N   UNL     1       1.945   1.516  18.779  0.00  0.00    +0.000 NA
ATOM      6  C   UNL     1       1.160   2.722  18.501  0.00  0.00    +0.000 C 
ATOM      7  C   UNL     1       1.270   3.744  19.637  0.00  0.00    +0.000 C 
ATOM      8  H   UNL     1       1.604   1.077  19.634  0.00  0.00    +0.000 HD
ENDBRANCH   1   2
BRANCH   1   9
ATOM      9  C   UNL     1       2.746   6.642  19.246  0.00  0.00    +0.000 C 
BRANCH   9  11
ATOM     10  C   UNL     1       2.430   8.827  17.789  0.00  0.00    +0.000 C 
ATOM     11  C   UNL     1       2.108   7.354  18.007  0.00  0.00    +0.000 C 
ENDBRANCH   9  11
BRANCH   9  12
ATOM     12  C   UNL     1       1.830   6.632  20.511  0.00  0.00    +0.000 C 
ATOM     13  C   UNL     1       1.393   7.994  21.045  0.00  0.00    +0.000 C 
ENDBRANCH   9  12
ENDBRANCH   1   9
BRANCH   1  14
ATOM     14  C   UNL     1       4.726   5.282  18.762  0.00  0.00    +0.000 C 
BRANCH  14  15
ATOM     15  C   UNL     1       5.396   5.051  17.424  0.00  0.00    +0.000 A 
ATOM     16  C   UNL     1       4.942   3.928  16.682  0.00  0.00    +0.000 A 
ATOM     17  C   UNL     1       5.508   3.573  15.464  0.00  0.00    +0.000 A 
ATOM     18  C   UNL     1       6.556   4.321  14.955  0.00  0.00    +0.000 A 
ATOM     19  C   UNL     1       7.031   5.423  15.670  0.00  0.00    +0.000 A 
ATOM     20  C   UNL     1       6.472   5.810  16.910  0.00  0.00    +0.000 A 
BRANCH  20  21
ATOM     21  C   UNL     1       7.103   7.012  17.585  0.00  0.00    +0.000 C 
ATOM     22  F   UNL     1       6.287   8.057  17.857  0.00  0.00    +0.000 F 
ATOM     23  F   UNL     1       7.671   6.675  18.780  0.00  0.00    +0.000 F 
ATOM     24  F   UNL     1       8.130   7.525  16.843  0.00  0.00    +0.000 F 
ENDBRANCH  20  21
ENDBRANCH  14  15
ENDBRANCH   1  14
TORSDOF 7
ENDMDL
MODEL 5
REMARK VINA RESULT:      -6.8      3.239      5.939
REMARK  Name = 
REMARK  9 active torsions:
REMARK  status: ('A' for Active; 'I' for Inactive)
REMARK    1  A    between atoms: C_1  and  C_2
REMARK    2  A    between atoms: C_2  and  C_3
REMARK    3  A    between atoms: C_3  and  C_4
REMARK    4  A    between atoms: C_3  and  N_6
REMARK    5  A    between atoms: C_4  and  C_5
REMARK    6  A    between atoms: N_6  and  C_7
REMARK    7  A    between atoms: N_6  and  C_18
REMARK    8  A    between atoms: C_7  and  C_8
REMARK    9  A    between atoms: C_13  and  C_14
REMARK                            x       y       z     vdW  Elec       q    Type
REMARK                         _______ _______ _______ _____ _____    ______ ____
ROOT
ATOM      1  N   UNL     1       2.986   5.648  18.950  0.00  0.00    +0.000 NA
ENDROOT
BRANCH   1   2
ATOM      2  C   UNL     1       4.480   5.552  18.781  0.00  0.00    +0.000 C 
ATOM      3  C   UNL     1       5.195   6.502  17.783  0.00  0.00    +0.000 C 
ATOM      4  C   UNL     1       4.964   6.149  16.318  0.00  0.00    +0.000 C 
ATOM      5  N   UNL     1       5.459   4.807  16.021  0.00  0.00    +0.000 NA
ATOM      6  C   UNL     1       4.761   3.837  16.869  0.00  0.00    +0.000 C 
ATOM      7  C   UNL     1       4.969   4.133  18.358  0.00  0.00    +0.000 C 
ATOM      8  H   UNL     1       6.459   4.771  16.214  0.00  0.00    +0.000 HD
ENDBRANCH   1   2
BRANCH   1   9
ATOM      9  C   UNL     1       2.364   4.303  19.391  0.00  0.00    +0.000 C 
BRANCH   9  11
ATOM     10  C   UNL     1       2.148   3.264  21.814  0.00  0.00    +0.000 C 
ATOM     11  C   UNL     1       1.750   4.356  20.830  0.00  0.00    +0.000 C 
ENDBRANCH   9  11
BRANCH   9  12
ATOM     12  C   UNL     1       1.378   3.772  18.302  0.00  0.00    +0.000 C 
ATOM     13  C   UNL     1       0.675   2.453  18.608  0.00  0.00    +0.000 C 
ENDBRANCH   9  12
ENDBRANCH   1   9
BRANCH   1  14
ATOM     14  C   UNL     1       2.493   6.702  19.878  0.00  0.00    +0.000 C 
BRANCH  14  15
ATOM     15  C   UNL     1       1.944   8.022  19.380  0.00  0.00    +0.000 A 
ATOM     16  C   UNL     1       2.396   8.445  18.102  0.00  0.00    +0.000 A 
ATOM     17  C   UNL     1       2.011   9.661  17.550  0.00  0.00    +0.000 A 
ATOM     18  C   UNL     1       1.173  10.500  18.266  0.00  0.00    +0.000 A 
ATOM     19  C   UNL     1       0.724  10.114  19.531  0.00  0.00    +0.000 A 
ATOM     20  C   UNL     1       1.095   8.881  20.115  0.00  0.00    +0.000 A 
BRANCH  20  21
ATOM     21  C   UNL     1       0.552   8.605  21.503  0.00  0.00    +0.000 C 
ATOM     22  F   UNL     1      -0.340   9.497  21.997  0.00  0.00    +0.000 F 
ATOM     23  F   UNL     1      -0.077   7.395  21.564  0.00  0.00    +0.000 F 
ATOM     24  F   UNL     1       1.553   8.526  22.430  0.00  0.00    +0.000 F 
ENDBRANCH  20  21
ENDBRANCH  14  15
ENDBRANCH   1  14
TORSDOF 7
ENDMDL
MODEL 6
REMARK VINA RESULT:      -6.8      0.700      1.171
REMARK  Name = 
REMARK  9 active torsions:
REMARK  status: ('A' for Active; 'I' for Inactive)
REMARK    1  A    between atoms: C_1  and  C_2
REMARK    2  A    between atoms: C_2  and  C_3
REMARK    3  A    between atoms: C_3  and  C_4
REMARK    4  A    between atoms: C_3  and  N_6
REMARK    5  A    between atoms: C_4  and  C_5
REMARK    6  A    between atoms: N_6  and  C_7
REMARK    7  A    between atoms: N_6  and  C_18
REMARK    8  A    between atoms: C_7  and  C_8
REMARK    9  A    between atoms: C_13  and  C_14
REMARK                            x       y       z     vdW  Elec       q    Type
REMARK                         _______ _______ _______ _____ _____    ______ ____
ROOT
ATOM      1  N   UNL     1       2.793   5.321  18.378  0.00  0.00    +0.000 NA
ENDROOT
BRANCH   1   2
ATOM      2  C   UNL     1       2.257   4.156  19.170  0.00  0.00    +0.000 C 
ATOM      3  C   UNL     1       3.161   3.484  20.237  0.00  0.00    +0.000 C 
ATOM      4  C   UNL     1       4.278   2.627  19.652  0.00  0.00    +0.000 C 
ATOM      5  N   UNL     1       3.731   1.539  18.843  0.00  0.00    +0.000 NA
ATOM      6  C   UNL     1       2.931   2.104  17.753  0.00  0.00    +0.000 C 
ATOM      7  C   UNL     1       1.780   2.966  18.283  0.00  0.00    +0.000 C 
ATOM      8  H   UNL     1       3.140   0.952  19.431  0.00  0.00    +0.000 HD
ENDBRANCH   1   2
BRANCH   1   9
ATOM      9  C   UNL     1       2.031   6.631  18.685  0.00  0.00    +0.000 C 
BRANCH   9  11
ATOM     10  C   UNL     1       1.223   7.661  20.984  0.00  0.00    +0.000 C 
ATOM     11  C   UNL     1       2.378   7.224  20.091  0.00  0.00    +0.000 C 
ENDBRANCH   9  11
BRANCH   9  12
ATOM     12  C   UNL     1       2.196   7.648  17.511  0.00  0.00    +0.000 C 
ATOM     13  C   UNL     1       2.277   9.123  17.897  0.00  0.00    +0.000 C 
ENDBRANCH   9  12
ENDBRANCH   1   9
BRANCH   1  14
ATOM     14  C   UNL     1       4.248   5.600  18.516  0.00  0.00    +0.000 C 
BRANCH  14  15
ATOM     15  C   UNL     1       5.239   5.276  17.417  0.00  0.00    +0.000 A 
ATOM     16  C   UNL     1       4.684   4.866  16.176  0.00  0.00    +0.000 A 
ATOM     17  C   UNL     1       5.482   4.490  15.102  0.00  0.00    +0.000 A 
ATOM     18  C   UNL     1       6.859   4.498  15.240  0.00  0.00    +0.000 A 
ATOM     19  C   UNL     1       7.431   4.884  16.454  0.00  0.00    +0.000 A 
ATOM     20  C   UNL     1       6.645   5.277  17.562  0.00  0.00    +0.000 A 
BRANCH  20  21
ATOM     21  C   UNL     1       7.400   5.648  18.823  0.00  0.00    +0.000 C 
ATOM     22  F   UNL     1       8.513   4.927  19.102  0.00  0.00    +0.000 F 
ATOM     23  F   UNL     1       7.810   6.950  18.797  0.00  0.00    +0.000 F 
ATOM     24  F   UNL     1       6.607   5.553  19.933  0.00  0.00    +0.000 F 
ENDBRANCH  20  21
ENDBRANCH  14  15
ENDBRANCH   1  14
TORSDOF 7
ENDMDL
MODEL 7
REMARK VINA RESULT:      -6.7      3.336      6.076
REMARK  Name = 
REMARK  9 active torsions:
REMARK  status: ('A' for Active; 'I' for Inactive)
REMARK    1  A    between atoms: C_1  and  C_2
REMARK    2  A    between atoms: C_2  and  C_3
REMARK    3  A    between atoms: C_3  and  C_4
REMARK    4  A    between atoms: C_3  and  N_6
REMARK    5  A    between atoms: C_4  and  C_5
REMARK    6  A    between atoms: N_6  and  C_7
REMARK    7  A    between atoms: N_6  and  C_18
REMARK    8  A    between atoms: C_7  and  C_8
REMARK    9  A    between atoms: C_13  and  C_14
REMARK                            x       y       z     vdW  Elec       q    Type
REMARK                         _______ _______ _______ _____ _____    ______ ____
ROOT
ATOM      1  N   UNL     1       2.717   5.907  18.944  0.00  0.00    +0.000 NA
ENDROOT
BRANCH   1   2
ATOM      2  C   UNL     1       4.208   6.003  18.745  0.00  0.00    +0.000 C 
ATOM      3  C   UNL     1       4.775   6.133  17.306  0.00  0.00    +0.000 C 
ATOM      4  C   UNL     1       4.707   4.843  16.495  0.00  0.00    +0.000 C 
ATOM      5  N   UNL     1       5.478   3.781  17.138  0.00  0.00    +0.000 NA
ATOM      6  C   UNL     1       4.940   3.540  18.480  0.00  0.00    +0.000 C 
ATOM      7  C   UNL     1       4.996   4.800  19.348  0.00  0.00    +0.000 C 
ATOM      8  H   UNL     1       6.452   4.073  17.210  0.00  0.00    +0.000 HD
ENDBRANCH   1   2
BRANCH   1   9
ATOM      9  C   UNL     1       2.280   4.488  19.373  0.00  0.00    +0.000 C 
BRANCH   9  11
ATOM     10  C   UNL     1       2.125   3.378  21.770  0.00  0.00    +0.000 C 
ATOM     11  C   UNL     1       1.641   4.451  20.802  0.00  0.00    +0.000 C 
ENDBRANCH   9  11
BRANCH   9  12
ATOM     12  C   UNL     1       1.394   3.830  18.268  0.00  0.00    +0.000 C 
ATOM     13  C   UNL     1       0.828   2.448  18.584  0.00  0.00    +0.000 C 
ENDBRANCH   9  12
ENDBRANCH   1   9
BRANCH   1  14
ATOM     14  C   UNL     1       2.115   6.876  19.901  0.00  0.00    +0.000 C 
BRANCH  14  15
ATOM     15  C   UNL     1       1.693   8.268  19.479  0.00  0.00    +0.000 A 
ATOM     16  C   UNL     1       2.206   8.728  18.237  0.00  0.00    +0.000 A 
ATOM     17  C   UNL     1       1.938  10.004  17.759  0.00  0.00    +0.000 A 
ATOM     18  C   UNL     1       1.161  10.867  18.513  0.00  0.00    +0.000 A 
ATOM     19  C   UNL     1       0.655  10.444  19.744  0.00  0.00    +0.000 A 
ATOM     20  C   UNL     1       0.907   9.149  20.255  0.00  0.00    +0.000 A 
BRANCH  20  21
ATOM     21  C   UNL     1       0.313   8.837  21.614  0.00  0.00    +0.000 C 
ATOM     22  F   UNL     1      -0.533   7.781  21.681  0.00  0.00    +0.000 F 
ATOM     23  F   UNL     1       1.284   8.581  22.539  0.00  0.00    +0.000 F 
ATOM     24  F   UNL     1      -0.379   9.902  22.119  0.00  0.00    +0.000 F 
ENDBRANCH  20  21
ENDBRANCH  14  15
ENDBRANCH   1  14
TORSDOF 7
ENDMDL
MODEL 8
REMARK VINA RESULT:      -6.7      2.561      5.624
REMARK  Name = 
REMARK  9 active torsions:
REMARK  status: ('A' for Active; 'I' for Inactive)
REMARK    1  A    between atoms: C_1  and  C_2
REMARK    2  A    between atoms: C_2  and  C_3
REMARK    3  A    between atoms: C_3  and  C_4
REMARK    4  A    between atoms: C_3  and  N_6
REMARK    5  A    between atoms: C_4  and  C_5
REMARK    6  A    between atoms: N_6  and  C_7
REMARK    7  A    between atoms: N_6  and  C_18
REMARK    8  A    between atoms: C_7  and  C_8
REMARK    9  A    between atoms: C_13  and  C_14
REMARK                            x       y       z     vdW  Elec       q    Type
REMARK                         _______ _______ _______ _____ _____    ______ ____
ROOT
ATOM      1  N   UNL     1       4.439   4.219  17.783  0.00  0.00    +0.000 NA
ENDROOT
BRANCH   1   2
ATOM      2  C   UNL     1       5.858   3.899  17.388  0.00  0.00    +0.000 C 
ATOM      3  C   UNL     1       7.010   4.806  17.898  0.00  0.00    +0.000 C 
ATOM      4  C   UNL     1       7.079   6.165  17.209  0.00  0.00    +0.000 C 
ATOM      5  N   UNL     1       7.292   6.010  15.771  0.00  0.00    +0.000 NA
ATOM      6  C   UNL     1       6.189   5.233  15.201  0.00  0.00    +0.000 C 
ATOM      7  C   UNL     1       6.079   3.848  15.846  0.00  0.00    +0.000 C 
ATOM      8  H   UNL     1       8.172   5.517  15.616  0.00  0.00    +0.000 HD
ENDBRANCH   1   2
BRANCH   1   9
ATOM      9  C   UNL     1       3.658   2.956  18.213  0.00  0.00    +0.000 C 
BRANCH   9  11
ATOM     10  C   UNL     1       4.767   1.814  20.325  0.00  0.00    +0.000 C 
ATOM     11  C   UNL     1       3.681   2.719  19.760  0.00  0.00    +0.000 C 
ENDBRANCH   9  11
BRANCH   9  12
ATOM     12  C   UNL     1       2.223   2.962  17.595  0.00  0.00    +0.000 C 
ATOM     13  C   UNL     1       1.082   2.556  18.524  0.00  0.00    +0.000 C 
ENDBRANCH   9  12
ENDBRANCH   1   9
BRANCH   1  14
ATOM     14  C   UNL     1       4.265   5.243  18.849  0.00  0.00    +0.000 C 
BRANCH  14  15
ATOM     15  C   UNL     1       3.371   6.452  18.666  0.00  0.00    +0.000 A 
ATOM     16  C   UNL     1       3.724   7.337  17.613  0.00  0.00    +0.000 A 
ATOM     17  C   UNL     1       3.020   8.510  17.370  0.00  0.00    +0.000 A 
ATOM     18  C   UNL     1       1.949   8.843  18.182  0.00  0.00    +0.000 A 
ATOM     19  C   UNL     1       1.588   7.997  19.233  0.00  0.00    +0.000 A 
ATOM     20  C   UNL     1       2.283   6.795  19.501  0.00  0.00    +0.000 A 
BRANCH  20  21
ATOM     21  C   UNL     1       1.796   5.988  20.688  0.00  0.00    +0.000 C 
ATOM     22  F   UNL     1       2.727   5.268  21.359  0.00  0.00    +0.000 F 
ATOM     23  F   UNL     1       1.207   6.784  21.628  0.00  0.00    +0.000 F 
ATOM     24  F   UNL     1       0.825   5.096  20.327  0.00  0.00    +0.000 F 
ENDBRANCH  20  21
ENDBRANCH  14  15
ENDBRANCH   1  14
TORSDOF 7
ENDMDL
MODEL 9
REMARK VINA RESULT:      -6.7      3.263      5.925
REMARK  Name = 
REMARK  9 active torsions:
REMARK  status: ('A' for Active; 'I' for Inactive)
REMARK    1  A    between atoms: C_1  and  C_2
REMARK    2  A    between atoms: C_2  and  C_3
REMARK    3  A    between atoms: C_3  and  C_4
REMARK    4  A    between atoms: C_3  and  N_6
REMARK    5  A    between atoms: C_4  and  C_5
REMARK    6  A    between atoms: N_6  and  C_7
REMARK    7  A    between atoms: N_6  and  C_18
REMARK    8  A    between atoms: C_7  and  C_8
REMARK    9  A    between atoms: C_13  and  C_14
REMARK                            x       y       z     vdW  Elec       q    Type
REMARK                         _______ _______ _______ _____ _____    ______ ____
ROOT
ATOM      1  N   UNL     1       2.404   5.692  18.539  0.00  0.00    +0.000 NA
ENDROOT
BRANCH   1   2
ATOM      2  C   UNL     1       3.575   5.518  17.605  0.00  0.00    +0.000 C 
ATOM      3  C   UNL     1       3.957   4.093  17.124  0.00  0.00    +0.000 C 
ATOM      4  C   UNL     1       4.628   3.238  18.194  0.00  0.00    +0.000 C 
ATOM      5  N   UNL     1       5.871   3.856  18.652  0.00  0.00    +0.000 NA
ATOM      6  C   UNL     1       5.575   5.180  19.205  0.00  0.00    +0.000 C 
ATOM      7  C   UNL     1       4.911   6.092  18.168  0.00  0.00    +0.000 C 
ATOM      8  H   UNL     1       6.507   3.952  17.860  0.00  0.00    +0.000 HD
ENDBRANCH   1   2
BRANCH   1   9
ATOM      9  C   UNL     1       2.098   4.400  19.331  0.00  0.00    +0.000 C 
BRANCH   9  11
ATOM     10  C   UNL     1       2.214   3.445  21.796  0.00  0.00    +0.000 C 
ATOM     11  C   UNL     1       1.997   4.639  20.875  0.00  0.00    +0.000 C 
ENDBRANCH   9  11
BRANCH   9  12
ATOM     12  C   UNL     1       0.862   3.665  18.723  0.00  0.00    +0.000 C 
ATOM     13  C   UNL     1       0.931   2.140  18.682  0.00  0.00    +0.000 C 
ENDBRANCH   9  12
ENDBRANCH   1   9
BRANCH   1  14
ATOM     14  C   UNL     1       2.499   6.811  19.515  0.00  0.00    +0.000 C 
BRANCH  14  15
ATOM     15  C   UNL     1       1.935   8.186  19.222  0.00  0.00    +0.000 A 
ATOM     16  C   UNL     1       2.368   8.794  18.014  0.00  0.00    +0.000 A 
ATOM     17  C   UNL     1       1.968  10.075  17.651  0.00  0.00    +0.000 A 
ATOM     18  C   UNL     1       1.135  10.793  18.491  0.00  0.00    +0.000 A 
ATOM     19  C   UNL     1       0.705  10.223  19.691  0.00  0.00    +0.000 A 
ATOM     20  C   UNL     1       1.091   8.921  20.085  0.00  0.00    +0.000 A 
BRANCH  20  21
ATOM     21  C   UNL     1       0.568   8.441  21.424  0.00  0.00    +0.000 C 
ATOM     22  F   UNL     1       0.032   7.197  21.459  0.00  0.00    +0.000 F 
ATOM     23  F   UNL     1       1.548   8.440  22.375  0.00  0.00    +0.000 F 
ATOM     24  F   UNL     1      -0.396   9.276  21.917  0.00  0.00    +0.000 F 
ENDBRANCH  20  21
ENDBRANCH  14  15
ENDBRANCH   1  14
TORSDOF 7
ENDMDL
