MODEL 1
REMARK VINA RESULT:      -8.5      0.000      0.000
REMARK  Name = 
REMARK  4 active torsions:
REMARK  status: ('A' for Active; 'I' for Inactive)
REMARK    1  A    between atoms: C_1  and  C_2
REMARK    2  A    between atoms: C_6  and  N_7
REMARK    3  A    between atoms: N_7  and  N_8
REMARK    4  A    between atoms: C_10  and  C_11
REMARK                            x       y       z     vdW  Elec       q    Type
REMARK                         _______ _______ _______ _____ _____    ______ ____
ROOT
ATOM      1  C   UNL     1       5.712   3.769  12.885  0.00  0.00    +0.000 C 
ATOM      2  C   UNL     1       6.011   4.123  14.309  0.00  0.00    +0.000 A 
ATOM      3  C   UNL     1       7.213   4.703  14.664  0.00  0.00    +0.000 A 
ATOM      4  C   UNL     1       7.428   4.993  16.006  0.00  0.00    +0.000 A 
ATOM      5  C   UNL     1       6.437   4.709  16.971  0.00  0.00    +0.000 A 
ATOM      6  C   UNL     1       6.567   4.970  18.363  0.00  0.00    +0.000 A 
ATOM      7  C   UNL     1       5.501   4.615  19.191  0.00  0.00    +0.000 A 
ATOM      8  C   UNL     1       4.357   4.052  18.653  0.00  0.00    +0.000 A 
ATOM      9  N   UNL     1       4.241   3.810  17.329  0.00  0.00    +0.000 NA
ATOM     10  C   UNL     1       5.241   4.124  16.507  0.00  0.00    +0.000 A 
ATOM     11  N   UNL     1       5.049   3.845  15.218  0.00  0.00    +0.000 NA
ENDROOT
BRANCH   8  12
ATOM     12  C   UNL     1       3.219   3.635  19.505  0.00  0.00    +0.000 A 
ATOM     13  C   UNL     1       1.907   4.069  19.240  0.00  0.00    +0.000 A 
ATOM     14  C   UNL     1       0.846   3.746  20.092  0.00  0.00    +0.000 A 
ATOM     15  C   UNL     1       1.076   2.966  21.219  0.00  0.00    +0.000 A 
ATOM     16  C   UNL     1       2.358   2.493  21.484  0.00  0.00    +0.000 A 
ATOM     17  C   UNL     1       3.417   2.822  20.633  0.00  0.00    +0.000 A 
ENDBRANCH   8  12
BRANCH   6  18
ATOM     18  N   UNL     1       7.795   5.431  18.920  0.00  0.00    +0.000 N 
ATOM     19  H   UNL     1       8.239   6.184  18.396  0.00  0.00    +0.000 HD
BRANCH  18  20
ATOM     20  N   UNL     1       8.005   5.461  20.305  0.00  0.00    +0.000 NA
ATOM     21  H   UNL     1       8.267   6.397  20.623  0.00  0.00    +0.000 HD
ATOM     22  H   UNL     1       8.749   4.821  20.593  0.00  0.00    +0.000 HD
ENDBRANCH  18  20
ENDBRANCH   6  18
TORSDOF 3
ENDMDL
MODEL 2
REMARK VINA RESULT:      -8.3      0.291      1.139
REMARK  Name = 
REMARK  4 active torsions:
REMARK  status: ('A' for Active; 'I' for Inactive)
REMARK    1  A    between atoms: C_1  and  C_2
REMARK    2  A    between atoms: C_6  and  N_7
REMARK    3  A    between atoms: N_7  and  N_8
REMARK    4  A    between atoms: C_10  and  C_11
REMARK                            x       y       z     vdW  Elec       q    Type
REMARK                         _______ _______ _______ _____ _____    ______ ____
ROOT
ATOM      1  C   UNL     1       5.838   3.699  13.132  0.00  0.00    +0.000 C 
ATOM      2  C   UNL     1       6.082   4.171  14.532  0.00  0.00    +0.000 A 
ATOM      3  C   UNL     1       7.237   4.851  14.866  0.00  0.00    +0.000 A 
ATOM      4  C   UNL     1       7.403   5.248  16.187  0.00  0.00    +0.000 A 
ATOM      5  C   UNL     1       6.411   4.969  17.153  0.00  0.00    +0.000 A 
ATOM      6  C   UNL     1       6.493   5.336  18.525  0.00  0.00    +0.000 A 
ATOM      7  C   UNL     1       5.434   4.971  19.356  0.00  0.00    +0.000 A 
ATOM      8  C   UNL     1       4.340   4.298  18.841  0.00  0.00    +0.000 A 
ATOM      9  N   UNL     1       4.270   3.957  17.536  0.00  0.00    +0.000 NA
ATOM     10  C   UNL     1       5.265   4.276  16.711  0.00  0.00    +0.000 A 
ATOM     11  N   UNL     1       5.120   3.896  15.442  0.00  0.00    +0.000 NA
ENDROOT
BRANCH   8  12
ATOM     12  C   UNL     1       3.214   3.869  19.700  0.00  0.00    +0.000 A 
ATOM     13  C   UNL     1       3.397   2.944  20.745  0.00  0.00    +0.000 A 
ATOM     14  C   UNL     1       2.319   2.474  21.501  0.00  0.00    +0.000 A 
ATOM     15  C   UNL     1       1.034   2.936  21.238  0.00  0.00    +0.000 A 
ATOM     16  C   UNL     1       0.831   3.879  20.235  0.00  0.00    +0.000 A 
ATOM     17  C   UNL     1       1.910   4.343  19.477  0.00  0.00    +0.000 A 
ENDBRANCH   8  12
BRANCH   6  18
ATOM     18  N   UNL     1       7.677   5.914  19.068  0.00  0.00    +0.000 N 
ATOM     19  H   UNL     1       7.811   6.897  18.836  0.00  0.00    +0.000 HD
BRANCH  18  20
ATOM     20  N   UNL     1       8.177   5.520  20.316  0.00  0.00    +0.000 NA
ATOM     21  H   UNL     1       7.538   5.774  21.073  0.00  0.00    +0.000 HD
ATOM     22  H   UNL     1       9.081   5.953  20.521  0.00  0.00    +0.000 HD
ENDBRANCH  18  20
ENDBRANCH   6  18
TORSDOF 3
ENDMDL
MODEL 3
REMARK VINA RESULT:      -7.8      1.113      5.944
REMARK  Name = 
REMARK  4 active torsions:
REMARK  status: ('A' for Active; 'I' for Inactive)
REMARK    1  A    between atoms: C_1  and  C_2
REMARK    2  A    between atoms: C_6  and  N_7
REMARK    3  A    between atoms: N_7  and  N_8
REMARK    4  A    between atoms: C_10  and  C_11
REMARK                            x       y       z     vdW  Elec       q    Type
REMARK                         _______ _______ _______ _____ _____    ______ ____
ROOT
ATOM      1  C   UNL     1       0.731   2.520  18.748  0.00  0.00    +0.000 C 
ATOM      2  C   UNL     1       2.117   3.085  18.747  0.00  0.00    +0.000 A 
ATOM      3  C   UNL     1       2.728   3.482  19.921  0.00  0.00    +0.000 A 
ATOM      4  C   UNL     1       4.011   4.008  19.845  0.00  0.00    +0.000 A 
ATOM      5  C   UNL     1       4.669   4.123  18.600  0.00  0.00    +0.000 A 
ATOM      6  C   UNL     1       5.980   4.648  18.425  0.00  0.00    +0.000 A 
ATOM      7  C   UNL     1       6.483   4.710  17.125  0.00  0.00    +0.000 A 
ATOM      8  C   UNL     1       5.729   4.249  16.061  0.00  0.00    +0.000 A 
ATOM      9  N   UNL     1       4.486   3.749  16.237  0.00  0.00    +0.000 NA
ATOM     10  C   UNL     1       3.965   3.683  17.461  0.00  0.00    +0.000 A 
ATOM     11  N   UNL     1       2.731   3.185  17.546  0.00  0.00    +0.000 NA
ENDROOT
BRANCH   8  12
ATOM     12  C   UNL     1       6.220   4.327  14.666  0.00  0.00    +0.000 A 
ATOM     13  C   UNL     1       5.633   3.566  13.637  0.00  0.00    +0.000 A 
ATOM     14  C   UNL     1       6.149   3.574  12.338  0.00  0.00    +0.000 A 
ATOM     15  C   UNL     1       7.256   4.360  12.038  0.00  0.00    +0.000 A 
ATOM     16  C   UNL     1       7.833   5.150  13.028  0.00  0.00    +0.000 A 
ATOM     17  C   UNL     1       7.317   5.136  14.327  0.00  0.00    +0.000 A 
ENDBRANCH   8  12
BRANCH   6  18
ATOM     18  N   UNL     1       6.694   5.236  19.509  0.00  0.00    +0.000 N 
ATOM     19  H   UNL     1       6.370   4.950  20.431  0.00  0.00    +0.000 HD
BRANCH  18  20
ATOM     20  N   UNL     1       8.064   5.515  19.416  0.00  0.00    +0.000 NA
ATOM     21  H   UNL     1       8.373   5.549  18.441  0.00  0.00    +0.000 HD
ATOM     22  H   UNL     1       8.632   4.810  19.892  0.00  0.00    +0.000 HD
ENDBRANCH  18  20
ENDBRANCH   6  18
TORSDOF 3
ENDMDL
MODEL 4
REMARK VINA RESULT:      -7.8      1.130      5.972
REMARK  Name = 
REMARK  4 active torsions:
REMARK  status: ('A' for Active; 'I' for Inactive)
REMARK    1  A    between atoms: C_1  and  C_2
REMARK    2  A    between atoms: C_6  and  N_7
REMARK    3  A    between atoms: N_7  and  N_8
REMARK    4  A    between atoms: C_10  and  C_11
REMARK                            x       y       z     vdW  Elec       q    Type
REMARK                         _______ _______ _______ _____ _____    ______ ____
ROOT
ATOM      1  C   UNL     1       0.909   2.448  18.790  0.00  0.00    +0.000 C 
ATOM      2  C   UNL     1       2.272   3.068  18.771  0.00  0.00    +0.000 A 
ATOM      3  C   UNL     1       2.857   3.545  19.928  0.00  0.00    +0.000 A 
ATOM      4  C   UNL     1       4.118   4.120  19.834  0.00  0.00    +0.000 A 
ATOM      5  C   UNL     1       4.781   4.201  18.590  0.00  0.00    +0.000 A 
ATOM      6  C   UNL     1       6.071   4.769  18.397  0.00  0.00    +0.000 A 
ATOM      7  C   UNL     1       6.582   4.789  17.100  0.00  0.00    +0.000 A 
ATOM      8  C   UNL     1       5.856   4.246  16.054  0.00  0.00    +0.000 A 
ATOM      9  N   UNL     1       4.633   3.705  16.247  0.00  0.00    +0.000 NA
ATOM     10  C   UNL     1       4.105   3.678  17.469  0.00  0.00    +0.000 A 
ATOM     11  N   UNL     1       2.892   3.134  17.571  0.00  0.00    +0.000 NA
ENDROOT
BRANCH   8  12
ATOM     12  C   UNL     1       6.355   4.276  14.661  0.00  0.00    +0.000 A 
ATOM     13  C   UNL     1       7.443   5.088  14.287  0.00  0.00    +0.000 A 
ATOM     14  C   UNL     1       7.860   5.182  12.956  0.00  0.00    +0.000 A 
ATOM     15  C   UNL     1       7.206   4.450  11.972  0.00  0.00    +0.000 A 
ATOM     16  C   UNL     1       6.151   3.612  12.319  0.00  0.00    +0.000 A 
ATOM     17  C   UNL     1       5.733   3.524  13.651  0.00  0.00    +0.000 A 
ENDBRANCH   8  12
BRANCH   6  18
ATOM     18  N   UNL     1       6.753   5.437  19.456  0.00  0.00    +0.000 N 
ATOM     19  H   UNL     1       6.214   5.524  20.316  0.00  0.00    +0.000 HD
BRANCH  18  20
ATOM     20  N   UNL     1       8.138   5.311  19.628  0.00  0.00    +0.000 NA
ATOM     21  H   UNL     1       8.464   5.845  20.437  0.00  0.00    +0.000 HD
ATOM     22  H   UNL     1       8.656   5.646  18.813  0.00  0.00    +0.000 HD
ENDBRANCH  18  20
ENDBRANCH   6  18
TORSDOF 3
ENDMDL
MODEL 5
REMARK VINA RESULT:      -7.6      1.417      1.704
REMARK  Name = 
REMARK  4 active torsions:
REMARK  status: ('A' for Active; 'I' for Inactive)
REMARK    1  A    between atoms: C_1  and  C_2
REMARK    2  A    between atoms: C_6  and  N_7
REMARK    3  A    between atoms: N_7  and  N_8
REMARK    4  A    between atoms: C_10  and  C_11
REMARK                            x       y       z     vdW  Elec       q    Type
REMARK                         _______ _______ _______ _____ _____    ______ ____
ROOT
ATOM      1  C   UNL     1       5.964   3.216  12.334  0.00  0.00    +0.000 C 
ATOM      2  C   UNL     1       6.136   3.973  13.615  0.00  0.00    +0.000 A 
ATOM      3  C   UNL     1       7.243   4.770  13.832  0.00  0.00    +0.000 A 
ATOM      4  C   UNL     1       7.343   5.433  15.048  0.00  0.00    +0.000 A 
ATOM      5  C   UNL     1       6.333   5.299  16.027  0.00  0.00    +0.000 A 
ATOM      6  C   UNL     1       6.349   5.938  17.297  0.00  0.00    +0.000 A 
ATOM      7  C   UNL     1       5.282   5.689  18.160  0.00  0.00    +0.000 A 
ATOM      8  C   UNL     1       4.241   4.867  17.766  0.00  0.00    +0.000 A 
ATOM      9  N   UNL     1       4.233   4.266  16.556  0.00  0.00    +0.000 NA
ATOM     10  C   UNL     1       5.239   4.468  15.707  0.00  0.00    +0.000 A 
ATOM     11  N   UNL     1       5.157   3.833  14.538  0.00  0.00    +0.000 NA
ENDROOT
BRANCH   8  12
ATOM     12  C   UNL     1       3.108   4.557  18.667  0.00  0.00    +0.000 A 
ATOM     13  C   UNL     1       3.036   5.093  19.967  0.00  0.00    +0.000 A 
ATOM     14  C   UNL     1       2.011   4.734  20.847  0.00  0.00    +0.000 A 
ATOM     15  C   UNL     1       1.026   3.843  20.438  0.00  0.00    +0.000 A 
ATOM     16  C   UNL     1       1.054   3.327  19.146  0.00  0.00    +0.000 A 
ATOM     17  C   UNL     1       2.082   3.684  18.269  0.00  0.00    +0.000 A 
ENDBRANCH   8  12
BRANCH   6  18
ATOM     18  N   UNL     1       7.483   6.679  17.740  0.00  0.00    +0.000 N 
ATOM     19  H   UNL     1       8.332   6.126  17.850  0.00  0.00    +0.000 HD
BRANCH  18  20
ATOM     20  N   UNL     1       7.683   8.011  17.354  0.00  0.00    +0.000 NA
ATOM     21  H   UNL     1       7.974   8.590  18.146  0.00  0.00    +0.000 HD
ATOM     22  H   UNL     1       6.833   8.429  16.967  0.00  0.00    +0.000 HD
ENDBRANCH  18  20
ENDBRANCH   6  18
TORSDOF 3
ENDMDL
MODEL 6
REMARK VINA RESULT:      -7.6      1.449      1.608
REMARK  Name = 
REMARK  4 active torsions:
REMARK  status: ('A' for Active; 'I' for Inactive)
REMARK    1  A    between atoms: C_1  and  C_2
REMARK    2  A    between atoms: C_6  and  N_7
REMARK    3  A    between atoms: N_7  and  N_8
REMARK    4  A    between atoms: C_10  and  C_11
REMARK                            x       y       z     vdW  Elec       q    Type
REMARK                         _______ _______ _______ _____ _____    ______ ____
ROOT
ATOM      1  C   UNL     1       5.954   3.207  12.294  0.00  0.00    +0.000 C 
ATOM      2  C   UNL     1       6.133   3.960  13.576  0.00  0.00    +0.000 A 
ATOM      3  C   UNL     1       7.232   4.770  13.782  0.00  0.00    +0.000 A 
ATOM      4  C   UNL     1       7.340   5.429  15.000  0.00  0.00    +0.000 A 
ATOM      5  C   UNL     1       6.345   5.277  15.991  0.00  0.00    +0.000 A 
ATOM      6  C   UNL     1       6.370   5.911  17.265  0.00  0.00    +0.000 A 
ATOM      7  C   UNL     1       5.318   5.644  18.140  0.00  0.00    +0.000 A 
ATOM      8  C   UNL     1       4.283   4.810  17.756  0.00  0.00    +0.000 A 
ATOM      9  N   UNL     1       4.266   4.216  16.543  0.00  0.00    +0.000 NA
ATOM     10  C   UNL     1       5.258   4.434  15.683  0.00  0.00    +0.000 A 
ATOM     11  N   UNL     1       5.169   3.803  14.512  0.00  0.00    +0.000 NA
ENDROOT
BRANCH   8  12
ATOM     12  C   UNL     1       3.166   4.482  18.670  0.00  0.00    +0.000 A 
ATOM     13  C   UNL     1       2.197   3.519  18.331  0.00  0.00    +0.000 A 
ATOM     14  C   UNL     1       1.096   3.269  19.155  0.00  0.00    +0.000 A 
ATOM     15  C   UNL     1       0.950   3.969  20.348  0.00  0.00    +0.000 A 
ATOM     16  C   UNL     1       1.913   4.900  20.724  0.00  0.00    +0.000 A 
ATOM     17  C   UNL     1       3.011   5.151  19.896  0.00  0.00    +0.000 A 
ENDBRANCH   8  12
BRANCH   6  18
ATOM     18  N   UNL     1       7.501   6.664  17.696  0.00  0.00    +0.000 N 
ATOM     19  H   UNL     1       8.366   6.130  17.755  0.00  0.00    +0.000 HD
BRANCH  18  20
ATOM     20  N   UNL     1       7.654   8.015  17.354  0.00  0.00    +0.000 NA
ATOM     21  H   UNL     1       8.530   8.395  17.717  0.00  0.00    +0.000 HD
ATOM     22  H   UNL     1       6.894   8.591  17.723  0.00  0.00    +0.000 HD
ENDBRANCH  18  20
ENDBRANCH   6  18
TORSDOF 3
ENDMDL
MODEL 7
REMARK VINA RESULT:      -7.1      3.887      5.066
REMARK  Name = 
REMARK  4 active torsions:
REMARK  status: ('A' for Active; 'I' for Inactive)
REMARK    1  A    between atoms: C_1  and  C_2
REMARK    2  A    between atoms: C_6  and  N_7
REMARK    3  A    between atoms: N_7  and  N_8
REMARK    4  A    between atoms: C_10  and  C_11
REMARK                            x       y       z     vdW  Elec       q    Type
REMARK                         _______ _______ _______ _____ _____    ______ ____
ROOT
ATOM      1  C   UNL     1       5.635   5.398  15.296  0.00  0.00    +0.000 C 
ATOM      2  C   UNL     1       4.839   5.113  16.532  0.00  0.00    +0.000 A 
ATOM      3  C   UNL     1       4.742   3.833  17.041  0.00  0.00    +0.000 A 
ATOM      4  C   UNL     1       3.976   3.639  18.183  0.00  0.00    +0.000 A 
ATOM      5  C   UNL     1       3.326   4.727  18.807  0.00  0.00    +0.000 A 
ATOM      6  C   UNL     1       2.523   4.626  19.977  0.00  0.00    +0.000 A 
ATOM      7  C   UNL     1       1.934   5.794  20.460  0.00  0.00    +0.000 A 
ATOM      8  C   UNL     1       2.156   7.004  19.824  0.00  0.00    +0.000 A 
ATOM      9  N   UNL     1       2.922   7.090  18.716  0.00  0.00    +0.000 NA
ATOM     10  C   UNL     1       3.492   5.996  18.215  0.00  0.00    +0.000 A 
ATOM     11  N   UNL     1       4.226   6.168  17.115  0.00  0.00    +0.000 NA
ENDROOT
BRANCH   8  12
ATOM     12  C   UNL     1       1.523   8.257  20.292  0.00  0.00    +0.000 A 
ATOM     13  C   UNL     1       1.209   8.459  21.650  0.00  0.00    +0.000 A 
ATOM     14  C   UNL     1       0.535   9.606  22.080  0.00  0.00    +0.000 A 
ATOM     15  C   UNL     1       0.175  10.584  21.160  0.00  0.00    +0.000 A 
ATOM     16  C   UNL     1       0.505  10.426  19.817  0.00  0.00    +0.000 A 
ATOM     17  C   UNL     1       1.176   9.276  19.389  0.00  0.00    +0.000 A 
ENDBRANCH   8  12
BRANCH   6  18
ATOM     18  N   UNL     1       2.201   3.360  20.547  0.00  0.00    +0.000 N 
ATOM     19  H   UNL     1       2.476   2.560  19.981  0.00  0.00    +0.000 HD
BRANCH  18  20
ATOM     20  N   UNL     1       2.233   3.153  21.933  0.00  0.00    +0.000 NA
ATOM     21  H   UNL     1       1.312   2.893  22.293  0.00  0.00    +0.000 HD
ATOM     22  H   UNL     1       2.534   3.990  22.438  0.00  0.00    +0.000 HD
ENDBRANCH  18  20
ENDBRANCH   6  18
TORSDOF 3
ENDMDL
MODEL 8
REMARK VINA RESULT:      -7.0      3.933      5.135
REMARK  Name = 
REMARK  4 active torsions:
REMARK  status: ('A' for Active; 'I' for Inactive)
REMARK    1  A    between atoms: C_1  and  C_2
REMARK    2  A    between atoms: C_6  and  N_7
REMARK    3  A    between atoms: N_7  and  N_8
REMARK    4  A    between atoms: C_10  and  C_11
REMARK                            x       y       z     vdW  Elec       q    Type
REMARK                         _______ _______ _______ _____ _____    ______ ____
ROOT
ATOM      1  C   UNL     1       5.615   5.335  15.337  0.00  0.00    +0.000 C 
ATOM      2  C   UNL     1       4.811   5.081  16.575  0.00  0.00    +0.000 A 
ATOM      3  C   UNL     1       4.709   3.813  17.114  0.00  0.00    +0.000 A 
ATOM      4  C   UNL     1       3.937   3.649  18.257  0.00  0.00    +0.000 A 
ATOM      5  C   UNL     1       3.285   4.753  18.851  0.00  0.00    +0.000 A 
ATOM      6  C   UNL     1       2.477   4.681  20.019  0.00  0.00    +0.000 A 
ATOM      7  C   UNL     1       1.887   5.862  20.470  0.00  0.00    +0.000 A 
ATOM      8  C   UNL     1       2.114   7.055  19.807  0.00  0.00    +0.000 A 
ATOM      9  N   UNL     1       2.886   7.114  18.701  0.00  0.00    +0.000 NA
ATOM     10  C   UNL     1       3.457   6.007  18.230  0.00  0.00    +0.000 A 
ATOM     11  N   UNL     1       4.197   6.151  17.130  0.00  0.00    +0.000 NA
ENDROOT
BRANCH   8  12
ATOM     12  C   UNL     1       1.481   8.321  20.241  0.00  0.00    +0.000 A 
ATOM     13  C   UNL     1       1.199   9.353  19.326  0.00  0.00    +0.000 A 
ATOM     14  C   UNL     1       0.679  10.580  19.748  0.00  0.00    +0.000 A 
ATOM     15  C   UNL     1       0.415  10.794  21.096  0.00  0.00    +0.000 A 
ATOM     16  C   UNL     1       0.651   9.778  22.017  0.00  0.00    +0.000 A 
ATOM     17  C   UNL     1       1.175   8.553  21.593  0.00  0.00    +0.000 A 
ENDBRANCH   8  12
BRANCH   6  18
ATOM     18  N   UNL     1       2.148   3.430  20.618  0.00  0.00    +0.000 N 
ATOM     19  H   UNL     1       2.709   3.194  21.434  0.00  0.00    +0.000 HD
BRANCH  18  20
ATOM     20  N   UNL     1       0.831   2.952  20.637  0.00  0.00    +0.000 NA
ATOM     21  H   UNL     1       0.160   3.698  20.444  0.00  0.00    +0.000 HD
ATOM     22  H   UNL     1       0.585   2.546  21.543  0.00  0.00    +0.000 HD
ENDBRANCH  18  20
ENDBRANCH   6  18
TORSDOF 3
ENDMDL
MODEL 9
REMARK VINA RESULT:      -6.9      2.509      6.381
REMARK  Name = 
REMARK  4 active torsions:
REMARK  status: ('A' for Active; 'I' for Inactive)
REMARK    1  A    between atoms: C_1  and  C_2
REMARK    2  A    between atoms: C_6  and  N_7
REMARK    3  A    between atoms: N_7  and  N_8
REMARK    4  A    between atoms: C_10  and  C_11
REMARK                            x       y       z     vdW  Elec       q    Type
REMARK                         _______ _______ _______ _____ _____    ______ ____
ROOT
ATOM      1  C   UNL     1       2.309   9.070  18.344  0.00  0.00    +0.000 C 
ATOM      2  C   UNL     1       2.849   7.674  18.283  0.00  0.00    +0.000 A 
ATOM      3  C   UNL     1       2.638   6.780  19.314  0.00  0.00    +0.000 A 
ATOM      4  C   UNL     1       3.179   5.506  19.196  0.00  0.00    +0.000 A 
ATOM      5  C   UNL     1       3.914   5.140  18.046  0.00  0.00    +0.000 A 
ATOM      6  C   UNL     1       4.503   3.862  17.837  0.00  0.00    +0.000 A 
ATOM      7  C   UNL     1       5.214   3.664  16.653  0.00  0.00    +0.000 A 
ATOM      8  C   UNL     1       5.309   4.678  15.717  0.00  0.00    +0.000 A 
ATOM      9  N   UNL     1       4.744   5.887  15.923  0.00  0.00    +0.000 NA
ATOM     10  C   UNL     1       4.067   6.121  17.045  0.00  0.00    +0.000 A 
ATOM     11  N   UNL     1       3.548   7.343  17.174  0.00  0.00    +0.000 NA
ENDROOT
BRANCH   8  12
ATOM     12  C   UNL     1       6.080   4.512  14.464  0.00  0.00    +0.000 A 
ATOM     13  C   UNL     1       7.242   5.265  14.211  0.00  0.00    +0.000 A 
ATOM     14  C   UNL     1       7.922   5.171  12.993  0.00  0.00    +0.000 A 
ATOM     15  C   UNL     1       7.461   4.305  12.007  0.00  0.00    +0.000 A 
ATOM     16  C   UNL     1       6.336   3.522  12.246  0.00  0.00    +0.000 A 
ATOM     17  C   UNL     1       5.655   3.622  13.463  0.00  0.00    +0.000 A 
ENDBRANCH   8  12
BRANCH   6  18
ATOM     18  N   UNL     1       4.506   2.871  18.860  0.00  0.00    +0.000 N 
ATOM     19  H   UNL     1       4.195   3.204  19.772  0.00  0.00    +0.000 HD
BRANCH  18  20
ATOM     20  N   UNL     1       4.209   1.530  18.581  0.00  0.00    +0.000 NA
ATOM     21  H   UNL     1       4.644   1.225  17.707  0.00  0.00    +0.000 HD
ATOM     22  H   UNL     1       3.202   1.371  18.492  0.00  0.00    +0.000 HD
ENDBRANCH  18  20
ENDBRANCH   6  18
TORSDOF 3
ENDMDL
