MODEL 1
REMARK VINA RESULT:      -8.7      0.000      0.000
REMARK  Name = 
REMARK  10 active torsions:
REMARK  status: ('A' for Active; 'I' for Inactive)
REMARK    1  A    between atoms: C_1  and  C_2
REMARK    2  A    between atoms: C_2  and  C_3
REMARK    3  A    between atoms: C_3  and  C_5
REMARK    4  A    between atoms: C_9  and  C_10
REMARK    5  A    between atoms: N_12  and  C_13
REMARK    6  A    between atoms: C_13  and  C_14
REMARK    7  A    between atoms: C_19  and  C_20
REMARK    8  A    between atoms: C_24  and  C_25
REMARK    9  A    between atoms: C_25  and  N_26
REMARK   10  A    between atoms: C_30  and  C_31
REMARK                            x       y       z     vdW  Elec       q    Type
REMARK                         _______ _______ _______ _____ _____    ______ ____
ROOT
ATOM      1  C   UNL     1       0.891   9.356  20.255  0.00  0.00    +0.000 A 
ATOM      2  C   UNL     1       1.489  10.003  19.166  0.00  0.00    +0.000 A 
ATOM      3  C   UNL     1       1.034  11.253  18.765  0.00  0.00    +0.000 A 
ATOM      4  C   UNL     1      -0.021  11.863  19.443  0.00  0.00    +0.000 A 
ATOM      5  F   UNL     1      -0.357  13.103  19.039  0.00  0.00    +0.000 F 
ATOM      6  C   UNL     1      -0.700  11.251  20.513  0.00  0.00    +0.000 A 
ATOM      7  C   UNL     1      -0.220   9.969  20.890  0.00  0.00    +0.000 A 
ENDROOT
BRANCH   6   8
ATOM      8  C   UNL     1      -1.843  11.936  21.202  0.00  0.00    +0.000 A 
ATOM      9  C   UNL     1      -1.906  12.086  22.596  0.00  0.00    +0.000 A 
ATOM     10  C   UNL     1      -2.996  12.726  23.214  0.00  0.00    +0.000 A 
ATOM     11  C   UNL     1      -4.066  13.231  22.461  0.00  0.00    +0.000 A 
ATOM     12  C   UNL     1      -4.056  13.116  21.073  0.00  0.00    +0.000 A 
ATOM     13  C   UNL     1      -2.938  12.471  20.476  0.00  0.00    +0.000 A 
BRANCH  12  14
ATOM     14  C   UNL     1      -5.227  13.484  20.161  0.00  0.00    +0.000 C 
BRANCH  14  15
ATOM     15  N   UNL     1      -6.505  12.755  20.284  0.00  0.00    +0.000 NA
ATOM     16  C   UNL     1      -7.624  13.411  19.584  0.00  0.00    +0.000 C 
ATOM     17  C   UNL     1      -7.629  13.320  18.035  0.00  0.00    +0.000 C 
ATOM     18  N   UNL     1      -7.090  12.123  17.395  0.00  0.00    +0.000 NA
ATOM     19  C   UNL     1      -6.241  11.237  18.188  0.00  0.00    +0.000 C 
ATOM     20  C   UNL     1      -4.759  11.236  17.781  0.00  0.00    +0.000 C 
ATOM     21  C   UNL     1      -6.419  11.377  19.728  0.00  0.00    +0.000 C 
ATOM     22  H   UNL     1      -6.749  12.297  16.451  0.00  0.00    +0.000 HD
ENDBRANCH  14  15
ENDBRANCH  12  14
ENDBRANCH   6   8
BRANCH   1  23
ATOM     23  C   UNL     1       1.495   8.061  20.751  0.00  0.00    +0.000 C 
BRANCH  23  26
ATOM     24  C   UNL     1       2.358   5.947  19.857  0.00  0.00    +0.000 C 
ATOM     25  O   UNL     1       1.939   5.306  20.826  0.00  0.00    +0.000 OA
ATOM     26  N   UNL     1       2.192   7.312  19.729  0.00  0.00    +0.000 N 
ATOM     27  H   UNL     1       2.714   7.824  19.029  0.00  0.00    +0.000 HD
BRANCH  24  32
ATOM     28  C   UNL     1       5.053   4.996  17.336  0.00  0.00    +0.000 A 
ATOM     29  C   UNL     1       4.437   3.920  16.688  0.00  0.00    +0.000 A 
ATOM     30  C   UNL     1       3.152   3.517  17.068  0.00  0.00    +0.000 A 
ATOM     31  C   UNL     1       2.492   4.180  18.100  0.00  0.00    +0.000 A 
ATOM     32  C   UNL     1       3.103   5.240  18.775  0.00  0.00    +0.000 A 
ATOM     33  C   UNL     1       4.388   5.649  18.389  0.00  0.00    +0.000 A 
BRANCH  28  34
ATOM     34  C   UNL     1       6.415   5.478  16.945  0.00  0.00    +0.000 C 
ATOM     35  O   UNL     1       6.984   4.941  15.995  0.00  0.00    +0.000 OA
BRANCH  34  37
ATOM     36  C   UNL     1       7.918   6.126  18.875  0.00  0.00    +0.000 C 
ATOM     37  C   UNL     1       7.039   6.615  17.736  0.00  0.00    +0.000 C 
ENDBRANCH  34  37
ENDBRANCH  28  34
ENDBRANCH  24  32
ENDBRANCH  23  26
ENDBRANCH   1  23
TORSDOF 8
ENDMDL
MODEL 2
REMARK VINA RESULT:      -8.6      1.936      3.100
REMARK  Name = 
REMARK  10 active torsions:
REMARK  status: ('A' for Active; 'I' for Inactive)
REMARK    1  A    between atoms: C_1  and  C_2
REMARK    2  A    between atoms: C_2  and  C_3
REMARK    3  A    between atoms: C_3  and  C_5
REMARK    4  A    between atoms: C_9  and  C_10
REMARK    5  A    between atoms: N_12  and  C_13
REMARK    6  A    between atoms: C_13  and  C_14
REMARK    7  A    between atoms: C_19  and  C_20
REMARK    8  A    between atoms: C_24  and  C_25
REMARK    9  A    between atoms: C_25  and  N_26
REMARK   10  A    between atoms: C_30  and  C_31
REMARK                            x       y       z     vdW  Elec       q    Type
REMARK                         _______ _______ _______ _____ _____    ______ ____
ROOT
ATOM      1  C   UNL     1       0.739   9.825  20.229  0.00  0.00    +0.000 A 
ATOM      2  C   UNL     1       0.917   8.973  21.326  0.00  0.00    +0.000 A 
ATOM      3  C   UNL     1       0.217   9.201  22.504  0.00  0.00    +0.000 A 
ATOM      4  C   UNL     1      -0.663  10.281  22.596  0.00  0.00    +0.000 A 
ATOM      5  F   UNL     1      -1.356  10.393  23.745  0.00  0.00    +0.000 F 
ATOM      6  C   UNL     1      -0.855  11.203  21.552  0.00  0.00    +0.000 A 
ATOM      7  C   UNL     1      -0.114  10.950  20.366  0.00  0.00    +0.000 A 
ENDROOT
BRANCH   6   8
ATOM      8  C   UNL     1      -1.796  12.362  21.700  0.00  0.00    +0.000 A 
ATOM      9  C   UNL     1      -1.685  13.300  22.737  0.00  0.00    +0.000 A 
ATOM     10  C   UNL     1      -2.589  14.372  22.854  0.00  0.00    +0.000 A 
ATOM     11  C   UNL     1      -3.641  14.539  21.942  0.00  0.00    +0.000 A 
ATOM     12  C   UNL     1      -3.798  13.642  20.889  0.00  0.00    +0.000 A 
ATOM     13  C   UNL     1      -2.865  12.573  20.792  0.00  0.00    +0.000 A 
BRANCH  12  14
ATOM     14  C   UNL     1      -4.988  13.627  19.928  0.00  0.00    +0.000 C 
BRANCH  14  15
ATOM     15  N   UNL     1      -6.213  12.889  20.296  0.00  0.00    +0.000 NA
ATOM     16  C   UNL     1      -7.439  13.456  19.707  0.00  0.00    +0.000 C 
ATOM     17  C   UNL     1      -7.658  13.221  18.189  0.00  0.00    +0.000 C 
ATOM     18  N   UNL     1      -7.176  11.980  17.588  0.00  0.00    +0.000 NA
ATOM     19  C   UNL     1      -6.198  11.187  18.328  0.00  0.00    +0.000 C 
ATOM     20  C   UNL     1      -4.788  11.176  17.717  0.00  0.00    +0.000 C 
ATOM     21  C   UNL     1      -6.163  11.467  19.859  0.00  0.00    +0.000 C 
ATOM     22  H   UNL     1      -6.977  12.072  16.594  0.00  0.00    +0.000 HD
ENDBRANCH  14  15
ENDBRANCH  12  14
ENDBRANCH   6   8
BRANCH   1  23
ATOM     23  C   UNL     1       1.410   9.472  18.919  0.00  0.00    +0.000 C 
BRANCH  23  26
ATOM     24  C   UNL     1       2.747   7.686  17.903  0.00  0.00    +0.000 C 
ATOM     25  O   UNL     1       3.321   8.474  17.146  0.00  0.00    +0.000 OA
ATOM     26  N   UNL     1       1.786   8.080  18.812  0.00  0.00    +0.000 N 
ATOM     27  H   UNL     1       1.205   7.388  19.270  0.00  0.00    +0.000 HD
BRANCH  24  32
ATOM     28  C   UNL     1       2.621   3.913  18.428  0.00  0.00    +0.000 A 
ATOM     29  C   UNL     1       3.763   3.514  17.727  0.00  0.00    +0.000 A 
ATOM     30  C   UNL     1       4.568   4.469  17.097  0.00  0.00    +0.000 A 
ATOM     31  C   UNL     1       4.223   5.817  17.158  0.00  0.00    +0.000 A 
ATOM     32  C   UNL     1       3.073   6.231  17.832  0.00  0.00    +0.000 A 
ATOM     33  C   UNL     1       2.269   5.274  18.470  0.00  0.00    +0.000 A 
BRANCH  28  34
ATOM     34  C   UNL     1       1.746   2.929  19.139  0.00  0.00    +0.000 C 
ATOM     35  O   UNL     1       1.608   1.803  18.660  0.00  0.00    +0.000 OA
BRANCH  34  37
ATOM     36  C   UNL     1       1.615   2.647  21.651  0.00  0.00    +0.000 C 
ATOM     37  C   UNL     1       1.064   3.359  20.427  0.00  0.00    +0.000 C 
ENDBRANCH  34  37
ENDBRANCH  28  34
ENDBRANCH  24  32
ENDBRANCH  23  26
ENDBRANCH   1  23
TORSDOF 8
ENDMDL
MODEL 3
REMARK VINA RESULT:      -8.6      3.682     11.634
REMARK  Name = 
REMARK  10 active torsions:
REMARK  status: ('A' for Active; 'I' for Inactive)
REMARK    1  A    between atoms: C_1  and  C_2
REMARK    2  A    between atoms: C_2  and  C_3
REMARK    3  A    between atoms: C_3  and  C_5
REMARK    4  A    between atoms: C_9  and  C_10
REMARK    5  A    between atoms: N_12  and  C_13
REMARK    6  A    between atoms: C_13  and  C_14
REMARK    7  A    between atoms: C_19  and  C_20
REMARK    8  A    between atoms: C_24  and  C_25
REMARK    9  A    between atoms: C_25  and  N_26
REMARK   10  A    between atoms: C_30  and  C_31
REMARK                            x       y       z     vdW  Elec       q    Type
REMARK                         _______ _______ _______ _____ _____    ______ ____
ROOT
ATOM      1  C   UNL     1       0.645   9.860  20.942  0.00  0.00    +0.000 A 
ATOM      2  C   UNL     1       0.746  10.567  19.738  0.00  0.00    +0.000 A 
ATOM      3  C   UNL     1       1.294   9.956  18.617  0.00  0.00    +0.000 A 
ATOM      4  C   UNL     1       1.747   8.639  18.690  0.00  0.00    +0.000 A 
ATOM      5  F   UNL     1       2.200   8.095  17.544  0.00  0.00    +0.000 F 
ATOM      6  C   UNL     1       1.721   7.885  19.877  0.00  0.00    +0.000 A 
ATOM      7  C   UNL     1       1.167   8.542  21.009  0.00  0.00    +0.000 A 
ENDROOT
BRANCH   6   8
ATOM      8  C   UNL     1       2.236   6.477  19.917  0.00  0.00    +0.000 A 
ATOM      9  C   UNL     1       1.492   5.413  20.447  0.00  0.00    +0.000 A 
ATOM     10  C   UNL     1       2.006   4.103  20.478  0.00  0.00    +0.000 A 
ATOM     11  C   UNL     1       3.286   3.813  19.985  0.00  0.00    +0.000 A 
ATOM     12  C   UNL     1       4.069   4.828  19.440  0.00  0.00    +0.000 A 
ATOM     13  C   UNL     1       3.520   6.140  19.417  0.00  0.00    +0.000 A 
BRANCH  12  14
ATOM     14  C   UNL     1       5.530   4.668  19.017  0.00  0.00    +0.000 C 
BRANCH  14  15
ATOM     15  N   UNL     1       5.848   4.203  17.652  0.00  0.00    +0.000 NA
ATOM     16  C   UNL     1       4.897   4.683  16.633  0.00  0.00    +0.000 C 
ATOM     17  C   UNL     1       4.997   6.178  16.232  0.00  0.00    +0.000 C 
ATOM     18  N   UNL     1       6.306   6.827  16.240  0.00  0.00    +0.000 NA
ATOM     19  C   UNL     1       7.396   6.177  16.964  0.00  0.00    +0.000 C 
ATOM     20  C   UNL     1       7.839   6.905  18.243  0.00  0.00    +0.000 C 
ATOM     21  C   UNL     1       7.195   4.653  17.206  0.00  0.00    +0.000 C 
ATOM     22  H   UNL     1       6.250   7.833  16.380  0.00  0.00    +0.000 HD
ENDBRANCH  14  15
ENDBRANCH  12  14
ENDBRANCH   6   8
BRANCH   1  23
ATOM     23  C   UNL     1      -0.079  10.504  22.104  0.00  0.00    +0.000 C 
BRANCH  23  26
ATOM     24  C   UNL     1      -1.816  12.215  22.365  0.00  0.00    +0.000 C 
ATOM     25  O   UNL     1      -1.167  12.817  23.226  0.00  0.00    +0.000 OA
ATOM     26  N   UNL     1      -1.366  11.061  21.754  0.00  0.00    +0.000 N 
ATOM     27  H   UNL     1      -2.002  10.495  21.205  0.00  0.00    +0.000 HD
BRANCH  24  32
ATOM     28  C   UNL     1      -5.373  13.571  22.538  0.00  0.00    +0.000 A 
ATOM     29  C   UNL     1      -5.704  13.612  21.180  0.00  0.00    +0.000 A 
ATOM     30  C   UNL     1      -4.775  13.193  20.220  0.00  0.00    +0.000 A 
ATOM     31  C   UNL     1      -3.517  12.748  20.619  0.00  0.00    +0.000 A 
ATOM     32  C   UNL     1      -3.162  12.724  21.969  0.00  0.00    +0.000 A 
ATOM     33  C   UNL     1      -4.095  13.137  22.932  0.00  0.00    +0.000 A 
BRANCH  28  34
ATOM     34  C   UNL     1      -6.344  13.984  23.600  0.00  0.00    +0.000 C 
ATOM     35  O   UNL     1      -6.840  13.117  24.320  0.00  0.00    +0.000 OA
BRANCH  34  37
ATOM     36  C   UNL     1      -5.502  16.279  24.256  0.00  0.00    +0.000 C 
ATOM     37  C   UNL     1      -6.676  15.459  23.748  0.00  0.00    +0.000 C 
ENDBRANCH  34  37
ENDBRANCH  28  34
ENDBRANCH  24  32
ENDBRANCH  23  26
ENDBRANCH   1  23
TORSDOF 8
ENDMDL
MODEL 4
REMARK VINA RESULT:      -8.6      3.678      6.552
REMARK  Name = 
REMARK  10 active torsions:
REMARK  status: ('A' for Active; 'I' for Inactive)
REMARK    1  A    between atoms: C_1  and  C_2
REMARK    2  A    between atoms: C_2  and  C_3
REMARK    3  A    between atoms: C_3  and  C_5
REMARK    4  A    between atoms: C_9  and  C_10
REMARK    5  A    between atoms: N_12  and  C_13
REMARK    6  A    between atoms: C_13  and  C_14
REMARK    7  A    between atoms: C_19  and  C_20
REMARK    8  A    between atoms: C_24  and  C_25
REMARK    9  A    between atoms: C_25  and  N_26
REMARK   10  A    between atoms: C_30  and  C_31
REMARK                            x       y       z     vdW  Elec       q    Type
REMARK                         _______ _______ _______ _____ _____    ______ ____
ROOT
ATOM      1  C   UNL     1       4.628   5.057  19.089  0.00  0.00    +0.000 A 
ATOM      2  C   UNL     1       3.950   4.094  19.847  0.00  0.00    +0.000 A 
ATOM      3  C   UNL     1       2.673   4.359  20.326  0.00  0.00    +0.000 A 
ATOM      4  C   UNL     1       2.066   5.586  20.055  0.00  0.00    +0.000 A 
ATOM      5  F   UNL     1       0.802   5.739  20.493  0.00  0.00    +0.000 F 
ATOM      6  C   UNL     1       2.706   6.616  19.343  0.00  0.00    +0.000 A 
ATOM      7  C   UNL     1       4.015   6.319  18.878  0.00  0.00    +0.000 A 
ENDROOT
BRANCH   6   8
ATOM      8  C   UNL     1       2.023   7.928  19.090  0.00  0.00    +0.000 A 
ATOM      9  C   UNL     1       1.957   8.515  17.818  0.00  0.00    +0.000 A 
ATOM     10  C   UNL     1       1.316   9.751  17.614  0.00  0.00    +0.000 A 
ATOM     11  C   UNL     1       0.725  10.447  18.678  0.00  0.00    +0.000 A 
ATOM     12  C   UNL     1       0.754   9.911  19.963  0.00  0.00    +0.000 A 
ATOM     13  C   UNL     1       1.403   8.657  20.136  0.00  0.00    +0.000 A 
BRANCH  12  14
ATOM     14  C   UNL     1       0.286  10.643  21.222  0.00  0.00    +0.000 C 
BRANCH  14  15
ATOM     15  N   UNL     1      -1.129  11.046  21.348  0.00  0.00    +0.000 NA
ATOM     16  C   UNL     1      -1.480  11.542  22.690  0.00  0.00    +0.000 C 
ATOM     17  C   UNL     1      -0.962  12.954  23.071  0.00  0.00    +0.000 C 
ATOM     18  N   UNL     1      -0.840  13.968  22.026  0.00  0.00    +0.000 NA
ATOM     19  C   UNL     1      -0.848  13.531  20.633  0.00  0.00    +0.000 C 
ATOM     20  C   UNL     1       0.501  13.670  19.910  0.00  0.00    +0.000 C 
ATOM     21  C   UNL     1      -1.489  12.132  20.397  0.00  0.00    +0.000 C 
ATOM     22  H   UNL     1      -0.140  14.676  22.241  0.00  0.00    +0.000 HD
ENDBRANCH  14  15
ENDBRANCH  12  14
ENDBRANCH   6   8
BRANCH   1  23
ATOM     23  C   UNL     1       5.958   4.689  18.469  0.00  0.00    +0.000 C 
BRANCH  23  26
ATOM     24  C   UNL     1       7.118   4.466  16.320  0.00  0.00    +0.000 C 
ATOM     25  O   UNL     1       8.188   4.182  16.867  0.00  0.00    +0.000 OA
ATOM     26  N   UNL     1       5.961   4.736  17.023  0.00  0.00    +0.000 N 
ATOM     27  H   UNL     1       5.166   5.153  16.554  0.00  0.00    +0.000 HD
BRANCH  24  32
ATOM     28  C   UNL     1       6.156   3.820  12.690  0.00  0.00    +0.000 A 
ATOM     29  C   UNL     1       7.019   4.700  12.030  0.00  0.00    +0.000 A 
ATOM     30  C   UNL     1       7.910   5.490  12.765  0.00  0.00    +0.000 A 
ATOM     31  C   UNL     1       7.927   5.407  14.155  0.00  0.00    +0.000 A 
ATOM     32  C   UNL     1       7.055   4.552  14.832  0.00  0.00    +0.000 A 
ATOM     33  C   UNL     1       6.166   3.755  14.094  0.00  0.00    +0.000 A 
BRANCH  28  34
ATOM     34  C   UNL     1       5.205   2.937  11.943  0.00  0.00    +0.000 C 
ATOM     35  O   UNL     1       5.603   1.843  11.541  0.00  0.00    +0.000 OA
BRANCH  34  37
ATOM     36  C   UNL     1       3.354   3.321  10.260  0.00  0.00    +0.000 C 
ATOM     37  C   UNL     1       3.786   3.428  11.713  0.00  0.00    +0.000 C 
ENDBRANCH  34  37
ENDBRANCH  28  34
ENDBRANCH  24  32
ENDBRANCH  23  26
ENDBRANCH   1  23
TORSDOF 8
ENDMDL
MODEL 5
REMARK VINA RESULT:      -8.6      3.658     11.551
REMARK  Name = 
REMARK  10 active torsions:
REMARK  status: ('A' for Active; 'I' for Inactive)
REMARK    1  A    between atoms: C_1  and  C_2
REMARK    2  A    between atoms: C_2  and  C_3
REMARK    3  A    between atoms: C_3  and  C_5
REMARK    4  A    between atoms: C_9  and  C_10
REMARK    5  A    between atoms: N_12  and  C_13
REMARK    6  A    between atoms: C_13  and  C_14
REMARK    7  A    between atoms: C_19  and  C_20
REMARK    8  A    between atoms: C_24  and  C_25
REMARK    9  A    between atoms: C_25  and  N_26
REMARK   10  A    between atoms: C_30  and  C_31
REMARK                            x       y       z     vdW  Elec       q    Type
REMARK                         _______ _______ _______ _____ _____    ______ ____
ROOT
ATOM      1  C   UNL     1       0.761   9.405  21.268  0.00  0.00    +0.000 A 
ATOM      2  C   UNL     1       0.870  10.216  20.131  0.00  0.00    +0.000 A 
ATOM      3  C   UNL     1       1.418   9.704  18.962  0.00  0.00    +0.000 A 
ATOM      4  C   UNL     1       1.862   8.382  18.919  0.00  0.00    +0.000 A 
ATOM      5  F   UNL     1       2.313   7.939  17.730  0.00  0.00    +0.000 F 
ATOM      6  C   UNL     1       1.827   7.526  20.034  0.00  0.00    +0.000 A 
ATOM      7  C   UNL     1       1.275   8.083  21.218  0.00  0.00    +0.000 A 
ENDROOT
BRANCH   6   8
ATOM      8  C   UNL     1       2.333   6.116  19.949  0.00  0.00    +0.000 A 
ATOM      9  C   UNL     1       1.582   5.014  20.386  0.00  0.00    +0.000 A 
ATOM     10  C   UNL     1       2.086   3.704  20.301  0.00  0.00    +0.000 A 
ATOM     11  C   UNL     1       3.364   3.449  19.782  0.00  0.00    +0.000 A 
ATOM     12  C   UNL     1       4.153   4.502  19.327  0.00  0.00    +0.000 A 
ATOM     13  C   UNL     1       3.614   5.815  19.420  0.00  0.00    +0.000 A 
BRANCH  12  14
ATOM     14  C   UNL     1       5.613   4.370  18.889  0.00  0.00    +0.000 C 
BRANCH  14  15
ATOM     15  N   UNL     1       5.926   4.070  17.478  0.00  0.00    +0.000 NA
ATOM     16  C   UNL     1       4.937   4.611  16.529  0.00  0.00    +0.000 C 
ATOM     17  C   UNL     1       4.963   6.144  16.291  0.00  0.00    +0.000 C 
ATOM     18  N   UNL     1       6.241   6.848  16.351  0.00  0.00    +0.000 NA
ATOM     19  C   UNL     1       7.372   6.176  16.987  0.00  0.00    +0.000 C 
ATOM     20  C   UNL     1       7.804   6.783  18.331  0.00  0.00    +0.000 C 
ATOM     21  C   UNL     1       7.244   4.627  17.066  0.00  0.00    +0.000 C 
ATOM     22  H   UNL     1       6.142   7.830  16.600  0.00  0.00    +0.000 HD
ENDBRANCH  14  15
ENDBRANCH  12  14
ENDBRANCH   6   8
BRANCH   1  23
ATOM     23  C   UNL     1       0.039   9.949  22.481  0.00  0.00    +0.000 C 
BRANCH  23  26
ATOM     24  C   UNL     1      -1.269  11.995  22.147  0.00  0.00    +0.000 C 
ATOM     25  O   UNL     1      -0.298  12.719  22.389  0.00  0.00    +0.000 OA
ATOM     26  N   UNL     1      -1.205  10.616  22.169  0.00  0.00    +0.000 N 
ATOM     27  H   UNL     1      -2.057  10.067  22.159  0.00  0.00    +0.000 HD
BRANCH  24  32
ATOM     28  C   UNL     1      -4.749  13.500  22.536  0.00  0.00    +0.000 A 
ATOM     29  C   UNL     1      -5.087  13.726  21.198  0.00  0.00    +0.000 A 
ATOM     30  C   UNL     1      -4.189  13.383  20.181  0.00  0.00    +0.000 A 
ATOM     31  C   UNL     1      -2.953  12.828  20.504  0.00  0.00    +0.000 A 
ATOM     32  C   UNL     1      -2.589  12.618  21.836  0.00  0.00    +0.000 A 
ATOM     33  C   UNL     1      -3.492  12.956  22.855  0.00  0.00    +0.000 A 
BRANCH  28  34
ATOM     34  C   UNL     1      -5.689  13.827  23.654  0.00  0.00    +0.000 C 
ATOM     35  O   UNL     1      -5.699  14.973  24.105  0.00  0.00    +0.000 OA
BRANCH  34  37
ATOM     36  C   UNL     1      -7.906  12.629  23.424  0.00  0.00    +0.000 C 
ATOM     37  C   UNL     1      -6.595  12.730  24.186  0.00  0.00    +0.000 C 
ENDBRANCH  34  37
ENDBRANCH  28  34
ENDBRANCH  24  32
ENDBRANCH  23  26
ENDBRANCH   1  23
TORSDOF 8
ENDMDL
MODEL 6
REMARK VINA RESULT:      -8.5      3.517     11.444
REMARK  Name = 
REMARK  10 active torsions:
REMARK  status: ('A' for Active; 'I' for Inactive)
REMARK    1  A    between atoms: C_1  and  C_2
REMARK    2  A    between atoms: C_2  and  C_3
REMARK    3  A    between atoms: C_3  and  C_5
REMARK    4  A    between atoms: C_9  and  C_10
REMARK    5  A    between atoms: N_12  and  C_13
REMARK    6  A    between atoms: C_13  and  C_14
REMARK    7  A    between atoms: C_19  and  C_20
REMARK    8  A    between atoms: C_24  and  C_25
REMARK    9  A    between atoms: C_25  and  N_26
REMARK   10  A    between atoms: C_30  and  C_31
REMARK                            x       y       z     vdW  Elec       q    Type
REMARK                         _______ _______ _______ _____ _____    ______ ____
ROOT
ATOM      1  C   UNL     1       0.713   9.851  21.029  0.00  0.00    +0.000 A 
ATOM      2  C   UNL     1       0.764  10.733  19.943  0.00  0.00    +0.000 A 
ATOM      3  C   UNL     1       1.259  10.301  18.719  0.00  0.00    +0.000 A 
ATOM      4  C   UNL     1       1.707   8.988  18.571  0.00  0.00    +0.000 A 
ATOM      5  F   UNL     1       2.105   8.626  17.337  0.00  0.00    +0.000 F 
ATOM      6  C   UNL     1       1.730   8.063  19.630  0.00  0.00    +0.000 A 
ATOM      7  C   UNL     1       1.231   8.539  20.871  0.00  0.00    +0.000 A 
ENDROOT
BRANCH   6   8
ATOM      8  C   UNL     1       2.239   6.665  19.432  0.00  0.00    +0.000 A 
ATOM      9  C   UNL     1       2.081   5.658  20.395  0.00  0.00    +0.000 A 
ATOM     10  C   UNL     1       2.577   4.358  20.184  0.00  0.00    +0.000 A 
ATOM     11  C   UNL     1       3.255   4.022  19.003  0.00  0.00    +0.000 A 
ATOM     12  C   UNL     1       3.437   4.979  18.008  0.00  0.00    +0.000 A 
ATOM     13  C   UNL     1       2.919   6.282  18.248  0.00  0.00    +0.000 A 
BRANCH  12  14
ATOM     14  C   UNL     1       4.290   4.779  16.754  0.00  0.00    +0.000 C 
BRANCH  14  15
ATOM     15  N   UNL     1       5.525   3.975  16.832  0.00  0.00    +0.000 NA
ATOM     16  C   UNL     1       6.099   3.653  15.514  0.00  0.00    +0.000 C 
ATOM     17  C   UNL     1       6.806   4.809  14.758  0.00  0.00    +0.000 C 
ATOM     18  N   UNL     1       7.509   5.832  15.528  0.00  0.00    +0.000 NA
ATOM     19  C   UNL     1       7.217   5.947  16.955  0.00  0.00    +0.000 C 
ATOM     20  C   UNL     1       6.445   7.215  17.351  0.00  0.00    +0.000 C 
ATOM     21  C   UNL     1       6.599   4.669  17.594  0.00  0.00    +0.000 C 
ATOM     22  H   UNL     1       7.571   6.723  15.039  0.00  0.00    +0.000 HD
ENDBRANCH  14  15
ENDBRANCH  12  14
ENDBRANCH   6   8
BRANCH   1  23
ATOM     23  C   UNL     1       0.045  10.310  22.307  0.00  0.00    +0.000 C 
BRANCH  23  26
ATOM     24  C   UNL     1      -1.202  12.412  22.505  0.00  0.00    +0.000 C 
ATOM     25  O   UNL     1      -0.261  12.977  23.071  0.00  0.00    +0.000 OA
ATOM     26  N   UNL     1      -1.150  11.096  22.091  0.00  0.00    +0.000 N 
ATOM     27  H   UNL     1      -1.997  10.616  21.813  0.00  0.00    +0.000 HD
BRANCH  24  32
ATOM     28  C   UNL     1      -4.771  13.256  21.470  0.00  0.00    +0.000 A 
ATOM     29  C   UNL     1      -4.817  14.619  21.779  0.00  0.00    +0.000 A 
ATOM     30  C   UNL     1      -3.691  15.255  22.313  0.00  0.00    +0.000 A 
ATOM     31  C   UNL     1      -2.528  14.525  22.548  0.00  0.00    +0.000 A 
ATOM     32  C   UNL     1      -2.472  13.158  22.268  0.00  0.00    +0.000 A 
ATOM     33  C   UNL     1      -3.599  12.522  21.726  0.00  0.00    +0.000 A 
BRANCH  28  34
ATOM     34  C   UNL     1      -5.943  12.541  20.873  0.00  0.00    +0.000 C 
ATOM     35  O   UNL     1      -6.476  11.636  21.516  0.00  0.00    +0.000 OA
BRANCH  34  37
ATOM     36  C   UNL     1      -6.394  11.829  18.486  0.00  0.00    +0.000 C 
ATOM     37  C   UNL     1      -6.428  12.964  19.497  0.00  0.00    +0.000 C 
ENDBRANCH  34  37
ENDBRANCH  28  34
ENDBRANCH  24  32
ENDBRANCH  23  26
ENDBRANCH   1  23
TORSDOF 8
ENDMDL
MODEL 7
REMARK VINA RESULT:      -8.5      3.791      6.902
REMARK  Name = 
REMARK  10 active torsions:
REMARK  status: ('A' for Active; 'I' for Inactive)
REMARK    1  A    between atoms: C_1  and  C_2
REMARK    2  A    between atoms: C_2  and  C_3
REMARK    3  A    between atoms: C_3  and  C_5
REMARK    4  A    between atoms: C_9  and  C_10
REMARK    5  A    between atoms: N_12  and  C_13
REMARK    6  A    between atoms: C_13  and  C_14
REMARK    7  A    between atoms: C_19  and  C_20
REMARK    8  A    between atoms: C_24  and  C_25
REMARK    9  A    between atoms: C_25  and  N_26
REMARK   10  A    between atoms: C_30  and  C_31
REMARK                            x       y       z     vdW  Elec       q    Type
REMARK                         _______ _______ _______ _____ _____    ______ ____
ROOT
ATOM      1  C   UNL     1       5.148   4.569  18.763  0.00  0.00    +0.000 A 
ATOM      2  C   UNL     1       4.424   3.536  19.372  0.00  0.00    +0.000 A 
ATOM      3  C   UNL     1       3.112   3.752  19.775  0.00  0.00    +0.000 A 
ATOM      4  C   UNL     1       2.516   4.998  19.578  0.00  0.00    +0.000 A 
ATOM      5  F   UNL     1       1.221   5.106  19.931  0.00  0.00    +0.000 F 
ATOM      6  C   UNL     1       3.198   6.093  19.018  0.00  0.00    +0.000 A 
ATOM      7  C   UNL     1       4.541   5.845  18.628  0.00  0.00    +0.000 A 
ENDROOT
BRANCH   6   8
ATOM      8  C   UNL     1       2.525   7.422  18.841  0.00  0.00    +0.000 A 
ATOM      9  C   UNL     1       2.510   8.106  17.617  0.00  0.00    +0.000 A 
ATOM     10  C   UNL     1       1.877   9.356  17.484  0.00  0.00    +0.000 A 
ATOM     11  C   UNL     1       1.242   9.969  18.574  0.00  0.00    +0.000 A 
ATOM     12  C   UNL     1       1.219   9.334  19.813  0.00  0.00    +0.000 A 
ATOM     13  C   UNL     1       1.862   8.069  19.915  0.00  0.00    +0.000 A 
BRANCH  12  14
ATOM     14  C   UNL     1       0.699   9.966  21.105  0.00  0.00    +0.000 C 
BRANCH  14  15
ATOM     15  N   UNL     1      -0.746  10.230  21.258  0.00  0.00    +0.000 NA
ATOM     16  C   UNL     1      -1.118  10.691  22.607  0.00  0.00    +0.000 C 
ATOM     17  C   UNL     1      -0.731  12.147  22.981  0.00  0.00    +0.000 C 
ATOM     18  N   UNL     1      -0.727  13.167  21.935  0.00  0.00    +0.000 NA
ATOM     19  C   UNL     1      -0.719  12.731  20.541  0.00  0.00    +0.000 C 
ATOM     20  C   UNL     1       0.596  13.000  19.794  0.00  0.00    +0.000 C 
ATOM     21  C   UNL     1      -1.227  11.277  20.316  0.00  0.00    +0.000 C 
ATOM     22  H   UNL     1      -0.095  13.940  22.137  0.00  0.00    +0.000 HD
ENDBRANCH  14  15
ENDBRANCH  12  14
ENDBRANCH   6   8
BRANCH   1  23
ATOM     23  C   UNL     1       6.524   4.264  18.213  0.00  0.00    +0.000 C 
BRANCH  23  26
ATOM     24  C   UNL     1       7.070   5.144  15.991  0.00  0.00    +0.000 C 
ATOM     25  O   UNL     1       7.507   6.200  16.459  0.00  0.00    +0.000 OA
ATOM     26  N   UNL     1       6.561   4.128  16.774  0.00  0.00    +0.000 N 
ATOM     27  H   UNL     1       6.038   3.371  16.349  0.00  0.00    +0.000 HD
BRANCH  24  32
ATOM     28  C   UNL     1       6.211   3.840  12.515  0.00  0.00    +0.000 A 
ATOM     29  C   UNL     1       7.124   4.556  11.734  0.00  0.00    +0.000 A 
ATOM     30  C   UNL     1       8.014   5.449  12.340  0.00  0.00    +0.000 A 
ATOM     31  C   UNL     1       7.982   5.633  13.720  0.00  0.00    +0.000 A 
ATOM     32  C   UNL     1       7.060   4.945  14.512  0.00  0.00    +0.000 A 
ATOM     33  C   UNL     1       6.172   4.044  13.906  0.00  0.00    +0.000 A 
BRANCH  28  34
ATOM     34  C   UNL     1       5.259   2.854  11.913  0.00  0.00    +0.000 C 
ATOM     35  O   UNL     1       4.076   3.174  11.784  0.00  0.00    +0.000 OA
BRANCH  34  37
ATOM     36  C   UNL     1       7.248   1.547  11.053  0.00  0.00    +0.000 C 
ATOM     37  C   UNL     1       5.791   1.498  11.481  0.00  0.00    +0.000 C 
ENDBRANCH  34  37
ENDBRANCH  28  34
ENDBRANCH  24  32
ENDBRANCH  23  26
ENDBRANCH   1  23
TORSDOF 8
ENDMDL
MODEL 8
REMARK VINA RESULT:      -8.5      3.812     11.038
REMARK  Name = 
REMARK  10 active torsions:
REMARK  status: ('A' for Active; 'I' for Inactive)
REMARK    1  A    between atoms: C_1  and  C_2
REMARK    2  A    between atoms: C_2  and  C_3
REMARK    3  A    between atoms: C_3  and  C_5
REMARK    4  A    between atoms: C_9  and  C_10
REMARK    5  A    between atoms: N_12  and  C_13
REMARK    6  A    between atoms: C_13  and  C_14
REMARK    7  A    between atoms: C_19  and  C_20
REMARK    8  A    between atoms: C_24  and  C_25
REMARK    9  A    between atoms: C_25  and  N_26
REMARK   10  A    between atoms: C_30  and  C_31
REMARK                            x       y       z     vdW  Elec       q    Type
REMARK                         _______ _______ _______ _____ _____    ______ ____
ROOT
ATOM      1  C   UNL     1      -1.248  11.578  21.995  0.00  0.00    +0.000 A 
ATOM      2  C   UNL     1      -1.199  10.897  23.218  0.00  0.00    +0.000 A 
ATOM      3  C   UNL     1      -0.416   9.757  23.348  0.00  0.00    +0.000 A 
ATOM      4  C   UNL     1       0.320   9.287  22.261  0.00  0.00    +0.000 A 
ATOM      5  F   UNL     1       1.108   8.219  22.486  0.00  0.00    +0.000 F 
ATOM      6  C   UNL     1       0.282   9.891  20.991  0.00  0.00    +0.000 A 
ATOM      7  C   UNL     1      -0.538  11.047  20.887  0.00  0.00    +0.000 A 
ENDROOT
BRANCH   6   8
ATOM      8  C   UNL     1       1.076   9.342  19.843  0.00  0.00    +0.000 A 
ATOM      9  C   UNL     1       1.234  10.032  18.632  0.00  0.00    +0.000 A 
ATOM     10  C   UNL     1       1.977   9.487  17.570  0.00  0.00    +0.000 A 
ATOM     11  C   UNL     1       2.584   8.227  17.679  0.00  0.00    +0.000 A 
ATOM     12  C   UNL     1       2.468   7.498  18.859  0.00  0.00    +0.000 A 
ATOM     13  C   UNL     1       1.715   8.078  19.918  0.00  0.00    +0.000 A 
BRANCH  12  14
ATOM     14  C   UNL     1       2.948   6.057  19.044  0.00  0.00    +0.000 C 
BRANCH  14  15
ATOM     15  N   UNL     1       2.922   5.127  17.897  0.00  0.00    +0.000 NA
ATOM     16  C   UNL     1       4.061   4.194  17.873  0.00  0.00    +0.000 C 
ATOM     17  C   UNL     1       4.042   3.040  18.911  0.00  0.00    +0.000 C 
ATOM     18  N   UNL     1       2.758   2.470  19.311  0.00  0.00    +0.000 NA
ATOM     19  C   UNL     1       1.544   3.228  19.021  0.00  0.00    +0.000 C 
ATOM     20  C   UNL     1       0.843   3.814  20.257  0.00  0.00    +0.000 C 
ATOM     21  C   UNL     1       1.695   4.284  17.887  0.00  0.00    +0.000 C 
ATOM     22  H   UNL     1       2.781   2.054  20.240  0.00  0.00    +0.000 HD
ENDBRANCH  14  15
ENDBRANCH  12  14
ENDBRANCH   6   8
BRANCH   1  23
ATOM     23  C   UNL     1      -1.999  12.889  21.923  0.00  0.00    +0.000 C 
BRANCH  23  26
ATOM     24  C   UNL     1      -4.391  12.679  21.428  0.00  0.00    +0.000 C 
ATOM     25  O   UNL     1      -4.675  12.495  22.616  0.00  0.00    +0.000 OA
ATOM     26  N   UNL     1      -3.099  12.880  20.985  0.00  0.00    +0.000 N 
ATOM     27  H   UNL     1      -2.888  12.831  19.996  0.00  0.00    +0.000 HD
BRANCH  24  32
ATOM     28  C   UNL     1      -6.677  13.696  18.554  0.00  0.00    +0.000 A 
ATOM     29  C   UNL     1      -7.572  12.622  18.539  0.00  0.00    +0.000 A 
ATOM     30  C   UNL     1      -7.433  11.581  19.464  0.00  0.00    +0.000 A 
ATOM     31  C   UNL     1      -6.394  11.610  20.391  0.00  0.00    +0.000 A 
ATOM     32  C   UNL     1      -5.476  12.663  20.404  0.00  0.00    +0.000 A 
ATOM     33  C   UNL     1      -5.620  13.710  19.481  0.00  0.00    +0.000 A 
BRANCH  28  34
ATOM     34  C   UNL     1      -6.805  14.844  17.601  0.00  0.00    +0.000 C 
ATOM     35  O   UNL     1      -7.015  14.606  16.411  0.00  0.00    +0.000 OA
BRANCH  34  37
ATOM     36  C   UNL     1      -7.917  16.724  18.878  0.00  0.00    +0.000 C 
ATOM     37  C   UNL     1      -6.672  16.257  18.142  0.00  0.00    +0.000 C 
ENDBRANCH  34  37
ENDBRANCH  28  34
ENDBRANCH  24  32
ENDBRANCH  23  26
ENDBRANCH   1  23
TORSDOF 8
ENDMDL
MODEL 9
REMARK VINA RESULT:      -8.4      1.794      3.442
REMARK  Name = 
REMARK  10 active torsions:
REMARK  status: ('A' for Active; 'I' for Inactive)
REMARK    1  A    between atoms: C_1  and  C_2
REMARK    2  A    between atoms: C_2  and  C_3
REMARK    3  A    between atoms: C_3  and  C_5
REMARK    4  A    between atoms: C_9  and  C_10
REMARK    5  A    between atoms: N_12  and  C_13
REMARK    6  A    between atoms: C_13  and  C_14
REMARK    7  A    between atoms: C_19  and  C_20
REMARK    8  A    between atoms: C_24  and  C_25
REMARK    9  A    between atoms: C_25  and  N_26
REMARK   10  A    between atoms: C_30  and  C_31
REMARK                            x       y       z     vdW  Elec       q    Type
REMARK                         _______ _______ _______ _____ _____    ______ ____
ROOT
ATOM      1  C   UNL     1       0.632  10.095  19.718  0.00  0.00    +0.000 A 
ATOM      2  C   UNL     1       1.519  10.981  19.094  0.00  0.00    +0.000 A 
ATOM      3  C   UNL     1       1.055  12.191  18.593  0.00  0.00    +0.000 A 
ATOM      4  C   UNL     1      -0.294  12.525  18.709  0.00  0.00    +0.000 A 
ATOM      5  F   UNL     1      -0.652  13.743  18.263  0.00  0.00    +0.000 F 
ATOM      6  C   UNL     1      -1.249  11.664  19.280  0.00  0.00    +0.000 A 
ATOM      7  C   UNL     1      -0.747  10.429  19.771  0.00  0.00    +0.000 A 
ENDROOT
BRANCH   6   8
ATOM      8  C   UNL     1      -2.695  12.055  19.368  0.00  0.00    +0.000 A 
ATOM      9  C   UNL     1      -3.660  11.597  18.458  0.00  0.00    +0.000 A 
ATOM     10  C   UNL     1      -5.008  11.988  18.562  0.00  0.00    +0.000 A 
ATOM     11  C   UNL     1      -5.437  12.857  19.576  0.00  0.00    +0.000 A 
ATOM     12  C   UNL     1      -4.525  13.338  20.512  0.00  0.00    +0.000 A 
ATOM     13  C   UNL     1      -3.172  12.921  20.385  0.00  0.00    +0.000 A 
BRANCH  12  14
ATOM     14  C   UNL     1      -4.838  14.406  21.562  0.00  0.00    +0.000 C 
BRANCH  14  15
ATOM     15  N   UNL     1      -5.608  14.040  22.767  0.00  0.00    +0.000 NA
ATOM     16  C   UNL     1      -4.917  13.068  23.632  0.00  0.00    +0.000 C 
ATOM     17  C   UNL     1      -3.718  13.599  24.462  0.00  0.00    +0.000 C 
ATOM     18  N   UNL     1      -3.749  14.976  24.947  0.00  0.00    +0.000 NA
ATOM     19  C   UNL     1      -4.699  15.904  24.339  0.00  0.00    +0.000 C 
ATOM     20  C   UNL     1      -4.060  16.995  23.466  0.00  0.00    +0.000 C 
ATOM     21  C   UNL     1      -5.902  15.221  23.624  0.00  0.00    +0.000 C 
ATOM     22  H   UNL     1      -2.820  15.365  25.097  0.00  0.00    +0.000 HD
ENDBRANCH  14  15
ENDBRANCH  12  14
ENDBRANCH   6   8
BRANCH   1  23
ATOM     23  C   UNL     1       1.189   8.850  20.372  0.00  0.00    +0.000 C 
BRANCH  23  26
ATOM     24  C   UNL     1       2.067   6.650  19.741  0.00  0.00    +0.000 C 
ATOM     25  O   UNL     1       1.591   6.113  20.746  0.00  0.00    +0.000 OA
ATOM     26  N   UNL     1       1.926   7.996  19.468  0.00  0.00    +0.000 N 
ATOM     27  H   UNL     1       2.490   8.430  18.748  0.00  0.00    +0.000 HD
BRANCH  24  32
ATOM     28  C   UNL     1       4.641   5.600  17.134  0.00  0.00    +0.000 A 
ATOM     29  C   UNL     1       4.268   4.270  16.920  0.00  0.00    +0.000 A 
ATOM     30  C   UNL     1       3.183   3.725  17.615  0.00  0.00    +0.000 A 
ATOM     31  C   UNL     1       2.482   4.507  18.530  0.00  0.00    +0.000 A 
ATOM     32  C   UNL     1       2.856   5.830  18.775  0.00  0.00    +0.000 A 
ATOM     33  C   UNL     1       3.940   6.378  18.072  0.00  0.00    +0.000 A 
BRANCH  28  34
ATOM     34  C   UNL     1       5.778   6.231  16.392  0.00  0.00    +0.000 C 
ATOM     35  O   UNL     1       5.564   6.723  15.284  0.00  0.00    +0.000 OA
BRANCH  34  37
ATOM     36  C   UNL     1       7.602   7.635  17.447  0.00  0.00    +0.000 C 
ATOM     37  C   UNL     1       7.152   6.241  17.040  0.00  0.00    +0.000 C 
ENDBRANCH  34  37
ENDBRANCH  28  34
ENDBRANCH  24  32
ENDBRANCH  23  26
ENDBRANCH   1  23
TORSDOF 8
ENDMDL
