MODEL 1
REMARK VINA RESULT:      -8.3      0.000      0.000
REMARK  Name = 
REMARK  7 active torsions:
REMARK  status: ('A' for Active; 'I' for Inactive)
REMARK    1  A    between atoms: C_1  and  C_2
REMARK    2  A    between atoms: C_2  and  N_3
REMARK    3  A    between atoms: N_3  and  C_4
REMARK    4  A    between atoms: N_3  and  C_6
REMARK    5  A    between atoms: C_4  and  C_5
REMARK    6  A    between atoms: C_6  and  C_7
REMARK    7  A    between atoms: N_9  and  C_10
REMARK                            x       y       z     vdW  Elec       q    Type
REMARK                         _______ _______ _______ _____ _____    ______ ____
ROOT
ATOM      1  C   UNL     1      -1.308  12.000  22.687  0.00  0.00    +0.000 A 
ATOM      2  C   UNL     1      -1.401  10.740  23.294  0.00  0.00    +0.000 A 
ATOM      3  C   UNL     1      -0.495   9.723  23.000  0.00  0.00    +0.000 A 
ATOM      4  C   UNL     1       0.393   9.860  21.950  0.00  0.00    +0.000 A 
ATOM      5  N   UNL     1       1.128   8.729  21.600  0.00  0.00    +0.000 NA
ATOM      6  C   UNL     1       1.497   8.650  20.367  0.00  0.00    +0.000 A 
ATOM      7  C   UNL     1       2.063   7.418  19.901  0.00  0.00    +0.000 A 
ATOM      8  N   UNL     1       2.361   6.317  20.658  0.00  0.00    +0.000 N 
ATOM      9  C   UNL     1       2.819   5.306  19.842  0.00  0.00    +0.000 A 
ATOM     10  C   UNL     1       3.254   4.025  20.198  0.00  0.00    +0.000 A 
ATOM     11  C   UNL     1       3.671   3.175  19.175  0.00  0.00    +0.000 A 
ATOM     12  C   UNL     1       3.636   3.594  17.847  0.00  0.00    +0.000 A 
ATOM     13  C   UNL     1       3.201   4.887  17.502  0.00  0.00    +0.000 A 
ATOM     14  C   UNL     1       2.794   5.774  18.520  0.00  0.00    +0.000 A 
ATOM     15  C   UNL     1       2.328   7.121  18.589  0.00  0.00    +0.000 A 
ATOM     16  C   UNL     1       2.068   8.169  17.649  0.00  0.00    +0.000 A 
ATOM     17  C   UNL     1       1.642   9.384  18.070  0.00  0.00    +0.000 A 
ATOM     18  N   UNL     1       1.356   9.666  19.425  0.00  0.00    +0.000 N 
ATOM     19  C   UNL     1       0.961  10.954  19.843  0.00  0.00    +0.000 A 
ATOM     20  O   UNL     1       0.989  11.961  19.133  0.00  0.00    +0.000 OA
ATOM     21  C   UNL     1       0.395  11.048  21.223  0.00  0.00    +0.000 A 
ATOM     22  C   UNL     1      -0.344  12.173  21.677  0.00  0.00    +0.000 A 
ATOM     23  H   UNL     1       2.244   6.258  21.657  0.00  0.00    +0.000 HD
ENDROOT
BRANCH   1  26
ATOM     24  C   UNL     1      -3.549  13.045  22.835  0.00  0.00    +0.000 C 
ATOM     25  O   UNL     1      -4.106  12.242  22.083  0.00  0.00    +0.000 OA
ATOM     26  N   UNL     1      -2.185  13.055  23.096  0.00  0.00    +0.000 N 
ATOM     27  H   UNL     1      -1.786  13.930  23.419  0.00  0.00    +0.000 HD
BRANCH  24  28
ATOM     28  C   UNL     1      -4.444  14.081  23.567  0.00  0.00    +0.000 C 
BRANCH  28  29
ATOM     29  N   UNL     1      -5.813  14.258  23.024  0.00  0.00    +0.000 NA
BRANCH  29  31
ATOM     30  C   UNL     1      -7.503  12.461  23.479  0.00  0.00    +0.000 C 
ATOM     31  C   UNL     1      -6.839  13.751  23.954  0.00  0.00    +0.000 C 
ENDBRANCH  29  31
BRANCH  29  32
ATOM     32  C   UNL     1      -6.036  15.687  22.665  0.00  0.00    +0.000 C 
ATOM     33  C   UNL     1      -7.234  16.417  23.290  0.00  0.00    +0.000 C 
ENDBRANCH  29  32
ENDBRANCH  28  29
ENDBRANCH  24  28
ENDBRANCH   1  26
TORSDOF 5
ENDMDL
MODEL 2
REMARK VINA RESULT:      -8.3      1.207      1.893
REMARK  Name = 
REMARK  7 active torsions:
REMARK  status: ('A' for Active; 'I' for Inactive)
REMARK    1  A    between atoms: C_1  and  C_2
REMARK    2  A    between atoms: C_2  and  N_3
REMARK    3  A    between atoms: N_3  and  C_4
REMARK    4  A    between atoms: N_3  and  C_6
REMARK    5  A    between atoms: C_4  and  C_5
REMARK    6  A    between atoms: C_6  and  C_7
REMARK    7  A    between atoms: N_9  and  C_10
REMARK                            x       y       z     vdW  Elec       q    Type
REMARK                         _______ _______ _______ _____ _____    ______ ____
ROOT
ATOM      1  C   UNL     1      -1.135  12.066  22.625  0.00  0.00    +0.000 A 
ATOM      2  C   UNL     1      -1.291  10.819  23.245  0.00  0.00    +0.000 A 
ATOM      3  C   UNL     1      -0.434   9.757  22.967  0.00  0.00    +0.000 A 
ATOM      4  C   UNL     1       0.466   9.841  21.921  0.00  0.00    +0.000 A 
ATOM      5  N   UNL     1       1.149   8.672  21.588  0.00  0.00    +0.000 NA
ATOM      6  C   UNL     1       1.521   8.562  20.358  0.00  0.00    +0.000 A 
ATOM      7  C   UNL     1       2.031   7.301  19.908  0.00  0.00    +0.000 A 
ATOM      8  N   UNL     1       2.271   6.194  20.679  0.00  0.00    +0.000 N 
ATOM      9  C   UNL     1       2.685   5.154  19.875  0.00  0.00    +0.000 A 
ATOM     10  C   UNL     1       3.057   3.858  20.247  0.00  0.00    +0.000 A 
ATOM     11  C   UNL     1       3.440   2.978  19.236  0.00  0.00    +0.000 A 
ATOM     12  C   UNL     1       3.432   3.384  17.904  0.00  0.00    +0.000 A 
ATOM     13  C   UNL     1       3.062   4.693  17.543  0.00  0.00    +0.000 A 
ATOM     14  C   UNL     1       2.691   5.609  18.549  0.00  0.00    +0.000 A 
ATOM     15  C   UNL     1       2.289   6.978  18.601  0.00  0.00    +0.000 A 
ATOM     16  C   UNL     1       2.085   8.026  17.648  0.00  0.00    +0.000 A 
ATOM     17  C   UNL     1       1.715   9.265  18.055  0.00  0.00    +0.000 A 
ATOM     18  N   UNL     1       1.434   9.574  19.405  0.00  0.00    +0.000 N 
ATOM     19  C   UNL     1       1.099  10.884  19.807  0.00  0.00    +0.000 A 
ATOM     20  O   UNL     1       1.179  11.881  19.086  0.00  0.00    +0.000 OA
ATOM     21  C   UNL     1       0.530  11.019  21.182  0.00  0.00    +0.000 A 
ATOM     22  C   UNL     1      -0.157  12.183  21.620  0.00  0.00    +0.000 A 
ATOM     23  H   UNL     1       2.145   6.152  21.677  0.00  0.00    +0.000 HD
ENDROOT
BRANCH   1  26
ATOM     24  C   UNL     1      -3.349  13.135  22.930  0.00  0.00    +0.000 C 
ATOM     25  O   UNL     1      -3.988  12.256  22.347  0.00  0.00    +0.000 OA
ATOM     26  N   UNL     1      -1.964  13.166  23.017  0.00  0.00    +0.000 N 
ATOM     27  H   UNL     1      -1.535  14.070  23.188  0.00  0.00    +0.000 HD
BRANCH  24  28
ATOM     28  C   UNL     1      -4.155  14.253  23.645  0.00  0.00    +0.000 C 
BRANCH  28  29
ATOM     29  N   UNL     1      -3.389  15.466  24.024  0.00  0.00    +0.000 NA
BRANCH  29  31
ATOM     30  C   UNL     1      -5.150  17.076  24.800  0.00  0.00    +0.000 C 
ATOM     31  C   UNL     1      -4.137  16.700  23.721  0.00  0.00    +0.000 C 
ENDBRANCH  29  31
BRANCH  29  32
ATOM     32  C   UNL     1      -2.991  15.387  25.458  0.00  0.00    +0.000 C 
ATOM     33  C   UNL     1      -1.503  15.531  25.808  0.00  0.00    +0.000 C 
ENDBRANCH  29  32
ENDBRANCH  28  29
ENDBRANCH  24  28
ENDBRANCH   1  26
TORSDOF 5
ENDMDL
MODEL 3
REMARK VINA RESULT:      -8.3      0.832      1.326
REMARK  Name = 
REMARK  7 active torsions:
REMARK  status: ('A' for Active; 'I' for Inactive)
REMARK    1  A    between atoms: C_1  and  C_2
REMARK    2  A    between atoms: C_2  and  N_3
REMARK    3  A    between atoms: N_3  and  C_4
REMARK    4  A    between atoms: N_3  and  C_6
REMARK    5  A    between atoms: C_4  and  C_5
REMARK    6  A    between atoms: C_6  and  C_7
REMARK    7  A    between atoms: N_9  and  C_10
REMARK                            x       y       z     vdW  Elec       q    Type
REMARK                         _______ _______ _______ _____ _____    ______ ____
ROOT
ATOM      1  C   UNL     1      -1.211  12.490  22.426  0.00  0.00    +0.000 A 
ATOM      2  C   UNL     1      -1.446  11.270  23.076  0.00  0.00    +0.000 A 
ATOM      3  C   UNL     1      -0.621  10.166  22.871  0.00  0.00    +0.000 A 
ATOM      4  C   UNL     1       0.327  10.180  21.864  0.00  0.00    +0.000 A 
ATOM      5  N   UNL     1       0.974   8.975  21.598  0.00  0.00    +0.000 NA
ATOM      6  C   UNL     1       1.396   8.810  20.390  0.00  0.00    +0.000 A 
ATOM      7  C   UNL     1       1.872   7.516  20.004  0.00  0.00    +0.000 A 
ATOM      8  N   UNL     1       2.033   6.426  20.818  0.00  0.00    +0.000 N 
ATOM      9  C   UNL     1       2.438   5.345  20.066  0.00  0.00    +0.000 A 
ATOM     10  C   UNL     1       2.740   4.047  20.494  0.00  0.00    +0.000 A 
ATOM     11  C   UNL     1       3.130   3.120  19.529  0.00  0.00    +0.000 A 
ATOM     12  C   UNL     1       3.198   3.483  18.186  0.00  0.00    +0.000 A 
ATOM     13  C   UNL     1       2.898   4.793  17.769  0.00  0.00    +0.000 A 
ATOM     14  C   UNL     1       2.521   5.756  18.728  0.00  0.00    +0.000 A 
ATOM     15  C   UNL     1       2.174   7.140  18.720  0.00  0.00    +0.000 A 
ATOM     16  C   UNL     1       2.055   8.164  17.727  0.00  0.00    +0.000 A 
ATOM     17  C   UNL     1       1.719   9.429  18.078  0.00  0.00    +0.000 A 
ATOM     18  N   UNL     1       1.393   9.793  19.404  0.00  0.00    +0.000 N 
ATOM     19  C   UNL     1       1.094  11.128  19.750  0.00  0.00    +0.000 A 
ATOM     20  O   UNL     1       1.247  12.097  19.003  0.00  0.00    +0.000 OA
ATOM     21  C   UNL     1       0.471  11.331  21.093  0.00  0.00    +0.000 A 
ATOM     22  C   UNL     1      -0.186  12.534  21.463  0.00  0.00    +0.000 A 
ATOM     23  H   UNL     1       1.861   6.421  21.810  0.00  0.00    +0.000 HD
ENDROOT
BRANCH   1  26
ATOM     24  C   UNL     1      -3.160  13.970  22.045  0.00  0.00    +0.000 C 
ATOM     25  O   UNL     1      -3.506  13.444  20.985  0.00  0.00    +0.000 OA
ATOM     26  N   UNL     1      -2.010  13.634  22.746  0.00  0.00    +0.000 N 
ATOM     27  H   UNL     1      -1.636  14.334  23.379  0.00  0.00    +0.000 HD
BRANCH  24  28
ATOM     28  C   UNL     1      -4.100  15.048  22.651  0.00  0.00    +0.000 C 
BRANCH  28  29
ATOM     29  N   UNL     1      -4.917  14.621  23.813  0.00  0.00    +0.000 NA
BRANCH  29  31
ATOM     30  C   UNL     1      -7.425  14.570  23.867  0.00  0.00    +0.000 C 
ATOM     31  C   UNL     1      -6.154  15.415  23.931  0.00  0.00    +0.000 C 
ENDBRANCH  29  31
BRANCH  29  32
ATOM     32  C   UNL     1      -5.192  13.159  23.730  0.00  0.00    +0.000 C 
ATOM     33  C   UNL     1      -4.655  12.253  24.848  0.00  0.00    +0.000 C 
ENDBRANCH  29  32
ENDBRANCH  28  29
ENDBRANCH  24  28
ENDBRANCH   1  26
TORSDOF 5
ENDMDL
MODEL 4
REMARK VINA RESULT:      -8.1      1.194      1.622
REMARK  Name = 
REMARK  7 active torsions:
REMARK  status: ('A' for Active; 'I' for Inactive)
REMARK    1  A    between atoms: C_1  and  C_2
REMARK    2  A    between atoms: C_2  and  N_3
REMARK    3  A    between atoms: N_3  and  C_4
REMARK    4  A    between atoms: N_3  and  C_6
REMARK    5  A    between atoms: C_4  and  C_5
REMARK    6  A    between atoms: C_6  and  C_7
REMARK    7  A    between atoms: N_9  and  C_10
REMARK                            x       y       z     vdW  Elec       q    Type
REMARK                         _______ _______ _______ _____ _____    ______ ____
ROOT
ATOM      1  C   UNL     1      -1.054  11.695  22.562  0.00  0.00    +0.000 A 
ATOM      2  C   UNL     1      -1.140  10.447  23.195  0.00  0.00    +0.000 A 
ATOM      3  C   UNL     1      -0.246   9.420  22.901  0.00  0.00    +0.000 A 
ATOM      4  C   UNL     1       0.621   9.534  21.829  0.00  0.00    +0.000 A 
ATOM      5  N   UNL     1       1.343   8.392  21.485  0.00  0.00    +0.000 NA
ATOM      6  C   UNL     1       1.686   8.288  20.246  0.00  0.00    +0.000 A 
ATOM      7  C   UNL     1       2.237   7.046  19.792  0.00  0.00    +0.000 A 
ATOM      8  N   UNL     1       2.545   5.957  20.563  0.00  0.00    +0.000 N 
ATOM      9  C   UNL     1       2.981   4.929  19.756  0.00  0.00    +0.000 A 
ATOM     10  C   UNL     1       3.419   3.653  20.126  0.00  0.00    +0.000 A 
ATOM     11  C   UNL     1       3.810   2.782  19.112  0.00  0.00    +0.000 A 
ATOM     12  C   UNL     1       3.749   3.177  17.777  0.00  0.00    +0.000 A 
ATOM     13  C   UNL     1       3.312   4.465  17.417  0.00  0.00    +0.000 A 
ATOM     14  C   UNL     1       2.931   5.373  18.427  0.00  0.00    +0.000 A 
ATOM     15  C   UNL     1       2.472   6.723  18.480  0.00  0.00    +0.000 A 
ATOM     16  C   UNL     1       2.196   7.754  17.526  0.00  0.00    +0.000 A 
ATOM     17  C   UNL     1       1.785   8.979  17.933  0.00  0.00    +0.000 A 
ATOM     18  N   UNL     1       1.529   9.288  19.289  0.00  0.00    +0.000 N 
ATOM     19  C   UNL     1       1.149  10.585  19.690  0.00  0.00    +0.000 A 
ATOM     20  O   UNL     1       1.166  11.579  18.961  0.00  0.00    +0.000 OA
ATOM     21  C   UNL     1       0.613  10.708  21.080  0.00  0.00    +0.000 A 
ATOM     22  C   UNL     1      -0.111  11.844  21.529  0.00  0.00    +0.000 A 
ATOM     23  H   UNL     1       2.449   5.918  21.564  0.00  0.00    +0.000 HD
ENDROOT
BRANCH   1  26
ATOM     24  C   UNL     1      -3.129  13.031  22.345  0.00  0.00    +0.000 C 
ATOM     25  O   UNL     1      -3.494  12.517  21.285  0.00  0.00    +0.000 OA
ATOM     26  N   UNL     1      -1.919  12.761  22.969  0.00  0.00    +0.000 N 
ATOM     27  H   UNL     1      -1.564  13.466  23.607  0.00  0.00    +0.000 HD
BRANCH  24  28
ATOM     28  C   UNL     1      -4.112  14.011  23.042  0.00  0.00    +0.000 C 
BRANCH  28  29
ATOM     29  N   UNL     1      -3.650  15.415  23.168  0.00  0.00    +0.000 NA
BRANCH  29  31
ATOM     30  C   UNL     1      -4.261  16.416  20.951  0.00  0.00    +0.000 C 
ATOM     31  C   UNL     1      -3.151  15.943  21.886  0.00  0.00    +0.000 C 
ENDBRANCH  29  31
BRANCH  29  32
ATOM     32  C   UNL     1      -4.739  16.258  23.738  0.00  0.00    +0.000 C 
ATOM     33  C   UNL     1      -4.477  16.988  25.064  0.00  0.00    +0.000 C 
ENDBRANCH  29  32
ENDBRANCH  28  29
ENDBRANCH  24  28
ENDBRANCH   1  26
TORSDOF 5
ENDMDL
MODEL 5
REMARK VINA RESULT:      -8.1      1.264      1.374
REMARK  Name = 
REMARK  7 active torsions:
REMARK  status: ('A' for Active; 'I' for Inactive)
REMARK    1  A    between atoms: C_1  and  C_2
REMARK    2  A    between atoms: C_2  and  N_3
REMARK    3  A    between atoms: N_3  and  C_4
REMARK    4  A    between atoms: N_3  and  C_6
REMARK    5  A    between atoms: C_4  and  C_5
REMARK    6  A    between atoms: C_6  and  C_7
REMARK    7  A    between atoms: N_9  and  C_10
REMARK                            x       y       z     vdW  Elec       q    Type
REMARK                         _______ _______ _______ _____ _____    ______ ____
ROOT
ATOM      1  C   UNL     1      -0.912  12.232  22.134  0.00  0.00    +0.000 A 
ATOM      2  C   UNL     1      -1.195  11.053  22.837  0.00  0.00    +0.000 A 
ATOM      3  C   UNL     1      -0.407   9.913  22.690  0.00  0.00    +0.000 A 
ATOM      4  C   UNL     1       0.548   9.848  21.693  0.00  0.00    +0.000 A 
ATOM      5  N   UNL     1       1.156   8.610  21.489  0.00  0.00    +0.000 NA
ATOM      6  C   UNL     1       1.581   8.376  20.294  0.00  0.00    +0.000 A 
ATOM      7  C   UNL     1       2.016   7.049  19.972  0.00  0.00    +0.000 A 
ATOM      8  N   UNL     1       2.131   5.993  20.837  0.00  0.00    +0.000 N 
ATOM      9  C   UNL     1       2.505   4.865  20.140  0.00  0.00    +0.000 A 
ATOM     10  C   UNL     1       2.758   3.579  20.630  0.00  0.00    +0.000 A 
ATOM     11  C   UNL     1       3.123   2.596  19.712  0.00  0.00    +0.000 A 
ATOM     12  C   UNL     1       3.215   2.894  18.354  0.00  0.00    +0.000 A 
ATOM     13  C   UNL     1       2.964   4.192  17.874  0.00  0.00    +0.000 A 
ATOM     14  C   UNL     1       2.613   5.211  18.785  0.00  0.00    +0.000 A 
ATOM     15  C   UNL     1       2.315   6.604  18.710  0.00  0.00    +0.000 A 
ATOM     16  C   UNL     1       2.239   7.585  17.670  0.00  0.00    +0.000 A 
ATOM     17  C   UNL     1       1.945   8.876  17.959  0.00  0.00    +0.000 A 
ATOM     18  N   UNL     1       1.620   9.312  19.263  0.00  0.00    +0.000 N 
ATOM     19  C   UNL     1       1.366  10.670  19.545  0.00  0.00    +0.000 A 
ATOM     20  O   UNL     1       1.558  11.598  18.756  0.00  0.00    +0.000 OA
ATOM     21  C   UNL     1       0.739  10.956  20.872  0.00  0.00    +0.000 A 
ATOM     22  C   UNL     1       0.121  12.197  21.180  0.00  0.00    +0.000 A 
ATOM     23  H   UNL     1       1.952   6.040  21.826  0.00  0.00    +0.000 HD
ENDROOT
BRANCH   1  26
ATOM     24  C   UNL     1      -2.797  13.768  21.657  0.00  0.00    +0.000 C 
ATOM     25  O   UNL     1      -3.141  13.214  20.610  0.00  0.00    +0.000 OA
ATOM     26  N   UNL     1      -1.674  13.417  22.394  0.00  0.00    +0.000 N 
ATOM     27  H   UNL     1      -1.287  14.127  23.006  0.00  0.00    +0.000 HD
BRANCH  24  28
ATOM     28  C   UNL     1      -3.707  14.903  22.201  0.00  0.00    +0.000 C 
BRANCH  28  29
ATOM     29  N   UNL     1      -4.542  14.559  23.377  0.00  0.00    +0.000 NA
BRANCH  29  31
ATOM     30  C   UNL     1      -4.368  12.465  24.746  0.00  0.00    +0.000 C 
ATOM     31  C   UNL     1      -4.826  13.114  23.443  0.00  0.00    +0.000 C 
ENDBRANCH  29  31
BRANCH  29  32
ATOM     32  C   UNL     1      -3.897  15.064  24.622  0.00  0.00    +0.000 C 
ATOM     33  C   UNL     1      -4.076  16.545  24.986  0.00  0.00    +0.000 C 
ENDBRANCH  29  32
ENDBRANCH  28  29
ENDBRANCH  24  28
ENDBRANCH   1  26
TORSDOF 5
ENDMDL
MODEL 6
REMARK VINA RESULT:      -8.1      1.883      2.352
REMARK  Name = 
REMARK  7 active torsions:
REMARK  status: ('A' for Active; 'I' for Inactive)
REMARK    1  A    between atoms: C_1  and  C_2
REMARK    2  A    between atoms: C_2  and  N_3
REMARK    3  A    between atoms: N_3  and  C_4
REMARK    4  A    between atoms: N_3  and  C_6
REMARK    5  A    between atoms: C_4  and  C_5
REMARK    6  A    between atoms: C_6  and  C_7
REMARK    7  A    between atoms: N_9  and  C_10
REMARK                            x       y       z     vdW  Elec       q    Type
REMARK                         _______ _______ _______ _____ _____    ______ ____
ROOT
ATOM      1  C   UNL     1      -1.189  12.114  22.427  0.00  0.00    +0.000 A 
ATOM      2  C   UNL     1      -1.327  10.892  23.100  0.00  0.00    +0.000 A 
ATOM      3  C   UNL     1      -0.452   9.833  22.869  0.00  0.00    +0.000 A 
ATOM      4  C   UNL     1       0.448   9.886  21.820  0.00  0.00    +0.000 A 
ATOM      5  N   UNL     1       1.150   8.715  21.538  0.00  0.00    +0.000 NA
ATOM      6  C   UNL     1       1.525   8.559  20.314  0.00  0.00    +0.000 A 
ATOM      7  C   UNL     1       2.056   7.287  19.920  0.00  0.00    +0.000 A 
ATOM      8  N   UNL     1       2.313   6.219  20.738  0.00  0.00    +0.000 N 
ATOM      9  C   UNL     1       2.745   5.152  19.980  0.00  0.00    +0.000 A 
ATOM     10  C   UNL     1       3.137   3.879  20.408  0.00  0.00    +0.000 A 
ATOM     11  C   UNL     1       3.535   2.963  19.436  0.00  0.00    +0.000 A 
ATOM     12  C   UNL     1       3.522   3.311  18.088  0.00  0.00    +0.000 A 
ATOM     13  C   UNL     1       3.131   4.596  17.670  0.00  0.00    +0.000 A 
ATOM     14  C   UNL     1       2.745   5.549  18.636  0.00  0.00    +0.000 A 
ATOM     15  C   UNL     1       2.321   6.912  18.629  0.00  0.00    +0.000 A 
ATOM     16  C   UNL     1       2.101   7.915  17.631  0.00  0.00    +0.000 A 
ATOM     17  C   UNL     1       1.710   9.164  17.983  0.00  0.00    +0.000 A 
ATOM     18  N   UNL     1       1.423   9.527  19.318  0.00  0.00    +0.000 N 
ATOM     19  C   UNL     1       1.066  10.847  19.663  0.00  0.00    +0.000 A 
ATOM     20  O   UNL     1       1.131  11.813  18.901  0.00  0.00    +0.000 OA
ATOM     21  C   UNL     1       0.493  11.032  21.032  0.00  0.00    +0.000 A 
ATOM     22  C   UNL     1      -0.213  12.203  21.418  0.00  0.00    +0.000 A 
ATOM     23  H   UNL     1       2.187   6.218  21.737  0.00  0.00    +0.000 HD
ENDROOT
BRANCH   1  26
ATOM     24  C   UNL     1      -1.580  14.330  23.463  0.00  0.00    +0.000 C 
ATOM     25  O   UNL     1      -0.475  14.407  24.005  0.00  0.00    +0.000 OA
ATOM     26  N   UNL     1      -2.036  13.216  22.771  0.00  0.00    +0.000 N 
ATOM     27  H   UNL     1      -3.041  13.112  22.680  0.00  0.00    +0.000 HD
BRANCH  24  28
ATOM     28  C   UNL     1      -2.498  15.581  23.527  0.00  0.00    +0.000 C 
BRANCH  28  29
ATOM     29  N   UNL     1      -2.953  15.986  24.879  0.00  0.00    +0.000 NA
BRANCH  29  31
ATOM     30  C   UNL     1      -1.150  16.547  26.531  0.00  0.00    +0.000 C 
ATOM     31  C   UNL     1      -2.102  17.047  25.447  0.00  0.00    +0.000 C 
ENDBRANCH  29  31
BRANCH  29  32
ATOM     32  C   UNL     1      -4.390  16.380  24.835  0.00  0.00    +0.000 C 
ATOM     33  C   UNL     1      -4.779  17.772  25.352  0.00  0.00    +0.000 C 
ENDBRANCH  29  32
ENDBRANCH  28  29
ENDBRANCH  24  28
ENDBRANCH   1  26
TORSDOF 5
ENDMDL
MODEL 7
REMARK VINA RESULT:      -8.1      1.023      1.601
REMARK  Name = 
REMARK  7 active torsions:
REMARK  status: ('A' for Active; 'I' for Inactive)
REMARK    1  A    between atoms: C_1  and  C_2
REMARK    2  A    between atoms: C_2  and  N_3
REMARK    3  A    between atoms: N_3  and  C_4
REMARK    4  A    between atoms: N_3  and  C_6
REMARK    5  A    between atoms: C_4  and  C_5
REMARK    6  A    between atoms: C_6  and  C_7
REMARK    7  A    between atoms: N_9  and  C_10
REMARK                            x       y       z     vdW  Elec       q    Type
REMARK                         _______ _______ _______ _____ _____    ______ ____
ROOT
ATOM      1  C   UNL     1      -0.905  12.045  22.281  0.00  0.00    +0.000 A 
ATOM      2  C   UNL     1      -1.149  10.855  22.978  0.00  0.00    +0.000 A 
ATOM      3  C   UNL     1      -0.348   9.729  22.799  0.00  0.00    +0.000 A 
ATOM      4  C   UNL     1       0.582   9.690  21.777  0.00  0.00    +0.000 A 
ATOM      5  N   UNL     1       1.204   8.464  21.544  0.00  0.00    +0.000 NA
ATOM      6  C   UNL     1       1.602   8.249  20.336  0.00  0.00    +0.000 A 
ATOM      7  C   UNL     1       2.049   6.933  19.988  0.00  0.00    +0.000 A 
ATOM      8  N   UNL     1       2.205   5.871  20.838  0.00  0.00    +0.000 N 
ATOM      9  C   UNL     1       2.578   4.756  20.120  0.00  0.00    +0.000 A 
ATOM     10  C   UNL     1       2.865   3.470  20.589  0.00  0.00    +0.000 A 
ATOM     11  C   UNL     1       3.221   2.502  19.652  0.00  0.00    +0.000 A 
ATOM     12  C   UNL     1       3.272   2.815  18.295  0.00  0.00    +0.000 A 
ATOM     13  C   UNL     1       2.987   4.114  17.836  0.00  0.00    +0.000 A 
ATOM     14  C   UNL     1       2.645   5.117  18.766  0.00  0.00    +0.000 A 
ATOM     15  C   UNL     1       2.322   6.506  18.714  0.00  0.00    +0.000 A 
ATOM     16  C   UNL     1       2.203   7.496  17.687  0.00  0.00    +0.000 A 
ATOM     17  C   UNL     1       1.895   8.779  17.997  0.00  0.00    +0.000 A 
ATOM     18  N   UNL     1       1.598   9.196  19.314  0.00  0.00    +0.000 N 
ATOM     19  C   UNL     1       1.329  10.547  19.616  0.00  0.00    +0.000 A 
ATOM     20  O   UNL     1       1.485  11.486  18.833  0.00  0.00    +0.000 OA
ATOM     21  C   UNL     1       0.733  10.809  20.962  0.00  0.00    +0.000 A 
ATOM     22  C   UNL     1       0.104  12.037  21.299  0.00  0.00    +0.000 A 
ATOM     23  H   UNL     1       2.051   5.905  21.832  0.00  0.00    +0.000 HD
ENDROOT
BRANCH   1  26
ATOM     24  C   UNL     1      -2.776  13.600  21.816  0.00  0.00    +0.000 C 
ATOM     25  O   UNL     1      -3.082  13.099  20.731  0.00  0.00    +0.000 OA
ATOM     26  N   UNL     1      -1.678  13.214  22.573  0.00  0.00    +0.000 N 
ATOM     27  H   UNL     1      -1.314  13.893  23.233  0.00  0.00    +0.000 HD
BRANCH  24  28
ATOM     28  C   UNL     1      -3.707  14.706  22.384  0.00  0.00    +0.000 C 
BRANCH  28  29
ATOM     29  N   UNL     1      -4.361  14.403  23.681  0.00  0.00    +0.000 NA
BRANCH  29  31
ATOM     30  C   UNL     1      -2.759  15.053  25.498  0.00  0.00    +0.000 C 
ATOM     31  C   UNL     1      -4.020  15.401  24.711  0.00  0.00    +0.000 C 
ENDBRANCH  29  31
BRANCH  29  32
ATOM     32  C   UNL     1      -5.833  14.272  23.488  0.00  0.00    +0.000 C 
ATOM     33  C   UNL     1      -6.534  13.030  24.058  0.00  0.00    +0.000 C 
ENDBRANCH  29  32
ENDBRANCH  28  29
ENDBRANCH  24  28
ENDBRANCH   1  26
TORSDOF 5
ENDMDL
MODEL 8
REMARK VINA RESULT:      -8.1      1.296      1.539
REMARK  Name = 
REMARK  7 active torsions:
REMARK  status: ('A' for Active; 'I' for Inactive)
REMARK    1  A    between atoms: C_1  and  C_2
REMARK    2  A    between atoms: C_2  and  N_3
REMARK    3  A    between atoms: N_3  and  C_4
REMARK    4  A    between atoms: N_3  and  C_6
REMARK    5  A    between atoms: C_4  and  C_5
REMARK    6  A    between atoms: C_6  and  C_7
REMARK    7  A    between atoms: N_9  and  C_10
REMARK                            x       y       z     vdW  Elec       q    Type
REMARK                         _______ _______ _______ _____ _____    ______ ____
ROOT
ATOM      1  C   UNL     1      -1.202  11.710  22.565  0.00  0.00    +0.000 A 
ATOM      2  C   UNL     1      -1.234  10.463  23.202  0.00  0.00    +0.000 A 
ATOM      3  C   UNL     1      -0.305   9.468  22.901  0.00  0.00    +0.000 A 
ATOM      4  C   UNL     1       0.544   9.611  21.820  0.00  0.00    +0.000 A 
ATOM      5  N   UNL     1       1.305   8.496  21.471  0.00  0.00    +0.000 NA
ATOM      6  C   UNL     1       1.637   8.401  20.228  0.00  0.00    +0.000 A 
ATOM      7  C   UNL     1       2.229   7.178  19.771  0.00  0.00    +0.000 A 
ATOM      8  N   UNL     1       2.586   6.104  20.542  0.00  0.00    +0.000 N 
ATOM      9  C   UNL     1       3.051   5.090  19.733  0.00  0.00    +0.000 A 
ATOM     10  C   UNL     1       3.540   3.833  20.102  0.00  0.00    +0.000 A 
ATOM     11  C   UNL     1       3.952   2.973  19.086  0.00  0.00    +0.000 A 
ATOM     12  C   UNL     1       3.861   3.361  17.751  0.00  0.00    +0.000 A 
ATOM     13  C   UNL     1       3.373   4.631  17.392  0.00  0.00    +0.000 A 
ATOM     14  C   UNL     1       2.969   5.528  18.403  0.00  0.00    +0.000 A 
ATOM     15  C   UNL     1       2.462   6.860  18.458  0.00  0.00    +0.000 A 
ATOM     16  C   UNL     1       2.137   7.877  17.504  0.00  0.00    +0.000 A 
ATOM     17  C   UNL     1       1.685   9.087  17.913  0.00  0.00    +0.000 A 
ATOM     18  N   UNL     1       1.433   9.390  19.270  0.00  0.00    +0.000 N 
ATOM     19  C   UNL     1       1.009  10.674  19.672  0.00  0.00    +0.000 A 
ATOM     20  O   UNL     1       0.981  11.665  18.940  0.00  0.00    +0.000 OA
ATOM     21  C   UNL     1       0.484  10.781  21.068  0.00  0.00    +0.000 A 
ATOM     22  C   UNL     1      -0.277  11.891  21.521  0.00  0.00    +0.000 A 
ATOM     23  H   UNL     1       2.503   6.065  21.545  0.00  0.00    +0.000 HD
ENDROOT
BRANCH   1  26
ATOM     24  C   UNL     1      -1.670  13.927  23.568  0.00  0.00    +0.000 C 
ATOM     25  O   UNL     1      -0.517  14.128  23.958  0.00  0.00    +0.000 OA
ATOM     26  N   UNL     1      -2.101  12.745  22.979  0.00  0.00    +0.000 N 
ATOM     27  H   UNL     1      -3.094  12.546  23.024  0.00  0.00    +0.000 HD
BRANCH  24  28
ATOM     28  C   UNL     1      -2.689  15.091  23.709  0.00  0.00    +0.000 C 
BRANCH  28  29
ATOM     29  N   UNL     1      -3.968  14.928  22.976  0.00  0.00    +0.000 NA
BRANCH  29  31
ATOM     30  C   UNL     1      -6.282  15.571  23.700  0.00  0.00    +0.000 C 
ATOM     31  C   UNL     1      -5.088  14.639  23.890  0.00  0.00    +0.000 C 
ENDBRANCH  29  31
BRANCH  29  32
ATOM     32  C   UNL     1      -4.226  16.129  22.132  0.00  0.00    +0.000 C 
ATOM     33  C   UNL     1      -3.104  17.167  21.982  0.00  0.00    +0.000 C 
ENDBRANCH  29  32
ENDBRANCH  28  29
ENDBRANCH  24  28
ENDBRANCH   1  26
TORSDOF 5
ENDMDL
MODEL 9
REMARK VINA RESULT:      -8.0      1.545      1.965
REMARK  Name = 
REMARK  7 active torsions:
REMARK  status: ('A' for Active; 'I' for Inactive)
REMARK    1  A    between atoms: C_1  and  C_2
REMARK    2  A    between atoms: C_2  and  N_3
REMARK    3  A    between atoms: N_3  and  C_4
REMARK    4  A    between atoms: N_3  and  C_6
REMARK    5  A    between atoms: C_4  and  C_5
REMARK    6  A    between atoms: C_6  and  C_7
REMARK    7  A    between atoms: N_9  and  C_10
REMARK                            x       y       z     vdW  Elec       q    Type
REMARK                         _______ _______ _______ _____ _____    ______ ____
ROOT
ATOM      1  C   UNL     1      -1.323  12.317  22.371  0.00  0.00    +0.000 A 
ATOM      2  C   UNL     1      -1.514  11.094  23.027  0.00  0.00    +0.000 A 
ATOM      3  C   UNL     1      -0.645  10.022  22.834  0.00  0.00    +0.000 A 
ATOM      4  C   UNL     1       0.309  10.067  21.835  0.00  0.00    +0.000 A 
ATOM      5  N   UNL     1       1.006   8.887  21.581  0.00  0.00    +0.000 NA
ATOM      6  C   UNL     1       1.443   8.732  20.378  0.00  0.00    +0.000 A 
ATOM      7  C   UNL     1       1.973   7.455  20.003  0.00  0.00    +0.000 A 
ATOM      8  N   UNL     1       2.170   6.378  20.825  0.00  0.00    +0.000 N 
ATOM      9  C   UNL     1       2.624   5.309  20.083  0.00  0.00    +0.000 A 
ATOM     10  C   UNL     1       2.974   4.027  20.522  0.00  0.00    +0.000 A 
ATOM     11  C   UNL     1       3.407   3.110  19.566  0.00  0.00    +0.000 A 
ATOM     12  C   UNL     1       3.471   3.468  18.221  0.00  0.00    +0.000 A 
ATOM     13  C   UNL     1       3.123   4.762  17.793  0.00  0.00    +0.000 A 
ATOM     14  C   UNL     1       2.701   5.715  18.743  0.00  0.00    +0.000 A 
ATOM     15  C   UNL     1       2.300   7.084  18.724  0.00  0.00    +0.000 A 
ATOM     16  C   UNL     1       2.148   8.097  17.724  0.00  0.00    +0.000 A 
ATOM     17  C   UNL     1       1.760   9.350  18.064  0.00  0.00    +0.000 A 
ATOM     18  N   UNL     1       1.409   9.708  19.385  0.00  0.00    +0.000 N 
ATOM     19  C   UNL     1       1.055  11.032  19.720  0.00  0.00    +0.000 A 
ATOM     20  O   UNL     1       1.175  12.002  18.969  0.00  0.00    +0.000 OA
ATOM     21  C   UNL     1       0.414  11.218  21.058  0.00  0.00    +0.000 A 
ATOM     22  C   UNL     1      -0.293  12.397  21.415  0.00  0.00    +0.000 A 
ATOM     23  H   UNL     1       1.992   6.372  21.816  0.00  0.00    +0.000 HD
ENDROOT
BRANCH   1  26
ATOM     24  C   UNL     1      -1.762  14.489  23.479  0.00  0.00    +0.000 C 
ATOM     25  O   UNL     1      -0.725  14.495  24.147  0.00  0.00    +0.000 OA
ATOM     26  N   UNL     1      -2.169  13.431  22.678  0.00  0.00    +0.000 N 
ATOM     27  H   UNL     1      -3.160  13.369  22.467  0.00  0.00    +0.000 HD
BRANCH  24  28
ATOM     28  C   UNL     1      -2.642  15.768  23.509  0.00  0.00    +0.000 C 
BRANCH  28  29
ATOM     29  N   UNL     1      -3.657  15.835  24.589  0.00  0.00    +0.000 NA
BRANCH  29  31
ATOM     30  C   UNL     1      -4.810  17.908  25.406  0.00  0.00    +0.000 C 
ATOM     31  C   UNL     1      -3.532  17.073  25.380  0.00  0.00    +0.000 C 
ENDBRANCH  29  31
BRANCH  29  32
ATOM     32  C   UNL     1      -5.021  15.670  24.013  0.00  0.00    +0.000 C 
ATOM     33  C   UNL     1      -5.502  14.252  23.675  0.00  0.00    +0.000 C 
ENDBRANCH  29  32
ENDBRANCH  28  29
ENDBRANCH  24  28
ENDBRANCH   1  26
TORSDOF 5
ENDMDL
