MODEL 1
REMARK VINA RESULT:      -8.6      0.000      0.000
REMARK  Name = 
REMARK  10 active torsions:
REMARK  status: ('A' for Active; 'I' for Inactive)
REMARK    1  A    between atoms: C_2  and  C_3
REMARK    2  A    between atoms: C_3  and  N_4
REMARK    3  A    between atoms: C_5  and  C_7
REMARK    4  A    between atoms: N_11  and  C_12
REMARK    5  A    between atoms: C_15  and  O_16
REMARK    6  A    between atoms: O_16  and  C_17
REMARK    7  A    between atoms: C_17  and  C_18
REMARK    8  A    between atoms: N_20  and  C_21
REMARK    9  A    between atoms: C_22  and  C_23
REMARK   10  A    between atoms: C_27  and  C_28
REMARK                            x       y       z     vdW  Elec       q    Type
REMARK                         _______ _______ _______ _____ _____    ______ ____
ROOT
ATOM      1  C   UNL     1       2.568   7.292  18.360  0.00  0.00    +0.000 A 
ATOM      2  C   UNL     1       2.267   8.484  17.683  0.00  0.00    +0.000 A 
ATOM      3  C   UNL     1       1.581   9.532  18.314  0.00  0.00    +0.000 A 
ATOM      4  C   UNL     1       1.172   9.417  19.637  0.00  0.00    +0.000 A 
ATOM      5  C   UNL     1       1.526   8.281  20.354  0.00  0.00    +0.000 A 
ATOM      6  C   UNL     1       2.214   7.232  19.718  0.00  0.00    +0.000 A 
ENDROOT
BRANCH   1  11
ATOM      7  C   UNL     1       4.100   4.001  17.716  0.00  0.00    +0.000 C 
ATOM      8  C   UNL     1       5.162   4.895  17.091  0.00  0.00    +0.000 C 
ATOM      9  C   UNL     1       4.653   6.309  17.297  0.00  0.00    +0.000 C 
ATOM     10  O   UNL     1       5.372   7.288  17.191  0.00  0.00    +0.000 OA
ATOM     11  N   UNL     1       3.312   6.231  17.734  0.00  0.00    +0.000 N 
ATOM     12  C   UNL     1       2.845   4.858  17.693  0.00  0.00    +0.000 C 
BRANCH   7  14
ATOM     13  N   UNL     1       3.585   2.561  19.779  0.00  0.00    +0.000 N 
ATOM     14  C   UNL     1       4.450   3.375  19.084  0.00  0.00    +0.000 C 
ATOM     15  O   UNL     1       5.566   3.597  19.594  0.00  0.00    +0.000 OA
ATOM     16  H   UNL     1       3.943   2.171  20.644  0.00  0.00    +0.000 HD
BRANCH  13  17
ATOM     17  C   UNL     1       2.324   2.134  19.276  0.00  0.00    +0.000 C 
BRANCH  17  19
ATOM     18  C   UNL     1       0.999   3.764  20.547  0.00  0.00    +0.000 C 
ATOM     19  C   UNL     1       1.089   2.560  19.965  0.00  0.00    +0.000 C 
ENDBRANCH  17  19
ENDBRANCH  13  17
ENDBRANCH   7  14
ENDBRANCH   1  11
BRANCH   4  20
ATOM     20  O   UNL     1       0.494  10.489  20.139  0.00  0.00    +0.000 OA
BRANCH  20  21
ATOM     21  C   UNL     1       0.680  11.716  19.431  0.00  0.00    +0.000 C 
BRANCH  21  22
ATOM     22  C   UNL     1      -0.633  12.141  18.773  0.00  0.00    +0.000 C 
ATOM     23  O   UNL     1      -0.687  13.120  18.034  0.00  0.00    +0.000 OA
ATOM     24  N   UNL     1      -1.690  11.290  19.077  0.00  0.00    +0.000 N 
ATOM     25  H   UNL     1      -1.595  10.855  19.989  0.00  0.00    +0.000 HD
BRANCH  24  26
ATOM     26  C   UNL     1      -2.995  11.507  18.584  0.00  0.00    +0.000 A 
ATOM     27  C   UNL     1      -3.939  12.250  19.324  0.00  0.00    +0.000 A 
ATOM     28  C   UNL     1      -3.623  12.985  20.600  0.00  0.00    +0.000 C 
ATOM     29  C   UNL     1      -5.241  12.392  18.818  0.00  0.00    +0.000 A 
ATOM     30  C   UNL     1      -5.590  11.858  17.582  0.00  0.00    +0.000 A 
ATOM     31  C   UNL     1      -4.638  11.181  16.828  0.00  0.00    +0.000 A 
ATOM     32  C   UNL     1      -3.335  10.992  17.314  0.00  0.00    +0.000 A 
ATOM     33  C   UNL     1      -2.366  10.206  16.473  0.00  0.00    +0.000 C 
ENDBRANCH  24  26
ENDBRANCH  21  22
ENDBRANCH  20  21
ENDBRANCH   4  20
TORSDOF 8
ENDMDL
MODEL 2
REMARK VINA RESULT:      -8.6      1.684      3.456
REMARK  Name = 
REMARK  10 active torsions:
REMARK  status: ('A' for Active; 'I' for Inactive)
REMARK    1  A    between atoms: C_2  and  C_3
REMARK    2  A    between atoms: C_3  and  N_4
REMARK    3  A    between atoms: C_5  and  C_7
REMARK    4  A    between atoms: N_11  and  C_12
REMARK    5  A    between atoms: C_15  and  O_16
REMARK    6  A    between atoms: O_16  and  C_17
REMARK    7  A    between atoms: C_17  and  C_18
REMARK    8  A    between atoms: N_20  and  C_21
REMARK    9  A    between atoms: C_22  and  C_23
REMARK   10  A    between atoms: C_27  and  C_28
REMARK                            x       y       z     vdW  Elec       q    Type
REMARK                         _______ _______ _______ _____ _____    ______ ____
ROOT
ATOM      1  C   UNL     1       2.393   6.765  19.643  0.00  0.00    +0.000 A 
ATOM      2  C   UNL     1       1.724   7.160  20.812  0.00  0.00    +0.000 A 
ATOM      3  C   UNL     1       1.083   8.404  20.905  0.00  0.00    +0.000 A 
ATOM      4  C   UNL     1       1.098   9.291  19.835  0.00  0.00    +0.000 A 
ATOM      5  C   UNL     1       1.685   8.895  18.640  0.00  0.00    +0.000 A 
ATOM      6  C   UNL     1       2.327   7.646  18.550  0.00  0.00    +0.000 A 
ENDROOT
BRANCH   1  11
ATOM      7  C   UNL     1       4.708   4.072  18.651  0.00  0.00    +0.000 C 
ATOM      8  C   UNL     1       3.421   3.267  18.753  0.00  0.00    +0.000 C 
ATOM      9  C   UNL     1       2.360   4.275  19.154  0.00  0.00    +0.000 C 
ATOM     10  O   UNL     1       1.167   4.051  19.043  0.00  0.00    +0.000 OA
ATOM     11  N   UNL     1       3.012   5.472  19.525  0.00  0.00    +0.000 N 
ATOM     12  C   UNL     1       4.451   5.282  19.535  0.00  0.00    +0.000 C 
BRANCH   7  14
ATOM     13  N   UNL     1       6.485   4.823  16.955  0.00  0.00    +0.000 N 
ATOM     14  C   UNL     1       5.207   4.390  17.224  0.00  0.00    +0.000 C 
ATOM     15  O   UNL     1       4.434   4.244  16.256  0.00  0.00    +0.000 OA
ATOM     16  H   UNL     1       6.711   4.955  15.975  0.00  0.00    +0.000 HD
BRANCH  13  17
ATOM     17  C   UNL     1       7.506   4.935  17.940  0.00  0.00    +0.000 C 
BRANCH  17  19
ATOM     18  C   UNL     1       7.620   7.380  17.753  0.00  0.00    +0.000 C 
ATOM     19  C   UNL     1       7.867   6.268  18.461  0.00  0.00    +0.000 C 
ENDBRANCH  17  19
ENDBRANCH  13  17
ENDBRANCH   7  14
ENDBRANCH   1  11
BRANCH   4  20
ATOM     20  O   UNL     1       0.463  10.480  20.046  0.00  0.00    +0.000 OA
BRANCH  20  21
ATOM     21  C   UNL     1       0.699  11.483  19.056  0.00  0.00    +0.000 C 
BRANCH  21  22
ATOM     22  C   UNL     1      -0.633  12.018  18.530  0.00  0.00    +0.000 C 
ATOM     23  O   UNL     1      -0.697  13.084  17.924  0.00  0.00    +0.000 OA
ATOM     24  N   UNL     1      -1.698  11.159  18.782  0.00  0.00    +0.000 N 
ATOM     25  H   UNL     1      -1.569  10.610  19.626  0.00  0.00    +0.000 HD
BRANCH  24  26
ATOM     26  C   UNL     1      -3.019  11.467  18.393  0.00  0.00    +0.000 A 
ATOM     27  C   UNL     1      -3.516  11.081  17.130  0.00  0.00    +0.000 A 
ATOM     28  C   UNL     1      -2.768  10.206  16.160  0.00  0.00    +0.000 C 
ATOM     29  C   UNL     1      -4.818  11.459  16.766  0.00  0.00    +0.000 A 
ATOM     30  C   UNL     1      -5.634  12.158  17.651  0.00  0.00    +0.000 A 
ATOM     31  C   UNL     1      -5.161  12.481  18.918  0.00  0.00    +0.000 A 
ATOM     32  C   UNL     1      -3.855  12.148  19.306  0.00  0.00    +0.000 A 
ATOM     33  C   UNL     1      -3.386  12.570  20.672  0.00  0.00    +0.000 C 
ENDBRANCH  24  26
ENDBRANCH  21  22
ENDBRANCH  20  21
ENDBRANCH   4  20
TORSDOF 8
ENDMDL
MODEL 3
REMARK VINA RESULT:      -8.5      1.824      3.439
REMARK  Name = 
REMARK  10 active torsions:
REMARK  status: ('A' for Active; 'I' for Inactive)
REMARK    1  A    between atoms: C_2  and  C_3
REMARK    2  A    between atoms: C_3  and  N_4
REMARK    3  A    between atoms: C_5  and  C_7
REMARK    4  A    between atoms: N_11  and  C_12
REMARK    5  A    between atoms: C_15  and  O_16
REMARK    6  A    between atoms: O_16  and  C_17
REMARK    7  A    between atoms: C_17  and  C_18
REMARK    8  A    between atoms: N_20  and  C_21
REMARK    9  A    between atoms: C_22  and  C_23
REMARK   10  A    between atoms: C_27  and  C_28
REMARK                            x       y       z     vdW  Elec       q    Type
REMARK                         _______ _______ _______ _____ _____    ______ ____
ROOT
ATOM      1  C   UNL     1       2.603   7.189  18.811  0.00  0.00    +0.000 A 
ATOM      2  C   UNL     1       2.083   7.193  20.114  0.00  0.00    +0.000 A 
ATOM      3  C   UNL     1       1.305   8.259  20.590  0.00  0.00    +0.000 A 
ATOM      4  C   UNL     1       1.031   9.354  19.778  0.00  0.00    +0.000 A 
ATOM      5  C   UNL     1       1.466   9.339  18.459  0.00  0.00    +0.000 A 
ATOM      6  C   UNL     1       2.245   8.268  17.985  0.00  0.00    +0.000 A 
ENDROOT
BRANCH   1  11
ATOM      7  C   UNL     1       5.110   5.220  16.958  0.00  0.00    +0.000 C 
ATOM      8  C   UNL     1       3.953   4.232  16.933  0.00  0.00    +0.000 C 
ATOM      9  C   UNL     1       2.826   4.932  17.670  0.00  0.00    +0.000 C 
ATOM     10  O   UNL     1       1.665   4.569  17.592  0.00  0.00    +0.000 OA
ATOM     11  N   UNL     1       3.361   6.077  18.301  0.00  0.00    +0.000 N 
ATOM     12  C   UNL     1       4.804   6.109  18.153  0.00  0.00    +0.000 C 
BRANCH   7  14
ATOM     13  N   UNL     1       6.053   5.382  14.575  0.00  0.00    +0.000 N 
ATOM     14  C   UNL     1       5.403   5.966  15.636  0.00  0.00    +0.000 C 
ATOM     15  O   UNL     1       5.032   7.149  15.504  0.00  0.00    +0.000 OA
ATOM     16  H   UNL     1       6.147   5.955  13.743  0.00  0.00    +0.000 HD
BRANCH  13  17
ATOM     17  C   UNL     1       6.440   4.013  14.539  0.00  0.00    +0.000 C 
BRANCH  17  19
ATOM     18  C   UNL     1       6.473   3.671  12.109  0.00  0.00    +0.000 C 
ATOM     19  C   UNL     1       6.162   3.213  13.330  0.00  0.00    +0.000 C 
ENDBRANCH  17  19
ENDBRANCH  13  17
ENDBRANCH   7  14
ENDBRANCH   1  11
BRANCH   4  20
ATOM     20  O   UNL     1       0.285  10.341  20.353  0.00  0.00    +0.000 OA
BRANCH  20  21
ATOM     21  C   UNL     1       0.498  11.653  19.825  0.00  0.00    +0.000 C 
BRANCH  21  22
ATOM     22  C   UNL     1      -0.735  12.102  19.041  0.00  0.00    +0.000 C 
ATOM     23  O   UNL     1      -0.704  13.097  18.321  0.00  0.00    +0.000 OA
ATOM     24  N   UNL     1      -1.824  11.254  19.210  0.00  0.00    +0.000 N 
ATOM     25  H   UNL     1      -1.830  10.799  20.118  0.00  0.00    +0.000 HD
BRANCH  24  26
ATOM     26  C   UNL     1      -3.067  11.493  18.586  0.00  0.00    +0.000 A 
ATOM     27  C   UNL     1      -4.078  12.232  19.234  0.00  0.00    +0.000 A 
ATOM     28  C   UNL     1      -3.895  12.941  20.550  0.00  0.00    +0.000 C 
ATOM     29  C   UNL     1      -5.318  12.396  18.595  0.00  0.00    +0.000 A 
ATOM     30  C   UNL     1      -5.537  11.887  17.319  0.00  0.00    +0.000 A 
ATOM     31  C   UNL     1      -4.516  11.213  16.658  0.00  0.00    +0.000 A 
ATOM     32  C   UNL     1      -3.274  11.003  17.277  0.00  0.00    +0.000 A 
ATOM     33  C   UNL     1      -2.227  10.223  16.529  0.00  0.00    +0.000 C 
ENDBRANCH  24  26
ENDBRANCH  21  22
ENDBRANCH  20  21
ENDBRANCH   4  20
TORSDOF 8
ENDMDL
MODEL 4
REMARK VINA RESULT:      -8.4      0.483      1.653
REMARK  Name = 
REMARK  10 active torsions:
REMARK  status: ('A' for Active; 'I' for Inactive)
REMARK    1  A    between atoms: C_2  and  C_3
REMARK    2  A    between atoms: C_3  and  N_4
REMARK    3  A    between atoms: C_5  and  C_7
REMARK    4  A    between atoms: N_11  and  C_12
REMARK    5  A    between atoms: C_15  and  O_16
REMARK    6  A    between atoms: O_16  and  C_17
REMARK    7  A    between atoms: C_17  and  C_18
REMARK    8  A    between atoms: N_20  and  C_21
REMARK    9  A    between atoms: C_22  and  C_23
REMARK   10  A    between atoms: C_27  and  C_28
REMARK                            x       y       z     vdW  Elec       q    Type
REMARK                         _______ _______ _______ _____ _____    ______ ____
ROOT
ATOM      1  C   UNL     1       2.590   7.354  18.353  0.00  0.00    +0.000 A 
ATOM      2  C   UNL     1       2.199   8.537  17.708  0.00  0.00    +0.000 A 
ATOM      3  C   UNL     1       1.474   9.533  18.379  0.00  0.00    +0.000 A 
ATOM      4  C   UNL     1       1.113   9.371  19.712  0.00  0.00    +0.000 A 
ATOM      5  C   UNL     1       1.554   8.245  20.396  0.00  0.00    +0.000 A 
ATOM      6  C   UNL     1       2.282   7.249  19.720  0.00  0.00    +0.000 A 
ENDROOT
BRANCH   1  11
ATOM      7  C   UNL     1       4.335   4.188  17.625  0.00  0.00    +0.000 C 
ATOM      8  C   UNL     1       5.281   5.157  16.931  0.00  0.00    +0.000 C 
ATOM      9  C   UNL     1       4.675   6.530  17.164  0.00  0.00    +0.000 C 
ATOM     10  O   UNL     1       5.306   7.560  17.009  0.00  0.00    +0.000 OA
ATOM     11  N   UNL     1       3.375   6.350  17.685  0.00  0.00    +0.000 N 
ATOM     12  C   UNL     1       3.016   4.944  17.679  0.00  0.00    +0.000 C 
BRANCH   7  14
ATOM     13  N   UNL     1       4.184   2.561  19.606  0.00  0.00    +0.000 N 
ATOM     14  C   UNL     1       4.818   3.603  18.970  0.00  0.00    +0.000 C 
ATOM     15  O   UNL     1       5.834   4.077  19.517  0.00  0.00    +0.000 OA
ATOM     16  H   UNL     1       4.620   2.232  20.460  0.00  0.00    +0.000 HD
BRANCH  13  17
ATOM     17  C   UNL     1       3.080   1.852  19.054  0.00  0.00    +0.000 C 
BRANCH  17  19
ATOM     18  C   UNL     1       0.695   2.347  18.753  0.00  0.00    +0.000 C 
ATOM     19  C   UNL     1       1.723   2.105  19.578  0.00  0.00    +0.000 C 
ENDBRANCH  17  19
ENDBRANCH  13  17
ENDBRANCH   7  14
ENDBRANCH   1  11
BRANCH   4  20
ATOM     20  O   UNL     1       0.390  10.392  20.255  0.00  0.00    +0.000 OA
BRANCH  20  21
ATOM     21  C   UNL     1       0.593  11.672  19.652  0.00  0.00    +0.000 C 
BRANCH  21  22
ATOM     22  C   UNL     1      -0.657  12.084  18.875  0.00  0.00    +0.000 C 
ATOM     23  O   UNL     1      -0.637  13.031  18.092  0.00  0.00    +0.000 OA
ATOM     24  N   UNL     1      -1.749  11.261  19.129  0.00  0.00    +0.000 N 
ATOM     25  H   UNL     1      -1.733  10.865  20.063  0.00  0.00    +0.000 HD
BRANCH  24  26
ATOM     26  C   UNL     1      -3.006  11.473  18.525  0.00  0.00    +0.000 A 
ATOM     27  C   UNL     1      -3.293  10.965  17.240  0.00  0.00    +0.000 A 
ATOM     28  C   UNL     1      -2.377  10.052  16.469  0.00  0.00    +0.000 C 
ATOM     29  C   UNL     1      -4.539  11.250  16.658  0.00  0.00    +0.000 A 
ATOM     30  C   UNL     1      -5.502  11.977  17.350  0.00  0.00    +0.000 A 
ATOM     31  C   UNL     1      -5.238  12.423  18.640  0.00  0.00    +0.000 A 
ATOM     32  C   UNL     1      -3.993  12.184  19.243  0.00  0.00    +0.000 A 
ATOM     33  C   UNL     1      -3.750  12.736  20.622  0.00  0.00    +0.000 C 
ENDBRANCH  24  26
ENDBRANCH  21  22
ENDBRANCH  20  21
ENDBRANCH   4  20
TORSDOF 8
ENDMDL
MODEL 5
REMARK VINA RESULT:      -8.4      0.477      1.008
REMARK  Name = 
REMARK  10 active torsions:
REMARK  status: ('A' for Active; 'I' for Inactive)
REMARK    1  A    between atoms: C_2  and  C_3
REMARK    2  A    between atoms: C_3  and  N_4
REMARK    3  A    between atoms: C_5  and  C_7
REMARK    4  A    between atoms: N_11  and  C_12
REMARK    5  A    between atoms: C_15  and  O_16
REMARK    6  A    between atoms: O_16  and  C_17
REMARK    7  A    between atoms: C_17  and  C_18
REMARK    8  A    between atoms: N_20  and  C_21
REMARK    9  A    between atoms: C_22  and  C_23
REMARK   10  A    between atoms: C_27  and  C_28
REMARK                            x       y       z     vdW  Elec       q    Type
REMARK                         _______ _______ _______ _____ _____    ______ ____
ROOT
ATOM      1  C   UNL     1       2.710   7.399  18.323  0.00  0.00    +0.000 A 
ATOM      2  C   UNL     1       2.296   7.297  19.660  0.00  0.00    +0.000 A 
ATOM      3  C   UNL     1       1.523   8.298  20.266  0.00  0.00    +0.000 A 
ATOM      4  C   UNL     1       1.147   9.432  19.555  0.00  0.00    +0.000 A 
ATOM      5  C   UNL     1       1.476   9.521  18.209  0.00  0.00    +0.000 A 
ATOM      6  C   UNL     1       2.251   8.515  17.604  0.00  0.00    +0.000 A 
ENDROOT
BRANCH   1  11
ATOM      7  C   UNL     1       4.352   4.161  17.677  0.00  0.00    +0.000 C 
ATOM      8  C   UNL     1       5.330   5.082  16.962  0.00  0.00    +0.000 C 
ATOM      9  C   UNL     1       4.770   6.478  17.160  0.00  0.00    +0.000 C 
ATOM     10  O   UNL     1       5.434   7.484  16.982  0.00  0.00    +0.000 OA
ATOM     11  N   UNL     1       3.463   6.354  17.682  0.00  0.00    +0.000 N 
ATOM     12  C   UNL     1       3.059   4.960  17.709  0.00  0.00    +0.000 C 
BRANCH   7  14
ATOM     13  N   UNL     1       4.162   2.567  19.681  0.00  0.00    +0.000 N 
ATOM     14  C   UNL     1       4.813   3.594  19.037  0.00  0.00    +0.000 C 
ATOM     15  O   UNL     1       5.826   4.068  19.590  0.00  0.00    +0.000 OA
ATOM     16  H   UNL     1       4.585   2.247  20.546  0.00  0.00    +0.000 HD
BRANCH  13  17
ATOM     17  C   UNL     1       3.060   1.858  19.126  0.00  0.00    +0.000 C 
BRANCH  17  19
ATOM     18  C   UNL     1       0.686   2.342  18.729  0.00  0.00    +0.000 C 
ATOM     19  C   UNL     1       1.694   2.162  19.595  0.00  0.00    +0.000 C 
ENDBRANCH  17  19
ENDBRANCH  13  17
ENDBRANCH   7  14
ENDBRANCH   1  11
BRANCH   4  20
ATOM     20  O   UNL     1       0.416  10.349  20.253  0.00  0.00    +0.000 OA
BRANCH  20  21
ATOM     21  C   UNL     1       0.558  11.703  19.816  0.00  0.00    +0.000 C 
BRANCH  21  22
ATOM     22  C   UNL     1      -0.697  12.139  19.061  0.00  0.00    +0.000 C 
ATOM     23  O   UNL     1      -0.705  13.155  18.371  0.00  0.00    +0.000 OA
ATOM     24  N   UNL     1      -1.759  11.254  19.219  0.00  0.00    +0.000 N 
ATOM     25  H   UNL     1      -1.739  10.773  20.113  0.00  0.00    +0.000 HD
BRANCH  24  26
ATOM     26  C   UNL     1      -3.017  11.475  18.619  0.00  0.00    +0.000 A 
ATOM     27  C   UNL     1      -4.018  12.222  19.276  0.00  0.00    +0.000 A 
ATOM     28  C   UNL     1      -3.808  12.956  20.573  0.00  0.00    +0.000 C 
ATOM     29  C   UNL     1      -5.272  12.367  18.662  0.00  0.00    +0.000 A 
ATOM     30  C   UNL     1      -5.518  11.833  17.401  0.00  0.00    +0.000 A 
ATOM     31  C   UNL     1      -4.508  11.152  16.730  0.00  0.00    +0.000 A 
ATOM     32  C   UNL     1      -3.251  10.960  17.325  0.00  0.00    +0.000 A 
ATOM     33  C   UNL     1      -2.217  10.170  16.568  0.00  0.00    +0.000 C 
ENDBRANCH  24  26
ENDBRANCH  21  22
ENDBRANCH  20  21
ENDBRANCH   4  20
TORSDOF 8
ENDMDL
MODEL 6
REMARK VINA RESULT:      -8.4      1.740      3.273
REMARK  Name = 
REMARK  10 active torsions:
REMARK  status: ('A' for Active; 'I' for Inactive)
REMARK    1  A    between atoms: C_2  and  C_3
REMARK    2  A    between atoms: C_3  and  N_4
REMARK    3  A    between atoms: C_5  and  C_7
REMARK    4  A    between atoms: N_11  and  C_12
REMARK    5  A    between atoms: C_15  and  O_16
REMARK    6  A    between atoms: O_16  and  C_17
REMARK    7  A    between atoms: C_17  and  C_18
REMARK    8  A    between atoms: N_20  and  C_21
REMARK    9  A    between atoms: C_22  and  C_23
REMARK   10  A    between atoms: C_27  and  C_28
REMARK                            x       y       z     vdW  Elec       q    Type
REMARK                         _______ _______ _______ _____ _____    ______ ____
ROOT
ATOM      1  C   UNL     1       2.382   6.635  18.916  0.00  0.00    +0.000 A 
ATOM      2  C   UNL     1       2.336   7.702  18.005  0.00  0.00    +0.000 A 
ATOM      3  C   UNL     1       1.832   8.958  18.372  0.00  0.00    +0.000 A 
ATOM      4  C   UNL     1       1.356   9.183  19.658  0.00  0.00    +0.000 A 
ATOM      5  C   UNL     1       1.463   8.170  20.602  0.00  0.00    +0.000 A 
ATOM      6  C   UNL     1       1.969   6.910  20.231  0.00  0.00    +0.000 A 
ENDROOT
BRANCH   1  11
ATOM      7  C   UNL     1       4.686   4.061  17.626  0.00  0.00    +0.000 C 
ATOM      8  C   UNL     1       3.359   3.387  17.309  0.00  0.00    +0.000 C 
ATOM      9  C   UNL     1       2.300   4.362  17.790  0.00  0.00    +0.000 C 
ATOM     10  O   UNL     1       1.135   4.292  17.438  0.00  0.00    +0.000 OA
ATOM     11  N   UNL     1       2.941   5.358  18.560  0.00  0.00    +0.000 N 
ATOM     12  C   UNL     1       4.343   5.031  18.746  0.00  0.00    +0.000 C 
BRANCH   7  14
ATOM     13  N   UNL     1       6.775   5.025  16.485  0.00  0.00    +0.000 N 
ATOM     14  C   UNL     1       5.446   4.675  16.429  0.00  0.00    +0.000 C 
ATOM     15  O   UNL     1       4.847   4.861  15.351  0.00  0.00    +0.000 OA
ATOM     16  H   UNL     1       7.178   5.376  15.622  0.00  0.00    +0.000 HD
BRANCH  13  17
ATOM     17  C   UNL     1       7.612   4.776  17.608  0.00  0.00    +0.000 C 
BRANCH  17  19
ATOM     18  C   UNL     1       7.892   5.627  19.894  0.00  0.00    +0.000 C 
ATOM     19  C   UNL     1       7.869   5.863  18.575  0.00  0.00    +0.000 C 
ENDBRANCH  17  19
ENDBRANCH  13  17
ENDBRANCH   7  14
ENDBRANCH   1  11
BRANCH   4  20
ATOM     20  O   UNL     1       0.869  10.435  19.896  0.00  0.00    +0.000 OA
BRANCH  20  21
ATOM     21  C   UNL     1       0.996  11.356  18.810  0.00  0.00    +0.000 C 
BRANCH  21  22
ATOM     22  C   UNL     1      -0.374  11.936  18.459  0.00  0.00    +0.000 C 
ATOM     23  O   UNL     1      -0.489  13.077  18.019  0.00  0.00    +0.000 OA
ATOM     24  N   UNL     1      -1.412  11.031  18.655  0.00  0.00    +0.000 N 
ATOM     25  H   UNL     1      -1.220  10.369  19.400  0.00  0.00    +0.000 HD
BRANCH  24  26
ATOM     26  C   UNL     1      -2.759  11.368  18.405  0.00  0.00    +0.000 A 
ATOM     27  C   UNL     1      -3.395  10.986  17.205  0.00  0.00    +0.000 A 
ATOM     28  C   UNL     1      -2.774  10.089  16.169  0.00  0.00    +0.000 C 
ATOM     29  C   UNL     1      -4.720  11.393  16.978  0.00  0.00    +0.000 A 
ATOM     30  C   UNL     1      -5.421  12.116  17.938  0.00  0.00    +0.000 A 
ATOM     31  C   UNL     1      -4.810  12.435  19.145  0.00  0.00    +0.000 A 
ATOM     32  C   UNL     1      -3.478  12.073  19.396  0.00  0.00    +0.000 A 
ATOM     33  C   UNL     1      -2.857  12.492  20.701  0.00  0.00    +0.000 C 
ENDBRANCH  24  26
ENDBRANCH  21  22
ENDBRANCH  20  21
ENDBRANCH   4  20
TORSDOF 8
ENDMDL
MODEL 7
REMARK VINA RESULT:      -8.3      1.794      3.707
REMARK  Name = 
REMARK  10 active torsions:
REMARK  status: ('A' for Active; 'I' for Inactive)
REMARK    1  A    between atoms: C_2  and  C_3
REMARK    2  A    between atoms: C_3  and  N_4
REMARK    3  A    between atoms: C_5  and  C_7
REMARK    4  A    between atoms: N_11  and  C_12
REMARK    5  A    between atoms: C_15  and  O_16
REMARK    6  A    between atoms: O_16  and  C_17
REMARK    7  A    between atoms: C_17  and  C_18
REMARK    8  A    between atoms: N_20  and  C_21
REMARK    9  A    between atoms: C_22  and  C_23
REMARK   10  A    between atoms: C_27  and  C_28
REMARK                            x       y       z     vdW  Elec       q    Type
REMARK                         _______ _______ _______ _____ _____    ______ ____
ROOT
ATOM      1  C   UNL     1       2.754   7.022  18.804  0.00  0.00    +0.000 A 
ATOM      2  C   UNL     1       2.197   7.074  20.091  0.00  0.00    +0.000 A 
ATOM      3  C   UNL     1       1.400   8.152  20.502  0.00  0.00    +0.000 A 
ATOM      4  C   UNL     1       1.143   9.212  19.641  0.00  0.00    +0.000 A 
ATOM      5  C   UNL     1       1.615   9.149  18.337  0.00  0.00    +0.000 A 
ATOM      6  C   UNL     1       2.414   8.066  17.927  0.00  0.00    +0.000 A 
ENDROOT
BRANCH   1  11
ATOM      7  C   UNL     1       5.450   5.011  17.294  0.00  0.00    +0.000 C 
ATOM      8  C   UNL     1       4.267   4.103  16.992  0.00  0.00    +0.000 C 
ATOM      9  C   UNL     1       3.062   4.829  17.564  0.00  0.00    +0.000 C 
ATOM     10  O   UNL     1       1.918   4.547  17.253  0.00  0.00    +0.000 OA
ATOM     11  N   UNL     1       3.533   5.896  18.360  0.00  0.00    +0.000 N 
ATOM     12  C   UNL     1       4.979   5.844  18.475  0.00  0.00    +0.000 C 
BRANCH   7  14
ATOM     13  N   UNL     1       6.403   5.229  14.919  0.00  0.00    +0.000 N 
ATOM     14  C   UNL     1       6.018   5.814  16.103  0.00  0.00    +0.000 C 
ATOM     15  O   UNL     1       6.133   7.053  16.196  0.00  0.00    +0.000 OA
ATOM     16  H   UNL     1       6.717   5.864  14.192  0.00  0.00    +0.000 HD
BRANCH  13  17
ATOM     17  C   UNL     1       6.233   3.847  14.628  0.00  0.00    +0.000 C 
BRANCH  17  19
ATOM     18  C   UNL     1       6.649   3.801  12.209  0.00  0.00    +0.000 C 
ATOM     19  C   UNL     1       5.891   3.433  13.252  0.00  0.00    +0.000 C 
ENDBRANCH  17  19
ENDBRANCH  13  17
ENDBRANCH   7  14
ENDBRANCH   1  11
BRANCH   4  20
ATOM     20  O   UNL     1       0.375  10.216  20.156  0.00  0.00    +0.000 OA
BRANCH  20  21
ATOM     21  C   UNL     1       0.600  11.509  19.587  0.00  0.00    +0.000 C 
BRANCH  21  22
ATOM     22  C   UNL     1      -0.652  11.972  18.843  0.00  0.00    +0.000 C 
ATOM     23  O   UNL     1      -0.633  12.968  18.123  0.00  0.00    +0.000 OA
ATOM     24  N   UNL     1      -1.745  11.136  19.047  0.00  0.00    +0.000 N 
ATOM     25  H   UNL     1      -1.727  10.681  19.954  0.00  0.00    +0.000 HD
BRANCH  24  26
ATOM     26  C   UNL     1      -3.004  11.389  18.463  0.00  0.00    +0.000 A 
ATOM     27  C   UNL     1      -3.336  10.871  17.193  0.00  0.00    +0.000 A 
ATOM     28  C   UNL     1      -2.473   9.909  16.421  0.00  0.00    +0.000 C 
ATOM     29  C   UNL     1      -4.580  11.197  16.629  0.00  0.00    +0.000 A 
ATOM     30  C   UNL     1      -5.500  11.974  17.325  0.00  0.00    +0.000 A 
ATOM     31  C   UNL     1      -5.193  12.431  18.602  0.00  0.00    +0.000 A 
ATOM     32  C   UNL     1      -3.947  12.151  19.187  0.00  0.00    +0.000 A 
ATOM     33  C   UNL     1      -3.656  12.716  20.551  0.00  0.00    +0.000 C 
ENDBRANCH  24  26
ENDBRANCH  21  22
ENDBRANCH  20  21
ENDBRANCH   4  20
TORSDOF 8
ENDMDL
MODEL 8
REMARK VINA RESULT:      -8.2      1.604      2.820
REMARK  Name = 
REMARK  10 active torsions:
REMARK  status: ('A' for Active; 'I' for Inactive)
REMARK    1  A    between atoms: C_2  and  C_3
REMARK    2  A    between atoms: C_3  and  N_4
REMARK    3  A    between atoms: C_5  and  C_7
REMARK    4  A    between atoms: N_11  and  C_12
REMARK    5  A    between atoms: C_15  and  O_16
REMARK    6  A    between atoms: O_16  and  C_17
REMARK    7  A    between atoms: C_17  and  C_18
REMARK    8  A    between atoms: N_20  and  C_21
REMARK    9  A    between atoms: C_22  and  C_23
REMARK   10  A    between atoms: C_27  and  C_28
REMARK                            x       y       z     vdW  Elec       q    Type
REMARK                         _______ _______ _______ _____ _____    ______ ____
ROOT
ATOM      1  C   UNL     1       2.370   6.719  19.488  0.00  0.00    +0.000 A 
ATOM      2  C   UNL     1       2.539   7.221  18.189  0.00  0.00    +0.000 A 
ATOM      3  C   UNL     1       2.108   8.509  17.838  0.00  0.00    +0.000 A 
ATOM      4  C   UNL     1       1.489   9.328  18.775  0.00  0.00    +0.000 A 
ATOM      5  C   UNL     1       1.381   8.888  20.088  0.00  0.00    +0.000 A 
ATOM      6  C   UNL     1       1.815   7.596  20.436  0.00  0.00    +0.000 A 
ENDROOT
BRANCH   1  11
ATOM      7  C   UNL     1       4.072   3.450  19.376  0.00  0.00    +0.000 C 
ATOM      8  C   UNL     1       2.871   3.074  20.231  0.00  0.00    +0.000 C 
ATOM      9  C   UNL     1       2.062   4.352  20.353  0.00  0.00    +0.000 C 
ATOM     10  O   UNL     1       0.898   4.360  20.714  0.00  0.00    +0.000 OA
ATOM     11  N   UNL     1       2.852   5.417  19.867  0.00  0.00    +0.000 N 
ATOM     12  C   UNL     1       4.194   4.954  19.561  0.00  0.00    +0.000 C 
BRANCH   7  14
ATOM     13  N   UNL     1       4.913   3.437  16.949  0.00  0.00    +0.000 N 
ATOM     14  C   UNL     1       4.050   2.964  17.910  0.00  0.00    +0.000 C 
ATOM     15  O   UNL     1       3.224   2.095  17.563  0.00  0.00    +0.000 OA
ATOM     16  H   UNL     1       4.834   3.010  16.033  0.00  0.00    +0.000 HD
BRANCH  13  17
ATOM     17  C   UNL     1       5.973   4.348  17.218  0.00  0.00    +0.000 C 
BRANCH  17  19
ATOM     18  C   UNL     1       5.251   6.273  15.877  0.00  0.00    +0.000 C 
ATOM     19  C   UNL     1       6.234   5.453  16.275  0.00  0.00    +0.000 C 
ENDBRANCH  17  19
ENDBRANCH  13  17
ENDBRANCH   7  14
ENDBRANCH   1  11
BRANCH   4  20
ATOM     20  O   UNL     1       1.091  10.550  18.317  0.00  0.00    +0.000 OA
BRANCH  20  21
ATOM     21  C   UNL     1       0.509  11.411  19.299  0.00  0.00    +0.000 C 
BRANCH  21  22
ATOM     22  C   UNL     1      -0.785  12.017  18.757  0.00  0.00    +0.000 C 
ATOM     23  O   UNL     1      -0.796  13.126  18.228  0.00  0.00    +0.000 OA
ATOM     24  N   UNL     1      -1.880  11.172  18.900  0.00  0.00    +0.000 N 
ATOM     25  H   UNL     1      -1.802  10.560  19.706  0.00  0.00    +0.000 HD
BRANCH  24  26
ATOM     26  C   UNL     1      -3.175  11.542  18.478  0.00  0.00    +0.000 A 
ATOM     27  C   UNL     1      -4.052  12.234  19.340  0.00  0.00    +0.000 A 
ATOM     28  C   UNL     1      -3.664  12.759  20.696  0.00  0.00    +0.000 C 
ATOM     29  C   UNL     1      -5.350  12.532  18.894  0.00  0.00    +0.000 A 
ATOM     30  C   UNL     1      -5.757  12.202  17.605  0.00  0.00    +0.000 A 
ATOM     31  C   UNL     1      -4.868  11.577  16.738  0.00  0.00    +0.000 A 
ATOM     32  C   UNL     1      -3.573  11.235  17.158  0.00  0.00    +0.000 A 
ATOM     33  C   UNL     1      -2.676  10.514  16.189  0.00  0.00    +0.000 C 
ENDBRANCH  24  26
ENDBRANCH  21  22
ENDBRANCH  20  21
ENDBRANCH   4  20
TORSDOF 8
ENDMDL
MODEL 9
REMARK VINA RESULT:      -8.2      1.776      3.062
REMARK  Name = 
REMARK  10 active torsions:
REMARK  status: ('A' for Active; 'I' for Inactive)
REMARK    1  A    between atoms: C_2  and  C_3
REMARK    2  A    between atoms: C_3  and  N_4
REMARK    3  A    between atoms: C_5  and  C_7
REMARK    4  A    between atoms: N_11  and  C_12
REMARK    5  A    between atoms: C_15  and  O_16
REMARK    6  A    between atoms: O_16  and  C_17
REMARK    7  A    between atoms: C_17  and  C_18
REMARK    8  A    between atoms: N_20  and  C_21
REMARK    9  A    between atoms: C_22  and  C_23
REMARK   10  A    between atoms: C_27  and  C_28
REMARK                            x       y       z     vdW  Elec       q    Type
REMARK                         _______ _______ _______ _____ _____    ______ ____
ROOT
ATOM      1  C   UNL     1       2.493   7.003  19.257  0.00  0.00    +0.000 A 
ATOM      2  C   UNL     1       1.828   7.658  20.305  0.00  0.00    +0.000 A 
ATOM      3  C   UNL     1       1.240   8.918  20.127  0.00  0.00    +0.000 A 
ATOM      4  C   UNL     1       1.305   9.563  18.897  0.00  0.00    +0.000 A 
ATOM      5  C   UNL     1       1.887   8.905  17.822  0.00  0.00    +0.000 A 
ATOM      6  C   UNL     1       2.475   7.640  18.004  0.00  0.00    +0.000 A 
ENDROOT
BRANCH   1  11
ATOM      7  C   UNL     1       4.697   4.071  18.882  0.00  0.00    +0.000 C 
ATOM      8  C   UNL     1       3.377   3.357  19.133  0.00  0.00    +0.000 C 
ATOM      9  C   UNL     1       2.357   4.469  19.300  0.00  0.00    +0.000 C 
ATOM     10  O   UNL     1       1.156   4.275  19.222  0.00  0.00    +0.000 OA
ATOM     11  N   UNL     1       3.057   5.690  19.420  0.00  0.00    +0.000 N 
ATOM     12  C   UNL     1       4.487   5.449  19.489  0.00  0.00    +0.000 C 
BRANCH   7  14
ATOM     13  N   UNL     1       6.506   4.395  17.088  0.00  0.00    +0.000 N 
ATOM     14  C   UNL     1       5.215   4.062  17.427  0.00  0.00    +0.000 C 
ATOM     15  O   UNL     1       4.446   3.731  16.502  0.00  0.00    +0.000 OA
ATOM     16  H   UNL     1       6.744   4.307  16.106  0.00  0.00    +0.000 HD
BRANCH  13  17
ATOM     17  C   UNL     1       7.523   4.690  18.040  0.00  0.00    +0.000 C 
BRANCH  17  19
ATOM     18  C   UNL     1       7.475   7.102  17.588  0.00  0.00    +0.000 C 
ATOM     19  C   UNL     1       7.773   6.094  18.420  0.00  0.00    +0.000 C 
ENDBRANCH  17  19
ENDBRANCH  13  17
ENDBRANCH   7  14
ENDBRANCH   1  11
BRANCH   4  20
ATOM     20  O   UNL     1       0.718  10.794  18.846  0.00  0.00    +0.000 OA
BRANCH  20  21
ATOM     21  C   UNL     1      -0.252  11.051  19.864  0.00  0.00    +0.000 C 
BRANCH  21  22
ATOM     22  C   UNL     1      -1.412  11.859  19.283  0.00  0.00    +0.000 C 
ATOM     23  O   UNL     1      -1.269  13.034  18.955  0.00  0.00    +0.000 OA
ATOM     24  N   UNL     1      -2.577  11.111  19.145  0.00  0.00    +0.000 N 
ATOM     25  H   UNL     1      -2.654  10.373  19.838  0.00  0.00    +0.000 HD
BRANCH  24  26
ATOM     26  C   UNL     1      -3.772  11.668  18.641  0.00  0.00    +0.000 A 
ATOM     27  C   UNL     1      -4.648  12.392  19.477  0.00  0.00    +0.000 A 
ATOM     28  C   UNL     1      -4.342  12.760  20.905  0.00  0.00    +0.000 C 
ATOM     29  C   UNL     1      -5.852  12.879  18.943  0.00  0.00    +0.000 A 
ATOM     30  C   UNL     1      -6.161  12.702  17.598  0.00  0.00    +0.000 A 
ATOM     31  C   UNL     1      -5.265  12.042  16.764  0.00  0.00    +0.000 A 
ATOM     32  C   UNL     1      -4.067  11.514  17.269  0.00  0.00    +0.000 A 
ATOM     33  C   UNL     1      -3.163  10.766  16.326  0.00  0.00    +0.000 C 
ENDBRANCH  24  26
ENDBRANCH  21  22
ENDBRANCH  20  21
ENDBRANCH   4  20
TORSDOF 8
ENDMDL
