MODEL 1
REMARK VINA RESULT:      -8.2      0.000      0.000
REMARK  Name = 
REMARK  4 active torsions:
REMARK  status: ('A' for Active; 'I' for Inactive)
REMARK    1  A    between atoms: C_1  and  C_9
REMARK    2  A    between atoms: C_2  and  C_3
REMARK    3  A    between atoms: N_10  and  N_11
REMARK    4  A    between atoms: N_11  and  C_12
REMARK                            x       y       z     vdW  Elec       q    Type
REMARK                         _______ _______ _______ _____ _____    ______ ____
ROOT
ATOM      1  C   UNL     1       4.362   6.170  17.201  0.00  0.00    +0.000 A 
ATOM      2  N   UNL     1       5.204   6.120  16.131  0.00  0.00    +0.000 NA
ATOM      3  C   UNL     1       5.523   4.942  15.594  0.00  0.00    +0.000 A 
ATOM      4  N   UNL     1       5.134   3.738  16.005  0.00  0.00    +0.000 NA
ATOM      5  C   UNL     1       4.316   3.801  17.067  0.00  0.00    +0.000 A 
ATOM      6  S   UNL     1       3.698   2.363  17.740  0.00  0.00    +0.000 S 
ATOM      7  C   UNL     1       2.783   3.220  18.882  0.00  0.00    +0.000 A 
ATOM      8  C   UNL     1       2.963   4.590  18.796  0.00  0.00    +0.000 A 
ATOM      9  C   UNL     1       3.872   4.946  17.721  0.00  0.00    +0.000 A 
ATOM     10  C   UNL     1       2.211   5.524  19.703  0.00  0.00    +0.000 C 
ATOM     11  C   UNL     1       1.551   4.803  20.888  0.00  0.00    +0.000 C 
ATOM     12  C   UNL     1       0.879   3.494  20.460  0.00  0.00    +0.000 C 
ATOM     13  C   UNL     1       1.901   2.515  19.867  0.00  0.00    +0.000 C 
ENDROOT
BRANCH   1  14
ATOM     14  N   UNL     1       4.018   7.435  17.732  0.00  0.00    +0.000 N 
ATOM     15  H   UNL     1       4.319   7.561  18.688  0.00  0.00    +0.000 HD
BRANCH  14  17
ATOM     16  C   UNL     1       2.301   8.848  18.107  0.00  0.00    +0.000 C 
ATOM     17  N   UNL     1       2.790   7.899  17.380  0.00  0.00    +0.000 NA
BRANCH  16  18
ATOM     18  C   UNL     1       0.969   9.383  17.771  0.00  0.00    +0.000 C 
ATOM     19  C   UNL     1       0.142   9.878  18.700  0.00  0.00    +0.000 C 
BRANCH  19  20
ATOM     20  C   UNL     1      -1.188  10.417  18.367  0.00  0.00    +0.000 A 
ATOM     21  C   UNL     1      -1.875   9.910  17.256  0.00  0.00    +0.000 A 
ATOM     22  C   UNL     1      -3.133  10.412  16.905  0.00  0.00    +0.000 A 
ATOM     23  C   UNL     1      -3.721  11.415  17.670  0.00  0.00    +0.000 A 
ATOM     24  C   UNL     1      -3.067  11.909  18.793  0.00  0.00    +0.000 A 
ATOM     25  C   UNL     1      -1.812  11.406  19.143  0.00  0.00    +0.000 A 
ENDBRANCH  19  20
ENDBRANCH  16  18
ENDBRANCH  14  17
ENDBRANCH   1  14
TORSDOF 4
ENDMDL
MODEL 2
REMARK VINA RESULT:      -8.1      1.675      3.627
REMARK  Name = 
REMARK  4 active torsions:
REMARK  status: ('A' for Active; 'I' for Inactive)
REMARK    1  A    between atoms: C_1  and  C_9
REMARK    2  A    between atoms: C_2  and  C_3
REMARK    3  A    between atoms: N_10  and  N_11
REMARK    4  A    between atoms: N_11  and  C_12
REMARK                            x       y       z     vdW  Elec       q    Type
REMARK                         _______ _______ _______ _____ _____    ______ ____
ROOT
ATOM      1  C   UNL     1       2.730   6.599  19.052  0.00  0.00    +0.000 A 
ATOM      2  N   UNL     1       1.975   6.337  20.156  0.00  0.00    +0.000 NA
ATOM      3  C   UNL     1       1.890   5.090  20.619  0.00  0.00    +0.000 A 
ATOM      4  N   UNL     1       2.447   3.999  20.100  0.00  0.00    +0.000 NA
ATOM      5  C   UNL     1       3.177   4.269  19.007  0.00  0.00    +0.000 A 
ATOM      6  S   UNL     1       3.983   3.004  18.198  0.00  0.00    +0.000 S 
ATOM      7  C   UNL     1       4.670   4.077  17.079  0.00  0.00    +0.000 A 
ATOM      8  C   UNL     1       4.271   5.388  17.276  0.00  0.00    +0.000 A 
ATOM      9  C   UNL     1       3.383   5.513  18.418  0.00  0.00    +0.000 A 
ATOM     10  C   UNL     1       4.799   6.494  16.405  0.00  0.00    +0.000 C 
ATOM     11  C   UNL     1       5.495   5.974  15.138  0.00  0.00    +0.000 C 
ATOM     12  C   UNL     1       6.402   4.774  15.433  0.00  0.00    +0.000 C 
ATOM     13  C   UNL     1       5.595   3.599  16.001  0.00  0.00    +0.000 C 
ENDROOT
BRANCH   1  14
ATOM     14  N   UNL     1       2.825   7.936  18.601  0.00  0.00    +0.000 N 
ATOM     15  H   UNL     1       3.466   8.496  19.146  0.00  0.00    +0.000 HD
BRANCH  14  17
ATOM     16  C   UNL     1       1.314   9.597  18.801  0.00  0.00    +0.000 C 
ATOM     17  N   UNL     1       1.654   8.502  18.207  0.00  0.00    +0.000 NA
BRANCH  16  18
ATOM     18  C   UNL     1       0.049  10.248  18.414  0.00  0.00    +0.000 C 
ATOM     19  C   UNL     1      -0.877   9.629  17.670  0.00  0.00    +0.000 C 
BRANCH  19  20
ATOM     20  C   UNL     1      -2.143  10.275  17.284  0.00  0.00    +0.000 A 
ATOM     21  C   UNL     1      -2.856  11.010  18.240  0.00  0.00    +0.000 A 
ATOM     22  C   UNL     1      -4.070  11.622  17.909  0.00  0.00    +0.000 A 
ATOM     23  C   UNL     1      -4.574  11.517  16.616  0.00  0.00    +0.000 A 
ATOM     24  C   UNL     1      -3.863  10.816  15.646  0.00  0.00    +0.000 A 
ATOM     25  C   UNL     1      -2.652  10.207  15.978  0.00  0.00    +0.000 A 
ENDBRANCH  19  20
ENDBRANCH  16  18
ENDBRANCH  14  17
ENDBRANCH   1  14
TORSDOF 4
ENDMDL
MODEL 3
REMARK VINA RESULT:      -7.9      2.638      4.210
REMARK  Name = 
REMARK  4 active torsions:
REMARK  status: ('A' for Active; 'I' for Inactive)
REMARK    1  A    between atoms: C_1  and  C_9
REMARK    2  A    between atoms: C_2  and  C_3
REMARK    3  A    between atoms: N_10  and  N_11
REMARK    4  A    between atoms: N_11  and  C_12
REMARK                            x       y       z     vdW  Elec       q    Type
REMARK                         _______ _______ _______ _____ _____    ______ ____
ROOT
ATOM      1  C   UNL     1       2.379   5.235  20.168  0.00  0.00    +0.000 A 
ATOM      2  N   UNL     1       1.637   4.483  21.030  0.00  0.00    +0.000 NA
ATOM      3  C   UNL     1       1.500   3.175  20.818  0.00  0.00    +0.000 A 
ATOM      4  N   UNL     1       1.989   2.468  19.803  0.00  0.00    +0.000 NA
ATOM      5  C   UNL     1       2.707   3.222  18.955  0.00  0.00    +0.000 A 
ATOM      6  S   UNL     1       3.429   2.501  17.591  0.00  0.00    +0.000 S 
ATOM      7  C   UNL     1       4.144   3.965  17.121  0.00  0.00    +0.000 A 
ATOM      8  C   UNL     1       3.816   5.017  17.959  0.00  0.00    +0.000 A 
ATOM      9  C   UNL     1       2.962   4.587  19.052  0.00  0.00    +0.000 A 
ATOM     10  C   UNL     1       4.380   6.391  17.727  0.00  0.00    +0.000 C 
ATOM     11  C   UNL     1       5.020   6.547  16.340  0.00  0.00    +0.000 C 
ATOM     12  C   UNL     1       5.871   5.330  15.961  0.00  0.00    +0.000 C 
ATOM     13  C   UNL     1       5.019   4.055  15.907  0.00  0.00    +0.000 C 
ENDROOT
BRANCH   1  14
ATOM     14  N   UNL     1       2.531   6.615  20.435  0.00  0.00    +0.000 N 
ATOM     15  H   UNL     1       3.386   6.834  20.929  0.00  0.00    +0.000 HD
BRANCH  14  17
ATOM     16  C   UNL     1       1.359   8.537  20.569  0.00  0.00    +0.000 C 
ATOM     17  N   UNL     1       1.396   7.267  20.800  0.00  0.00    +0.000 NA
BRANCH  16  18
ATOM     18  C   UNL     1       0.151   9.291  20.951  0.00  0.00    +0.000 C 
ATOM     19  C   UNL     1       0.199  10.575  21.330  0.00  0.00    +0.000 C 
BRANCH  19  20
ATOM     20  C   UNL     1      -1.006  11.332  21.710  0.00  0.00    +0.000 A 
ATOM     21  C   UNL     1      -1.677  12.085  20.738  0.00  0.00    +0.000 A 
ATOM     22  C   UNL     1      -2.815  12.828  21.071  0.00  0.00    +0.000 A 
ATOM     23  C   UNL     1      -3.300  12.812  22.375  0.00  0.00    +0.000 A 
ATOM     24  C   UNL     1      -2.664  12.046  23.346  0.00  0.00    +0.000 A 
ATOM     25  C   UNL     1      -1.529  11.304  23.012  0.00  0.00    +0.000 A 
ENDBRANCH  19  20
ENDBRANCH  16  18
ENDBRANCH  14  17
ENDBRANCH   1  14
TORSDOF 4
ENDMDL
MODEL 4
REMARK VINA RESULT:      -7.9      0.730      1.221
REMARK  Name = 
REMARK  4 active torsions:
REMARK  status: ('A' for Active; 'I' for Inactive)
REMARK    1  A    between atoms: C_1  and  C_9
REMARK    2  A    between atoms: C_2  and  C_3
REMARK    3  A    between atoms: N_10  and  N_11
REMARK    4  A    between atoms: N_11  and  C_12
REMARK                            x       y       z     vdW  Elec       q    Type
REMARK                         _______ _______ _______ _____ _____    ______ ____
ROOT
ATOM      1  C   UNL     1       3.881   6.582  17.605  0.00  0.00    +0.000 A 
ATOM      2  N   UNL     1       4.749   6.874  16.595  0.00  0.00    +0.000 NA
ATOM      3  C   UNL     1       5.302   5.887  15.891  0.00  0.00    +0.000 A 
ATOM      4  N   UNL     1       5.139   4.579  16.073  0.00  0.00    +0.000 NA
ATOM      5  C   UNL     1       4.293   4.305  17.078  0.00  0.00    +0.000 A 
ATOM      6  S   UNL     1       3.942   2.683  17.466  0.00  0.00    +0.000 S 
ATOM      7  C   UNL     1       2.848   3.146  18.675  0.00  0.00    +0.000 A 
ATOM      8  C   UNL     1       2.764   4.520  18.828  0.00  0.00    +0.000 A 
ATOM      9  C   UNL     1       3.620   5.218  17.884  0.00  0.00    +0.000 A 
ATOM     10  C   UNL     1       1.822   5.128  19.829  0.00  0.00    +0.000 C 
ATOM     11  C   UNL     1       1.278   4.103  20.835  0.00  0.00    +0.000 C 
ATOM     12  C   UNL     1       0.880   2.788  20.157  0.00  0.00    +0.000 C 
ATOM     13  C   UNL     1       2.088   2.131  19.475  0.00  0.00    +0.000 C 
ENDROOT
BRANCH   1  14
ATOM     14  N   UNL     1       3.287   7.650  18.315  0.00  0.00    +0.000 N 
ATOM     15  H   UNL     1       3.446   7.604  19.312  0.00  0.00    +0.000 HD
BRANCH  14  17
ATOM     16  C   UNL     1       1.716   9.252  18.090  0.00  0.00    +0.000 C 
ATOM     17  N   UNL     1       2.055   8.024  17.880  0.00  0.00    +0.000 NA
BRANCH  16  18
ATOM     18  C   UNL     1       0.387   9.707  17.643  0.00  0.00    +0.000 C 
ATOM     19  C   UNL     1      -0.535  10.174  18.495  0.00  0.00    +0.000 C 
BRANCH  19  20
ATOM     20  C   UNL     1      -1.862  10.631  18.051  0.00  0.00    +0.000 A 
ATOM     21  C   UNL     1      -2.638  11.420  18.909  0.00  0.00    +0.000 A 
ATOM     22  C   UNL     1      -3.910  11.857  18.522  0.00  0.00    +0.000 A 
ATOM     23  C   UNL     1      -4.410  11.521  17.268  0.00  0.00    +0.000 A 
ATOM     24  C   UNL     1      -3.641  10.764  16.391  0.00  0.00    +0.000 A 
ATOM     25  C   UNL     1      -2.372  10.329  16.778  0.00  0.00    +0.000 A 
ENDBRANCH  19  20
ENDBRANCH  16  18
ENDBRANCH  14  17
ENDBRANCH   1  14
TORSDOF 4
ENDMDL
MODEL 5
REMARK VINA RESULT:      -7.9      2.563      4.276
REMARK  Name = 
REMARK  4 active torsions:
REMARK  status: ('A' for Active; 'I' for Inactive)
REMARK    1  A    between atoms: C_1  and  C_9
REMARK    2  A    between atoms: C_2  and  C_3
REMARK    3  A    between atoms: N_10  and  N_11
REMARK    4  A    between atoms: N_11  and  C_12
REMARK                            x       y       z     vdW  Elec       q    Type
REMARK                         _______ _______ _______ _____ _____    ______ ____
ROOT
ATOM      1  C   UNL     1       2.342   5.601  20.031  0.00  0.00    +0.000 A 
ATOM      2  N   UNL     1       1.601   4.915  20.946  0.00  0.00    +0.000 NA
ATOM      3  C   UNL     1       1.495   3.589  20.852  0.00  0.00    +0.000 A 
ATOM      4  N   UNL     1       2.019   2.804  19.915  0.00  0.00    +0.000 NA
ATOM      5  C   UNL     1       2.736   3.494  19.014  0.00  0.00    +0.000 A 
ATOM      6  S   UNL     1       3.499   2.668  17.733  0.00  0.00    +0.000 S 
ATOM      7  C   UNL     1       4.192   4.099  17.143  0.00  0.00    +0.000 A 
ATOM      8  C   UNL     1       3.826   5.215  17.875  0.00  0.00    +0.000 A 
ATOM      9  C   UNL     1       2.960   4.867  18.989  0.00  0.00    +0.000 A 
ATOM     10  C   UNL     1       4.364   6.575  17.528  0.00  0.00    +0.000 C 
ATOM     11  C   UNL     1       5.027   6.618  16.143  0.00  0.00    +0.000 C 
ATOM     12  C   UNL     1       5.910   5.392  15.892  0.00  0.00    +0.000 C 
ATOM     13  C   UNL     1       5.087   4.098  15.941  0.00  0.00    +0.000 C 
ENDROOT
BRANCH   1  14
ATOM     14  N   UNL     1       2.460   7.003  20.172  0.00  0.00    +0.000 N 
ATOM     15  H   UNL     1       3.388   7.300  20.442  0.00  0.00    +0.000 HD
BRANCH  14  17
ATOM     16  C   UNL     1       1.148   8.828  20.361  0.00  0.00    +0.000 C 
ATOM     17  N   UNL     1       1.397   7.621  20.750  0.00  0.00    +0.000 NA
BRANCH  16  18
ATOM     18  C   UNL     1       0.009   9.544  20.961  0.00  0.00    +0.000 C 
ATOM     19  C   UNL     1      -0.129  10.874  20.871  0.00  0.00    +0.000 C 
BRANCH  19  20
ATOM     20  C   UNL     1      -1.268  11.593  21.467  0.00  0.00    +0.000 A 
ATOM     21  C   UNL     1      -1.527  11.452  22.836  0.00  0.00    +0.000 A 
ATOM     22  C   UNL     1      -2.611  12.110  23.428  0.00  0.00    +0.000 A 
ATOM     23  C   UNL     1      -3.436  12.925  22.659  0.00  0.00    +0.000 A 
ATOM     24  C   UNL     1      -3.176  13.099  21.303  0.00  0.00    +0.000 A 
ATOM     25  C   UNL     1      -2.093  12.443  20.714  0.00  0.00    +0.000 A 
ENDBRANCH  19  20
ENDBRANCH  16  18
ENDBRANCH  14  17
ENDBRANCH   1  14
TORSDOF 4
ENDMDL
MODEL 6
REMARK VINA RESULT:      -7.8      1.738      3.512
REMARK  Name = 
REMARK  4 active torsions:
REMARK  status: ('A' for Active; 'I' for Inactive)
REMARK    1  A    between atoms: C_1  and  C_9
REMARK    2  A    between atoms: C_2  and  C_3
REMARK    3  A    between atoms: N_10  and  N_11
REMARK    4  A    between atoms: N_11  and  C_12
REMARK                            x       y       z     vdW  Elec       q    Type
REMARK                         _______ _______ _______ _____ _____    ______ ____
ROOT
ATOM      1  C   UNL     1       2.546   6.281  19.571  0.00  0.00    +0.000 A 
ATOM      2  N   UNL     1       1.822   5.798  20.620  0.00  0.00    +0.000 NA
ATOM      3  C   UNL     1       1.780   4.485  20.847  0.00  0.00    +0.000 A 
ATOM      4  N   UNL     1       2.356   3.525  20.128  0.00  0.00    +0.000 NA
ATOM      5  C   UNL     1       3.055   4.013  19.092  0.00  0.00    +0.000 A 
ATOM      6  S   UNL     1       3.876   2.943  18.051  0.00  0.00    +0.000 S 
ATOM      7  C   UNL     1       4.511   4.224  17.138  0.00  0.00    +0.000 A 
ATOM      8  C   UNL     1       4.081   5.463  17.579  0.00  0.00    +0.000 A 
ATOM      9  C   UNL     1       3.214   5.350  18.739  0.00  0.00    +0.000 A 
ATOM     10  C   UNL     1       4.561   6.725  16.918  0.00  0.00    +0.000 C 
ATOM     11  C   UNL     1       5.244   6.468  15.567  0.00  0.00    +0.000 C 
ATOM     12  C   UNL     1       6.188   5.263  15.621  0.00  0.00    +0.000 C 
ATOM     13  C   UNL     1       5.426   3.979  15.976  0.00  0.00    +0.000 C 
ENDROOT
BRANCH   1  14
ATOM     14  N   UNL     1       2.595   7.680  19.372  0.00  0.00    +0.000 N 
ATOM     15  H   UNL     1       2.898   8.189  20.192  0.00  0.00    +0.000 HD
BRANCH  14  17
ATOM     16  C   UNL     1       1.183   9.387  18.952  0.00  0.00    +0.000 C 
ATOM     17  N   UNL     1       1.579   8.199  18.635  0.00  0.00    +0.000 NA
BRANCH  16  18
ATOM     18  C   UNL     1       0.079   9.993  18.186  0.00  0.00    +0.000 C 
ATOM     19  C   UNL     1      -1.207   9.767  18.482  0.00  0.00    +0.000 C 
BRANCH  19  20
ATOM     20  C   UNL     1      -2.312  10.373  17.721  0.00  0.00    +0.000 A 
ATOM     21  C   UNL     1      -2.429  10.106  16.352  0.00  0.00    +0.000 A 
ATOM     22  C   UNL     1      -3.459  10.680  15.598  0.00  0.00    +0.000 A 
ATOM     23  C   UNL     1      -4.389  11.515  16.210  0.00  0.00    +0.000 A 
ATOM     24  C   UNL     1      -4.305  11.767  17.576  0.00  0.00    +0.000 A 
ATOM     25  C   UNL     1      -3.278  11.193  18.327  0.00  0.00    +0.000 A 
ENDBRANCH  19  20
ENDBRANCH  16  18
ENDBRANCH  14  17
ENDBRANCH   1  14
TORSDOF 4
ENDMDL
MODEL 7
REMARK VINA RESULT:      -7.8      4.819      7.177
REMARK  Name = 
REMARK  4 active torsions:
REMARK  status: ('A' for Active; 'I' for Inactive)
REMARK    1  A    between atoms: C_1  and  C_9
REMARK    2  A    between atoms: C_2  and  C_3
REMARK    3  A    between atoms: N_10  and  N_11
REMARK    4  A    between atoms: N_11  and  C_12
REMARK                            x       y       z     vdW  Elec       q    Type
REMARK                         _______ _______ _______ _____ _____    ______ ____
ROOT
ATOM      1  C   UNL     1       6.740   5.091  17.567  0.00  0.00    +0.000 A 
ATOM      2  N   UNL     1       7.551   4.930  16.483  0.00  0.00    +0.000 NA
ATOM      3  C   UNL     1       7.066   4.387  15.368  0.00  0.00    +0.000 A 
ATOM      4  N   UNL     1       5.836   3.922  15.167  0.00  0.00    +0.000 NA
ATOM      5  C   UNL     1       5.051   4.074  16.246  0.00  0.00    +0.000 A 
ATOM      6  S   UNL     1       3.431   3.549  16.189  0.00  0.00    +0.000 S 
ATOM      7  C   UNL     1       3.132   4.110  17.761  0.00  0.00    +0.000 A 
ATOM      8  C   UNL     1       4.253   4.659  18.359  0.00  0.00    +0.000 A 
ATOM      9  C   UNL     1       5.400   4.642  17.467  0.00  0.00    +0.000 A 
ATOM     10  C   UNL     1       4.182   5.242  19.743  0.00  0.00    +0.000 C 
ATOM     11  C   UNL     1       2.899   4.850  20.490  0.00  0.00    +0.000 C 
ATOM     12  C   UNL     1       1.661   4.938  19.590  0.00  0.00    +0.000 C 
ATOM     13  C   UNL     1       1.779   3.985  18.394  0.00  0.00    +0.000 C 
ENDROOT
BRANCH   1  14
ATOM     14  N   UNL     1       7.274   5.698  18.727  0.00  0.00    +0.000 N 
ATOM     15  H   UNL     1       6.638   5.682  19.513  0.00  0.00    +0.000 HD
BRANCH  14  17
ATOM     16  C   UNL     1       7.385   7.809  17.944  0.00  0.00    +0.000 C 
ATOM     17  N   UNL     1       8.000   6.826  18.512  0.00  0.00    +0.000 NA
BRANCH  16  18
ATOM     18  C   UNL     1       8.131   9.054  17.683  0.00  0.00    +0.000 C 
ATOM     19  C   UNL     1       8.762   9.727  18.653  0.00  0.00    +0.000 C 
BRANCH  19  20
ATOM     20  C   UNL     1       9.511  10.969  18.396  0.00  0.00    +0.000 A 
ATOM     21  C   UNL     1       8.854  12.056  17.806  0.00  0.00    +0.000 A 
ATOM     22  C   UNL     1       9.542  13.244  17.534  0.00  0.00    +0.000 A 
ATOM     23  C   UNL     1      10.889  13.359  17.862  0.00  0.00    +0.000 A 
ATOM     24  C   UNL     1      11.550  12.300  18.476  0.00  0.00    +0.000 A 
ATOM     25  C   UNL     1      10.862  11.116  18.748  0.00  0.00    +0.000 A 
ENDBRANCH  19  20
ENDBRANCH  16  18
ENDBRANCH  14  17
ENDBRANCH   1  14
TORSDOF 4
ENDMDL
MODEL 8
REMARK VINA RESULT:      -7.8      5.267      7.449
REMARK  Name = 
REMARK  4 active torsions:
REMARK  status: ('A' for Active; 'I' for Inactive)
REMARK    1  A    between atoms: C_1  and  C_9
REMARK    2  A    between atoms: C_2  and  C_3
REMARK    3  A    between atoms: N_10  and  N_11
REMARK    4  A    between atoms: N_11  and  C_12
REMARK                            x       y       z     vdW  Elec       q    Type
REMARK                         _______ _______ _______ _____ _____    ______ ____
ROOT
ATOM      1  C   UNL     1       6.650   5.782  16.896  0.00  0.00    +0.000 A 
ATOM      2  N   UNL     1       7.411   5.623  15.776  0.00  0.00    +0.000 NA
ATOM      3  C   UNL     1       7.013   4.787  14.818  0.00  0.00    +0.000 A 
ATOM      4  N   UNL     1       5.929   4.017  14.821  0.00  0.00    +0.000 NA
ATOM      5  C   UNL     1       5.195   4.172  15.934  0.00  0.00    +0.000 A 
ATOM      6  S   UNL     1       3.757   3.279  16.127  0.00  0.00    +0.000 S 
ATOM      7  C   UNL     1       3.419   4.030  17.610  0.00  0.00    +0.000 A 
ATOM      8  C   UNL     1       4.401   4.927  17.995  0.00  0.00    +0.000 A 
ATOM      9  C   UNL     1       5.461   5.019  17.006  0.00  0.00    +0.000 A 
ATOM     10  C   UNL     1       4.267   5.718  19.266  0.00  0.00    +0.000 C 
ATOM     11  C   UNL     1       3.168   5.176  20.192  0.00  0.00    +0.000 C 
ATOM     12  C   UNL     1       1.897   4.805  19.420  0.00  0.00    +0.000 C 
ATOM     13  C   UNL     1       2.180   3.705  18.388  0.00  0.00    +0.000 C 
ENDROOT
BRANCH   1  14
ATOM     14  N   UNL     1       7.082   6.698  17.883  0.00  0.00    +0.000 N 
ATOM     15  H   UNL     1       6.478   6.725  18.693  0.00  0.00    +0.000 HD
BRANCH  14  17
ATOM     16  C   UNL     1       8.156   8.643  18.268  0.00  0.00    +0.000 C 
ATOM     17  N   UNL     1       7.573   7.874  17.410  0.00  0.00    +0.000 NA
BRANCH  16  18
ATOM     18  C   UNL     1       8.701   9.933  17.807  0.00  0.00    +0.000 C 
ATOM     19  C   UNL     1       9.460  10.710  18.590  0.00  0.00    +0.000 C 
BRANCH  19  20
ATOM     20  C   UNL     1      10.008  11.998  18.132  0.00  0.00    +0.000 A 
ATOM     21  C   UNL     1       9.264  13.168  18.326  0.00  0.00    +0.000 A 
ATOM     22  C   UNL     1       9.751  14.405  17.887  0.00  0.00    +0.000 A 
ATOM     23  C   UNL     1      10.993  14.483  17.263  0.00  0.00    +0.000 A 
ATOM     24  C   UNL     1      11.759  13.334  17.090  0.00  0.00    +0.000 A 
ATOM     25  C   UNL     1      11.272  12.102  17.529  0.00  0.00    +0.000 A 
ENDBRANCH  19  20
ENDBRANCH  16  18
ENDBRANCH  14  17
ENDBRANCH   1  14
TORSDOF 4
ENDMDL
MODEL 9
REMARK VINA RESULT:      -7.7      3.366      8.563
REMARK  Name = 
REMARK  4 active torsions:
REMARK  status: ('A' for Active; 'I' for Inactive)
REMARK    1  A    between atoms: C_1  and  C_9
REMARK    2  A    between atoms: C_2  and  C_3
REMARK    3  A    between atoms: N_10  and  N_11
REMARK    4  A    between atoms: N_11  and  C_12
REMARK                            x       y       z     vdW  Elec       q    Type
REMARK                         _______ _______ _______ _____ _____    ______ ____
ROOT
ATOM      1  C   UNL     1       0.479  10.761  18.893  0.00  0.00    +0.000 A 
ATOM      2  N   UNL     1       1.240  10.980  20.002  0.00  0.00    +0.000 NA
ATOM      3  C   UNL     1       0.703  11.577  21.066  0.00  0.00    +0.000 A 
ATOM      4  N   UNL     1      -0.536  12.045  21.187  0.00  0.00    +0.000 NA
ATOM      5  C   UNL     1      -1.271  11.835  20.083  0.00  0.00    +0.000 A 
ATOM      6  S   UNL     1      -2.893  12.353  20.039  0.00  0.00    +0.000 S 
ATOM      7  C   UNL     1      -3.119  11.713  18.486  0.00  0.00    +0.000 A 
ATOM      8  C   UNL     1      -1.970  11.140  17.968  0.00  0.00    +0.000 A 
ATOM      9  C   UNL     1      -0.865  11.207  18.909  0.00  0.00    +0.000 A 
ATOM     10  C   UNL     1      -1.976  10.487  16.614  0.00  0.00    +0.000 C 
ATOM     11  C   UNL     1      -3.226  10.835  15.790  0.00  0.00    +0.000 C 
ATOM     12  C   UNL     1      -4.502  10.786  16.636  0.00  0.00    +0.000 C 
ATOM     13  C   UNL     1      -4.442  11.799  17.787  0.00  0.00    +0.000 C 
ENDROOT
BRANCH   1  14
ATOM     14  N   UNL     1       1.067  10.099  17.790  0.00  0.00    +0.000 N 
ATOM     15  H   UNL     1       0.693  10.399  16.900  0.00  0.00    +0.000 HD
BRANCH  14  17
ATOM     16  C   UNL     1       2.543   8.396  17.874  0.00  0.00    +0.000 C 
ATOM     17  N   UNL     1       1.312   8.774  17.969  0.00  0.00    +0.000 NA
BRANCH  16  18
ATOM     18  C   UNL     1       2.861   6.968  18.055  0.00  0.00    +0.000 C 
ATOM     19  C   UNL     1       1.956   6.002  17.850  0.00  0.00    +0.000 C 
BRANCH  19  20
ATOM     20  C   UNL     1       2.270   4.574  18.026  0.00  0.00    +0.000 A 
ATOM     21  C   UNL     1       3.494   4.079  17.557  0.00  0.00    +0.000 A 
ATOM     22  C   UNL     1       3.815   2.724  17.695  0.00  0.00    +0.000 A 
ATOM     23  C   UNL     1       2.921   1.856  18.316  0.00  0.00    +0.000 A 
ATOM     24  C   UNL     1       1.715   2.337  18.814  0.00  0.00    +0.000 A 
ATOM     25  C   UNL     1       1.396   3.689  18.677  0.00  0.00    +0.000 A 
ENDBRANCH  19  20
ENDBRANCH  16  18
ENDBRANCH  14  17
ENDBRANCH   1  14
TORSDOF 4
ENDMDL
