MODEL 1
REMARK VINA RESULT:      -6.8      0.000      0.000
REMARK  Name = 
REMARK  4 active torsions:
REMARK  status: ('A' for Active; 'I' for Inactive)
REMARK    1  A    between atoms: C_2  and  C_3
REMARK    2  A    between atoms: C_3  and  C_4
REMARK    3  A    between atoms: C_5  and  O_6
REMARK    4  A    between atoms: O_6  and  C_7
REMARK                            x       y       z     vdW  Elec       q    Type
REMARK                         _______ _______ _______ _____ _____    ______ ____
ROOT
ATOM      1  C   UNL     1       6.441   5.657  17.316  0.00  0.00    +0.000 A 
ATOM      2  C   UNL     1       5.350   5.205  18.080  0.00  0.00    +0.000 A 
ATOM      3  C   UNL     1       4.387   4.371  17.472  0.00  0.00    +0.000 A 
ATOM      4  C   UNL     1       4.485   3.957  16.141  0.00  0.00    +0.000 A 
ATOM      5  C   UNL     1       5.559   4.382  15.375  0.00  0.00    +0.000 A 
ATOM      6  C   UNL     1       5.730   3.958  13.994  0.00  0.00    +0.000 A 
ATOM      7  C   UNL     1       6.768   4.408  13.283  0.00  0.00    +0.000 A 
ATOM      8  C   UNL     1       7.759   5.338  13.844  0.00  0.00    +0.000 A 
ATOM      9  O   UNL     1       8.677   5.773  13.159  0.00  0.00    +0.000 OA
ATOM     10  O   UNL     1       7.595   5.682  15.176  0.00  0.00    +0.000 OA
ATOM     11  C   UNL     1       6.503   5.224  15.965  0.00  0.00    +0.000 A 
ENDROOT
BRANCH   2  12
ATOM     12  O   UNL     1       5.016   5.418  19.386  0.00  0.00    +0.000 OA
ATOM     13  C   UNL     1       3.688   5.322  19.856  0.00  0.00    +0.000 C 
ENDBRANCH   2  12
BRANCH   1  14
ATOM     14  C   UNL     1       7.595   6.503  17.810  0.00  0.00    +0.000 C 
BRANCH  14  16
ATOM     15  C   UNL     1       8.211   8.935  17.958  0.00  0.00    +0.000 C 
ATOM     16  C   UNL     1       7.371   7.971  17.563  0.00  0.00    +0.000 C 
ENDBRANCH  14  16
ENDBRANCH   1  14
TORSDOF 3
ENDMDL
MODEL 2
REMARK VINA RESULT:      -6.6      2.326      4.337
REMARK  Name = 
REMARK  4 active torsions:
REMARK  status: ('A' for Active; 'I' for Inactive)
REMARK    1  A    between atoms: C_2  and  C_3
REMARK    2  A    between atoms: C_3  and  C_4
REMARK    3  A    between atoms: C_5  and  O_6
REMARK    4  A    between atoms: O_6  and  C_7
REMARK                            x       y       z     vdW  Elec       q    Type
REMARK                         _______ _______ _______ _____ _____    ______ ____
ROOT
ATOM      1  C   UNL     1       3.535   4.008  17.887  0.00  0.00    +0.000 A 
ATOM      2  C   UNL     1       2.350   4.647  18.296  0.00  0.00    +0.000 A 
ATOM      3  C   UNL     1       2.319   6.057  18.362  0.00  0.00    +0.000 A 
ATOM      4  C   UNL     1       3.416   6.849  18.015  0.00  0.00    +0.000 A 
ATOM      5  C   UNL     1       4.589   6.239  17.599  0.00  0.00    +0.000 A 
ATOM      6  C   UNL     1       5.753   7.012  17.196  0.00  0.00    +0.000 A 
ATOM      7  C   UNL     1       6.873   6.386  16.823  0.00  0.00    +0.000 A 
ATOM      8  C   UNL     1       6.984   4.920  16.808  0.00  0.00    +0.000 A 
ATOM      9  O   UNL     1       8.035   4.368  16.505  0.00  0.00    +0.000 OA
ATOM     10  O   UNL     1       5.842   4.213  17.148  0.00  0.00    +0.000 OA
ATOM     11  C   UNL     1       4.633   4.845  17.553  0.00  0.00    +0.000 A 
ENDROOT
BRANCH   2  12
ATOM     12  O   UNL     1       1.134   4.142  18.659  0.00  0.00    +0.000 OA
ATOM     13  C   UNL     1       0.824   3.792  19.990  0.00  0.00    +0.000 C 
ENDBRANCH   2  12
BRANCH   1  14
ATOM     14  C   UNL     1       3.735   2.520  17.701  0.00  0.00    +0.000 C 
BRANCH  14  16
ATOM     15  C   UNL     1       4.378   2.272  20.118  0.00  0.00    +0.000 C 
ATOM     16  C   UNL     1       3.800   1.786  19.014  0.00  0.00    +0.000 C 
ENDBRANCH  14  16
ENDBRANCH   1  14
TORSDOF 3
ENDMDL
MODEL 3
REMARK VINA RESULT:      -6.6      2.550      4.451
REMARK  Name = 
REMARK  4 active torsions:
REMARK  status: ('A' for Active; 'I' for Inactive)
REMARK    1  A    between atoms: C_2  and  C_3
REMARK    2  A    between atoms: C_3  and  C_4
REMARK    3  A    between atoms: C_5  and  O_6
REMARK    4  A    between atoms: O_6  and  C_7
REMARK                            x       y       z     vdW  Elec       q    Type
REMARK                         _______ _______ _______ _____ _____    ______ ____
ROOT
ATOM      1  C   UNL     1       4.032   4.289  19.414  0.00  0.00    +0.000 A 
ATOM      2  C   UNL     1       2.823   4.967  19.655  0.00  0.00    +0.000 A 
ATOM      3  C   UNL     1       2.592   6.205  19.016  0.00  0.00    +0.000 A 
ATOM      4  C   UNL     1       3.510   6.775  18.131  0.00  0.00    +0.000 A 
ATOM      5  C   UNL     1       4.702   6.117  17.871  0.00  0.00    +0.000 A 
ATOM      6  C   UNL     1       5.682   6.648  16.936  0.00  0.00    +0.000 A 
ATOM      7  C   UNL     1       6.828   5.994  16.729  0.00  0.00    +0.000 A 
ATOM      8  C   UNL     1       7.152   4.740  17.426  0.00  0.00    +0.000 A 
ATOM      9  O   UNL     1       8.229   4.181  17.255  0.00  0.00    +0.000 OA
ATOM     10  O   UNL     1       6.177   4.236  18.271  0.00  0.00    +0.000 OA
ATOM     11  C   UNL     1       4.946   4.904  18.517  0.00  0.00    +0.000 A 
ENDROOT
BRANCH   2  12
ATOM     12  O   UNL     1       1.748   4.643  20.432  0.00  0.00    +0.000 OA
ATOM     13  C   UNL     1       0.781   3.695  20.034  0.00  0.00    +0.000 C 
ENDBRANCH   2  12
BRANCH   1  14
ATOM     14  C   UNL     1       4.427   2.935  19.960  0.00  0.00    +0.000 C 
BRANCH  14  16
ATOM     15  C   UNL     1       3.359   1.876  17.946  0.00  0.00    +0.000 C 
ATOM     16  C   UNL     1       3.759   1.806  19.220  0.00  0.00    +0.000 C 
ENDBRANCH  14  16
ENDBRANCH   1  14
TORSDOF 3
ENDMDL
MODEL 4
REMARK VINA RESULT:      -6.5      2.439      4.437
REMARK  Name = 
REMARK  4 active torsions:
REMARK  status: ('A' for Active; 'I' for Inactive)
REMARK    1  A    between atoms: C_2  and  C_3
REMARK    2  A    between atoms: C_3  and  C_4
REMARK    3  A    between atoms: C_5  and  O_6
REMARK    4  A    between atoms: O_6  and  C_7
REMARK                            x       y       z     vdW  Elec       q    Type
REMARK                         _______ _______ _______ _____ _____    ______ ____
ROOT
ATOM      1  C   UNL     1       2.859   3.874  17.992  0.00  0.00    +0.000 A 
ATOM      2  C   UNL     1       2.111   4.634  18.909  0.00  0.00    +0.000 A 
ATOM      3  C   UNL     1       2.356   6.022  19.010  0.00  0.00    +0.000 A 
ATOM      4  C   UNL     1       3.300   6.677  18.215  0.00  0.00    +0.000 A 
ATOM      5  C   UNL     1       4.039   5.947  17.297  0.00  0.00    +0.000 A 
ATOM      6  C   UNL     1       5.013   6.580  16.422  0.00  0.00    +0.000 A 
ATOM      7  C   UNL     1       5.721   5.838  15.566  0.00  0.00    +0.000 A 
ATOM      8  C   UNL     1       5.560   4.379  15.473  0.00  0.00    +0.000 A 
ATOM      9  O   UNL     1       6.252   3.713  14.713  0.00  0.00    +0.000 OA
ATOM     10  O   UNL     1       4.589   3.815  16.285  0.00  0.00    +0.000 OA
ATOM     11  C   UNL     1       3.817   4.572  17.209  0.00  0.00    +0.000 A 
ENDROOT
BRANCH   2  12
ATOM     12  O   UNL     1       1.120   4.278  19.778  0.00  0.00    +0.000 OA
ATOM     13  C   UNL     1       1.383   3.652  21.015  0.00  0.00    +0.000 C 
ENDBRANCH   2  12
BRANCH   1  14
ATOM     14  C   UNL     1       2.696   2.398  17.706  0.00  0.00    +0.000 C 
BRANCH  14  16
ATOM     15  C   UNL     1       4.333   2.007  19.573  0.00  0.00    +0.000 C 
ATOM     16  C   UNL     1       3.434   1.540  18.700  0.00  0.00    +0.000 C 
ENDBRANCH  14  16
ENDBRANCH   1  14
TORSDOF 3
ENDMDL
MODEL 5
REMARK VINA RESULT:      -6.5      2.230      4.925
REMARK  Name = 
REMARK  4 active torsions:
REMARK  status: ('A' for Active; 'I' for Inactive)
REMARK    1  A    between atoms: C_2  and  C_3
REMARK    2  A    between atoms: C_3  and  C_4
REMARK    3  A    between atoms: C_5  and  O_6
REMARK    4  A    between atoms: O_6  and  C_7
REMARK                            x       y       z     vdW  Elec       q    Type
REMARK                         _______ _______ _______ _____ _____    ______ ____
ROOT
ATOM      1  C   UNL     1       5.424   5.300  17.080  0.00  0.00    +0.000 A 
ATOM      2  C   UNL     1       5.487   6.705  17.063  0.00  0.00    +0.000 A 
ATOM      3  C   UNL     1       4.356   7.446  17.472  0.00  0.00    +0.000 A 
ATOM      4  C   UNL     1       3.180   6.838  17.915  0.00  0.00    +0.000 A 
ATOM      5  C   UNL     1       3.102   5.454  17.950  0.00  0.00    +0.000 A 
ATOM      6  C   UNL     1       1.915   4.766  18.431  0.00  0.00    +0.000 A 
ATOM      7  C   UNL     1       1.871   3.431  18.428  0.00  0.00    +0.000 A 
ATOM      8  C   UNL     1       2.992   2.611  17.943  0.00  0.00    +0.000 A 
ATOM      9  O   UNL     1       2.912   1.389  17.907  0.00  0.00    +0.000 OA
ATOM     10  O   UNL     1       4.126   3.296  17.539  0.00  0.00    +0.000 OA
ATOM     11  C   UNL     1       4.209   4.716  17.527  0.00  0.00    +0.000 A 
ENDROOT
BRANCH   2  12
ATOM     12  O   UNL     1       6.495   7.558  16.715  0.00  0.00    +0.000 OA
ATOM     13  C   UNL     1       7.631   7.764  17.527  0.00  0.00    +0.000 C 
ENDBRANCH   2  12
BRANCH   1  14
ATOM     14  C   UNL     1       6.547   4.346  16.736  0.00  0.00    +0.000 C 
BRANCH  14  16
ATOM     15  C   UNL     1       6.054   4.089  14.285  0.00  0.00    +0.000 C 
ATOM     16  C   UNL     1       6.904   4.390  15.274  0.00  0.00    +0.000 C 
ENDBRANCH  14  16
ENDBRANCH   1  14
TORSDOF 3
ENDMDL
MODEL 6
REMARK VINA RESULT:      -6.5      1.978      4.999
REMARK  Name = 
REMARK  4 active torsions:
REMARK  status: ('A' for Active; 'I' for Inactive)
REMARK    1  A    between atoms: C_2  and  C_3
REMARK    2  A    between atoms: C_3  and  C_4
REMARK    3  A    between atoms: C_5  and  O_6
REMARK    4  A    between atoms: O_6  and  C_7
REMARK                            x       y       z     vdW  Elec       q    Type
REMARK                         _______ _______ _______ _____ _____    ______ ____
ROOT
ATOM      1  C   UNL     1       5.760   5.305  16.675  0.00  0.00    +0.000 A 
ATOM      2  C   UNL     1       6.753   6.087  17.292  0.00  0.00    +0.000 A 
ATOM      3  C   UNL     1       6.938   5.983  18.689  0.00  0.00    +0.000 A 
ATOM      4  C   UNL     1       6.185   5.114  19.482  0.00  0.00    +0.000 A 
ATOM      5  C   UNL     1       5.209   4.327  18.890  0.00  0.00    +0.000 A 
ATOM      6  C   UNL     1       4.416   3.382  19.661  0.00  0.00    +0.000 A 
ATOM      7  C   UNL     1       3.470   2.657  19.057  0.00  0.00    +0.000 A 
ATOM      8  C   UNL     1       3.186   2.781  17.620  0.00  0.00    +0.000 A 
ATOM      9  O   UNL     1       2.283   2.139  17.096  0.00  0.00    +0.000 OA
ATOM     10  O   UNL     1       3.993   3.652  16.906  0.00  0.00    +0.000 OA
ATOM     11  C   UNL     1       5.008   4.441  17.514  0.00  0.00    +0.000 A 
ENDROOT
BRANCH   2  12
ATOM     12  O   UNL     1       7.644   6.984  16.776  0.00  0.00    +0.000 OA
ATOM     13  C   UNL     1       7.962   8.197  17.424  0.00  0.00    +0.000 C 
ENDBRANCH   2  12
BRANCH   1  14
ATOM     14  C   UNL     1       5.460   5.240  15.193  0.00  0.00    +0.000 C 
BRANCH  14  16
ATOM     15  C   UNL     1       6.111   3.763  13.267  0.00  0.00    +0.000 C 
ATOM     16  C   UNL     1       6.375   4.289  14.468  0.00  0.00    +0.000 C 
ENDBRANCH  14  16
ENDBRANCH   1  14
TORSDOF 3
ENDMDL
MODEL 7
REMARK VINA RESULT:      -6.4      0.832      1.146
REMARK  Name = 
REMARK  4 active torsions:
REMARK  status: ('A' for Active; 'I' for Inactive)
REMARK    1  A    between atoms: C_2  and  C_3
REMARK    2  A    between atoms: C_3  and  C_4
REMARK    3  A    between atoms: C_5  and  O_6
REMARK    4  A    between atoms: O_6  and  C_7
REMARK                            x       y       z     vdW  Elec       q    Type
REMARK                         _______ _______ _______ _____ _____    ______ ____
ROOT
ATOM      1  C   UNL     1       5.843   6.060  17.279  0.00  0.00    +0.000 A 
ATOM      2  C   UNL     1       4.783   5.590  18.076  0.00  0.00    +0.000 A 
ATOM      3  C   UNL     1       4.023   4.488  17.624  0.00  0.00    +0.000 A 
ATOM      4  C   UNL     1       4.296   3.829  16.423  0.00  0.00    +0.000 A 
ATOM      5  C   UNL     1       5.344   4.271  15.630  0.00  0.00    +0.000 A 
ATOM      6  C   UNL     1       5.694   3.605  14.385  0.00  0.00    +0.000 A 
ATOM      7  C   UNL     1       6.697   4.074  13.637  0.00  0.00    +0.000 A 
ATOM      8  C   UNL     1       7.473   5.263  14.023  0.00  0.00    +0.000 A 
ATOM      9  O   UNL     1       8.359   5.702  13.300  0.00  0.00    +0.000 OA
ATOM     10  O   UNL     1       7.147   5.842  15.239  0.00  0.00    +0.000 OA
ATOM     11  C   UNL     1       6.085   5.372  16.060  0.00  0.00    +0.000 A 
ENDROOT
BRANCH   2  12
ATOM     12  O   UNL     1       4.313   6.008  19.288  0.00  0.00    +0.000 OA
ATOM     13  C   UNL     1       2.968   5.837  19.681  0.00  0.00    +0.000 C 
ENDBRANCH   2  12
BRANCH   1  14
ATOM     14  C   UNL     1       6.797   7.182  17.625  0.00  0.00    +0.000 C 
BRANCH  14  16
ATOM     15  C   UNL     1       7.872   5.624  19.278  0.00  0.00    +0.000 C 
ATOM     16  C   UNL     1       7.922   6.720  18.513  0.00  0.00    +0.000 C 
ENDBRANCH  14  16
ENDBRANCH   1  14
TORSDOF 3
ENDMDL
MODEL 8
REMARK VINA RESULT:      -6.4      4.038      6.449
REMARK  Name = 
REMARK  4 active torsions:
REMARK  status: ('A' for Active; 'I' for Inactive)
REMARK    1  A    between atoms: C_2  and  C_3
REMARK    2  A    between atoms: C_3  and  C_4
REMARK    3  A    between atoms: C_5  and  O_6
REMARK    4  A    between atoms: O_6  and  C_7
REMARK                            x       y       z     vdW  Elec       q    Type
REMARK                         _______ _______ _______ _____ _____    ______ ____
ROOT
ATOM      1  C   UNL     1       3.023   4.742  19.762  0.00  0.00    +0.000 A 
ATOM      2  C   UNL     1       3.817   3.911  18.952  0.00  0.00    +0.000 A 
ATOM      3  C   UNL     1       4.306   4.413  17.726  0.00  0.00    +0.000 A 
ATOM      4  C   UNL     1       4.052   5.717  17.294  0.00  0.00    +0.000 A 
ATOM      5  C   UNL     1       3.282   6.556  18.084  0.00  0.00    +0.000 A 
ATOM      6  C   UNL     1       3.010   7.932  17.701  0.00  0.00    +0.000 A 
ATOM      7  C   UNL     1       2.244   8.702  18.480  0.00  0.00    +0.000 A 
ATOM      8  C   UNL     1       1.647   8.206  19.729  0.00  0.00    +0.000 A 
ATOM      9  O   UNL     1       0.911   8.916  20.404  0.00  0.00    +0.000 OA
ATOM     10  O   UNL     1       1.967   6.907  20.090  0.00  0.00    +0.000 OA
ATOM     11  C   UNL     1       2.777   6.058  19.286  0.00  0.00    +0.000 A 
ENDROOT
BRANCH   2  12
ATOM     12  O   UNL     1       4.247   2.626  19.127  0.00  0.00    +0.000 OA
ATOM     13  C   UNL     1       3.611   1.523  18.519  0.00  0.00    +0.000 C 
ENDBRANCH   2  12
BRANCH   1  14
ATOM     14  C   UNL     1       2.464   4.399  21.125  0.00  0.00    +0.000 C 
BRANCH  14  16
ATOM     15  C   UNL     1       0.597   3.134  20.015  0.00  0.00    +0.000 C 
ATOM     16  C   UNL     1       1.417   3.319  21.056  0.00  0.00    +0.000 C 
ENDBRANCH  14  16
ENDBRANCH   1  14
TORSDOF 3
ENDMDL
MODEL 9
REMARK VINA RESULT:      -6.3      2.280      3.622
REMARK  Name = 
REMARK  4 active torsions:
REMARK  status: ('A' for Active; 'I' for Inactive)
REMARK    1  A    between atoms: C_2  and  C_3
REMARK    2  A    between atoms: C_3  and  C_4
REMARK    3  A    between atoms: C_5  and  O_6
REMARK    4  A    between atoms: O_6  and  C_7
REMARK                            x       y       z     vdW  Elec       q    Type
REMARK                         _______ _______ _______ _____ _____    ______ ____
ROOT
ATOM      1  C   UNL     1       3.189   5.458  18.432  0.00  0.00    +0.000 A 
ATOM      2  C   UNL     1       2.321   4.352  18.389  0.00  0.00    +0.000 A 
ATOM      3  C   UNL     1       2.657   3.250  17.573  0.00  0.00    +0.000 A 
ATOM      4  C   UNL     1       3.833   3.203  16.821  0.00  0.00    +0.000 A 
ATOM      5  C   UNL     1       4.707   4.278  16.859  0.00  0.00    +0.000 A 
ATOM      6  C   UNL     1       5.961   4.272  16.122  0.00  0.00    +0.000 A 
ATOM      7  C   UNL     1       6.766   5.337  16.168  0.00  0.00    +0.000 A 
ATOM      8  C   UNL     1       6.429   6.542  16.942  0.00  0.00    +0.000 A 
ATOM      9  O   UNL     1       7.161   7.524  16.933  0.00  0.00    +0.000 OA
ATOM     10  O   UNL     1       5.253   6.495  17.673  0.00  0.00    +0.000 OA
ATOM     11  C   UNL     1       4.370   5.380  17.647  0.00  0.00    +0.000 A 
ENDROOT
BRANCH   2  12
ATOM     12  O   UNL     1       1.139   4.109  19.028  0.00  0.00    +0.000 OA
ATOM     13  C   UNL     1       1.075   3.513  20.306  0.00  0.00    +0.000 C 
ENDBRANCH   2  12
BRANCH   1  14
ATOM     14  C   UNL     1       3.026   6.695  19.288  0.00  0.00    +0.000 C 
BRANCH  14  16
ATOM     15  C   UNL     1       2.420   8.568  17.725  0.00  0.00    +0.000 C 
ATOM     16  C   UNL     1       2.077   7.691  18.675  0.00  0.00    +0.000 C 
ENDBRANCH  14  16
ENDBRANCH   1  14
TORSDOF 3
ENDMDL
