MODEL 1
REMARK VINA RESULT:      -6.7      0.000      0.000
REMARK  Name = 
REMARK  4 active torsions:
REMARK  status: ('A' for Active; 'I' for Inactive)
REMARK    1  A    between atoms: C_1  and  N_2
REMARK    2  A    between atoms: C_5  and  C_6
REMARK    3  A    between atoms: C_9  and  O_10
REMARK    4  A    between atoms: N_14  and  C_15
REMARK                            x       y       z     vdW  Elec       q    Type
REMARK                         _______ _______ _______ _____ _____    ______ ____
ROOT
ATOM      1  C   UNL     1       5.949   5.212  14.305  0.00  0.00    +0.000 C 
ATOM      2  N   UNL     1       6.486   5.773  15.582  0.00  0.00    +0.000 NA
ATOM      3  C   UNL     1       7.082   4.502  16.102  0.00  0.00    +0.000 C 
ATOM      4  C   UNL     1       7.416   4.688  17.503  0.00  0.00    +0.000 C 
ATOM      5  C   UNL     1       6.124   5.105  18.185  0.00  0.00    +0.000 C 
ATOM      6  C   UNL     1       6.816   5.292  19.620  0.00  0.00    +0.000 C 
ATOM      7  C   UNL     1       4.372   4.317  18.766  0.00  0.00    +0.000 A 
ATOM      8  C   UNL     1       4.239   3.004  19.072  0.00  0.00    +0.000 A 
ATOM      9  C   UNL     1       2.926   2.589  18.777  0.00  0.00    +0.000 A 
ATOM     10  C   UNL     1       1.809   3.373  18.142  0.00  0.00    +0.000 A 
ATOM     11  C   UNL     1       1.755   4.778  17.832  0.00  0.00    +0.000 A 
ATOM     12  C   UNL     1       2.927   5.387  18.201  0.00  0.00    +0.000 A 
ATOM     13  N   UNL     1       3.573   6.879  17.119  0.00  0.00    +0.000 N 
ATOM     14  C   UNL     1       2.986   8.111  17.790  0.00  0.00    +0.000 C 
ATOM     15  C   UNL     1       5.599   6.614  16.844  0.00  0.00    +0.000 C 
ENDROOT
BRANCH   9  16
ATOM     16  O   UNL     1       2.626   1.263  19.033  0.00  0.00    +0.000 OA
ATOM     17  H   UNL     1       3.040   0.739  18.323  0.00  0.00    +0.000 HD
ENDBRANCH   9  16
TORSDOF 1
ENDMDL
MODEL 2
REMARK VINA RESULT:      -6.3      2.620      4.150
REMARK  Name = 
REMARK  4 active torsions:
REMARK  status: ('A' for Active; 'I' for Inactive)
REMARK    1  A    between atoms: C_1  and  N_2
REMARK    2  A    between atoms: C_5  and  C_6
REMARK    3  A    between atoms: C_9  and  O_10
REMARK    4  A    between atoms: N_14  and  C_15
REMARK                            x       y       z     vdW  Elec       q    Type
REMARK                         _______ _______ _______ _____ _____    ______ ____
ROOT
ATOM      1  C   UNL     1       7.897   5.552  20.018  0.00  0.00    +0.000 C 
ATOM      2  N   UNL     1       7.572   5.182  18.607  0.00  0.00    +0.000 NA
ATOM      3  C   UNL     1       7.518   6.575  18.061  0.00  0.00    +0.000 C 
ATOM      4  C   UNL     1       6.908   6.532  16.745  0.00  0.00    +0.000 C 
ATOM      5  C   UNL     1       5.551   5.876  16.937  0.00  0.00    +0.000 C 
ATOM      6  C   UNL     1       5.192   5.912  15.374  0.00  0.00    +0.000 C 
ATOM      7  C   UNL     1       3.741   6.289  17.700  0.00  0.00    +0.000 A 
ATOM      8  C   UNL     1       3.263   7.555  17.774  0.00  0.00    +0.000 A 
ATOM      9  C   UNL     1       2.394   7.660  18.877  0.00  0.00    +0.000 A 
ATOM     10  C   UNL     1       2.058   6.622  19.914  0.00  0.00    +0.000 A 
ATOM     11  C   UNL     1       2.410   5.226  19.941  0.00  0.00    +0.000 A 
ATOM     12  C   UNL     1       3.151   4.905  18.833  0.00  0.00    +0.000 A 
ATOM     13  N   UNL     1       4.537   3.540  19.013  0.00  0.00    +0.000 N 
ATOM     14  C   UNL     1       3.836   2.244  18.640  0.00  0.00    +0.000 C 
ATOM     15  C   UNL     1       6.214   4.227  18.030  0.00  0.00    +0.000 C 
ENDROOT
BRANCH   9  16
ATOM     16  O   UNL     1       1.819   8.898  19.094  0.00  0.00    +0.000 OA
ATOM     17  H   UNL     1       2.068   9.170  19.997  0.00  0.00    +0.000 HD
ENDBRANCH   9  16
TORSDOF 1
ENDMDL
MODEL 3
REMARK VINA RESULT:      -5.5      7.390      9.311
REMARK  Name = 
REMARK  4 active torsions:
REMARK  status: ('A' for Active; 'I' for Inactive)
REMARK    1  A    between atoms: C_1  and  N_2
REMARK    2  A    between atoms: C_5  and  C_6
REMARK    3  A    between atoms: C_9  and  O_10
REMARK    4  A    between atoms: N_14  and  C_15
REMARK                            x       y       z     vdW  Elec       q    Type
REMARK                         _______ _______ _______ _____ _____    ______ ____
ROOT
ATOM      1  C   UNL     1      -3.992  11.517  17.972  0.00  0.00    +0.000 C 
ATOM      2  N   UNL     1      -2.592  11.434  17.458  0.00  0.00    +0.000 NA
ATOM      3  C   UNL     1      -2.400   9.967  17.690  0.00  0.00    +0.000 C 
ATOM      4  C   UNL     1      -0.987   9.660  17.559  0.00  0.00    +0.000 C 
ATOM      5  C   UNL     1      -0.273  10.557  18.557  0.00  0.00    +0.000 C 
ATOM      6  C   UNL     1       1.188  10.051  18.129  0.00  0.00    +0.000 C 
ATOM      7  C   UNL     1       0.007  10.730  20.537  0.00  0.00    +0.000 A 
ATOM      8  C   UNL     1      -0.049   9.662  21.368  0.00  0.00    +0.000 A 
ATOM      9  C   UNL     1      -0.497  10.081  22.635  0.00  0.00    +0.000 A 
ATOM     10  C   UNL     1      -0.949  11.450  23.069  0.00  0.00    +0.000 A 
ATOM     11  C   UNL     1      -0.880  12.694  22.349  0.00  0.00    +0.000 A 
ATOM     12  C   UNL     1      -0.316  12.494  21.115  0.00  0.00    +0.000 A 
ATOM     13  N   UNL     1      -0.940  13.591  19.625  0.00  0.00    +0.000 N 
ATOM     14  C   UNL     1       0.006  14.780  19.613  0.00  0.00    +0.000 C 
ATOM     15  C   UNL     1      -1.191  12.345  18.000  0.00  0.00    +0.000 C 
ENDROOT
BRANCH   9  16
ATOM     16  O   UNL     1      -0.611   9.102  23.605  0.00  0.00    +0.000 OA
ATOM     17  H   UNL     1      -1.562   9.009  23.800  0.00  0.00    +0.000 HD
ENDBRANCH   9  16
TORSDOF 1
ENDMDL
MODEL 4
REMARK VINA RESULT:      -5.4      2.407      5.088
REMARK  Name = 
REMARK  4 active torsions:
REMARK  status: ('A' for Active; 'I' for Inactive)
REMARK    1  A    between atoms: C_1  and  N_2
REMARK    2  A    between atoms: C_5  and  C_6
REMARK    3  A    between atoms: C_9  and  O_10
REMARK    4  A    between atoms: N_14  and  C_15
REMARK                            x       y       z     vdW  Elec       q    Type
REMARK                         _______ _______ _______ _____ _____    ______ ____
ROOT
ATOM      1  C   UNL     1       3.343   2.551  19.618  0.00  0.00    +0.000 C 
ATOM      2  N   UNL     1       3.231   4.040  19.676  0.00  0.00    +0.000 NA
ATOM      3  C   UNL     1       2.300   4.197  18.514  0.00  0.00    +0.000 C 
ATOM      4  C   UNL     1       2.259   5.600  18.142  0.00  0.00    +0.000 C 
ATOM      5  C   UNL     1       3.698   5.997  17.858  0.00  0.00    +0.000 C 
ATOM      6  C   UNL     1       3.331   7.531  17.566  0.00  0.00    +0.000 C 
ATOM      7  C   UNL     1       5.116   5.728  16.464  0.00  0.00    +0.000 A 
ATOM      8  C   UNL     1       4.814   5.476  15.167  0.00  0.00    +0.000 A 
ATOM      9  C   UNL     1       5.835   4.693  14.595  0.00  0.00    +0.000 A 
ATOM     10  C   UNL     1       7.055   4.108  15.254  0.00  0.00    +0.000 A 
ATOM     11  C   UNL     1       7.563   4.339  16.581  0.00  0.00    +0.000 A 
ATOM     12  C   UNL     1       6.752   5.220  17.249  0.00  0.00    +0.000 A 
ATOM     13  N   UNL     1       6.534   4.994  19.177  0.00  0.00    +0.000 N 
ATOM     14  C   UNL     1       7.612   5.880  19.782  0.00  0.00    +0.000 C 
ATOM     15  C   UNL     1       4.530   5.220  19.606  0.00  0.00    +0.000 C 
ENDROOT
BRANCH   9  16
ATOM     16  O   UNL     1       5.675   4.345  13.266  0.00  0.00    +0.000 OA
ATOM     17  H   UNL     1       4.718   4.224  13.120  0.00  0.00    +0.000 HD
ENDBRANCH   9  16
TORSDOF 1
ENDMDL
MODEL 5
REMARK VINA RESULT:      -5.3      7.603      9.986
REMARK  Name = 
REMARK  4 active torsions:
REMARK  status: ('A' for Active; 'I' for Inactive)
REMARK    1  A    between atoms: C_1  and  N_2
REMARK    2  A    between atoms: C_5  and  C_6
REMARK    3  A    between atoms: C_9  and  O_10
REMARK    4  A    between atoms: N_14  and  C_15
REMARK                            x       y       z     vdW  Elec       q    Type
REMARK                         _______ _______ _______ _____ _____    ______ ____
ROOT
ATOM      1  C   UNL     1      -0.410   9.264  22.841  0.00  0.00    +0.000 C 
ATOM      2  N   UNL     1      -0.045  10.685  22.559  0.00  0.00    +0.000 NA
ATOM      3  C   UNL     1      -1.368  11.287  22.917  0.00  0.00    +0.000 C 
ATOM      4  C   UNL     1      -1.398  12.657  22.437  0.00  0.00    +0.000 C 
ATOM      5  C   UNL     1      -1.123  12.579  20.945  0.00  0.00    +0.000 C 
ATOM      6  C   UNL     1      -1.150  14.171  20.748  0.00  0.00    +0.000 C 
ATOM      7  C   UNL     1      -2.032  12.023  19.244  0.00  0.00    +0.000 A 
ATOM      8  C   UNL     1      -3.379  12.048  19.106  0.00  0.00    +0.000 A 
ATOM      9  C   UNL     1      -3.773  11.045  18.200  0.00  0.00    +0.000 A 
ATOM     10  C   UNL     1      -2.923  10.008  17.515  0.00  0.00    +0.000 A 
ATOM     11  C   UNL     1      -1.489   9.891  17.487  0.00  0.00    +0.000 A 
ATOM     12  C   UNL     1      -0.919  10.903  18.215  0.00  0.00    +0.000 A 
ATOM     13  N   UNL     1       0.739  10.529  19.177  0.00  0.00    +0.000 N 
ATOM     14  C   UNL     1       1.836  10.922  18.200  0.00  0.00    +0.000 C 
ATOM     15  C   UNL     1       0.567  11.360  21.057  0.00  0.00    +0.000 C 
ENDROOT
BRANCH   9  16
ATOM     16  O   UNL     1      -5.129  10.936  17.949  0.00  0.00    +0.000 OA
ATOM     17  H   UNL     1      -5.572  10.883  18.816  0.00  0.00    +0.000 HD
ENDBRANCH   9  16
TORSDOF 1
ENDMDL
MODEL 6
REMARK VINA RESULT:      -5.2      9.805     11.737
REMARK  Name = 
REMARK  4 active torsions:
REMARK  status: ('A' for Active; 'I' for Inactive)
REMARK    1  A    between atoms: C_1  and  N_2
REMARK    2  A    between atoms: C_5  and  C_6
REMARK    3  A    between atoms: C_9  and  O_10
REMARK    4  A    between atoms: N_14  and  C_15
REMARK                            x       y       z     vdW  Elec       q    Type
REMARK                         _______ _______ _______ _____ _____    ______ ____
ROOT
ATOM      1  C   UNL     1       6.061  14.860  18.351  0.00  0.00    +0.000 C 
ATOM      2  N   UNL     1       6.972  15.604  19.273  0.00  0.00    +0.000 NA
ATOM      3  C   UNL     1       7.659  16.424  18.226  0.00  0.00    +0.000 C 
ATOM      4  C   UNL     1       8.836  17.035  18.818  0.00  0.00    +0.000 C 
ATOM      5  C   UNL     1       9.667  15.889  19.369  0.00  0.00    +0.000 C 
ATOM      6  C   UNL     1      10.790  16.855  19.983  0.00  0.00    +0.000 C 
ATOM      7  C   UNL     1      10.839  14.394  18.721  0.00  0.00    +0.000 A 
ATOM      8  C   UNL     1      11.512  14.464  17.547  0.00  0.00    +0.000 A 
ATOM      9  C   UNL     1      11.664  13.168  17.020  0.00  0.00    +0.000 A 
ATOM     10  C   UNL     1      11.124  11.866  17.550  0.00  0.00    +0.000 A 
ATOM     11  C   UNL     1      10.468  11.604  18.804  0.00  0.00    +0.000 A 
ATOM     12  C   UNL     1      10.367  12.761  19.533  0.00  0.00    +0.000 A 
ATOM     13  N   UNL     1       8.799  13.001  20.673  0.00  0.00    +0.000 N 
ATOM     14  C   UNL     1       9.232  12.455  22.024  0.00  0.00    +0.000 C 
ATOM     15  C   UNL     1       8.132  14.934  20.410  0.00  0.00    +0.000 C 
ENDROOT
BRANCH   9  16
ATOM     16  O   UNL     1      12.333  13.065  15.814  0.00  0.00    +0.000 OA
ATOM     17  H   UNL     1      12.762  12.190  15.804  0.00  0.00    +0.000 HD
ENDBRANCH   9  16
TORSDOF 1
ENDMDL
MODEL 7
REMARK VINA RESULT:      -5.2      8.404     10.045
REMARK  Name = 
REMARK  4 active torsions:
REMARK  status: ('A' for Active; 'I' for Inactive)
REMARK    1  A    between atoms: C_1  and  N_2
REMARK    2  A    between atoms: C_5  and  C_6
REMARK    3  A    between atoms: C_9  and  O_10
REMARK    4  A    between atoms: N_14  and  C_15
REMARK                            x       y       z     vdW  Elec       q    Type
REMARK                         _______ _______ _______ _____ _____    ______ ____
ROOT
ATOM      1  C   UNL     1      -0.339  15.001  18.816  0.00  0.00    +0.000 C 
ATOM      2  N   UNL     1      -0.239  13.844  19.756  0.00  0.00    +0.000 NA
ATOM      3  C   UNL     1       0.671  13.004  18.914  0.00  0.00    +0.000 C 
ATOM      4  C   UNL     1       0.693  11.659  19.460  0.00  0.00    +0.000 C 
ATOM      5  C   UNL     1      -0.754  11.196  19.483  0.00  0.00    +0.000 C 
ATOM      6  C   UNL     1      -0.405   9.788  20.168  0.00  0.00    +0.000 C 
ATOM      7  C   UNL     1      -2.193  10.598  18.219  0.00  0.00    +0.000 A 
ATOM      8  C   UNL     1      -1.910  10.015  17.028  0.00  0.00    +0.000 A 
ATOM      9  C   UNL     1      -2.934  10.314  16.109  0.00  0.00    +0.000 A 
ATOM     10  C   UNL     1      -4.138  11.199  16.294  0.00  0.00    +0.000 A 
ATOM     11  C   UNL     1      -4.625  11.820  17.498  0.00  0.00    +0.000 A 
ATOM     12  C   UNL     1      -3.810  11.504  18.555  0.00  0.00    +0.000 A 
ATOM     13  N   UNL     1      -3.559  12.838  19.958  0.00  0.00    +0.000 N 
ATOM     14  C   UNL     1      -4.633  12.511  20.983  0.00  0.00    +0.000 C 
ATOM     15  C   UNL     1      -1.549  12.881  20.421  0.00  0.00    +0.000 C 
ENDROOT
BRANCH   9  16
ATOM     16  O   UNL     1      -2.793   9.792  14.836  0.00  0.00    +0.000 OA
ATOM     17  H   UNL     1      -3.424   9.053  14.764  0.00  0.00    +0.000 HD
ENDBRANCH   9  16
TORSDOF 1
ENDMDL
MODEL 8
REMARK VINA RESULT:      -5.2      3.019      4.562
REMARK  Name = 
REMARK  4 active torsions:
REMARK  status: ('A' for Active; 'I' for Inactive)
REMARK    1  A    between atoms: C_1  and  N_2
REMARK    2  A    between atoms: C_5  and  C_6
REMARK    3  A    between atoms: C_9  and  O_10
REMARK    4  A    between atoms: N_14  and  C_15
REMARK                            x       y       z     vdW  Elec       q    Type
REMARK                         _______ _______ _______ _____ _____    ______ ____
ROOT
ATOM      1  C   UNL     1       6.978   5.291  19.649  0.00  0.00    +0.000 C 
ATOM      2  N   UNL     1       6.093   4.308  18.954  0.00  0.00    +0.000 NA
ATOM      3  C   UNL     1       6.069   4.992  17.623  0.00  0.00    +0.000 C 
ATOM      4  C   UNL     1       5.012   4.403  16.820  0.00  0.00    +0.000 C 
ATOM      5  C   UNL     1       3.738   4.557  17.634  0.00  0.00    +0.000 C 
ATOM      6  C   UNL     1       2.831   3.783  16.559  0.00  0.00    +0.000 C 
ATOM      7  C   UNL     1       2.439   5.980  18.195  0.00  0.00    +0.000 A 
ATOM      8  C   UNL     1       2.238   7.101  17.462  0.00  0.00    +0.000 A 
ATOM      9  C   UNL     1       1.875   8.158  18.319  0.00  0.00    +0.000 A 
ATOM     10  C   UNL     1       1.786   8.165  19.821  0.00  0.00    +0.000 A 
ATOM     11  C   UNL     1       1.887   7.059  20.737  0.00  0.00    +0.000 A 
ATOM     12  C   UNL     1       2.096   5.893  20.046  0.00  0.00    +0.000 A 
ATOM     13  N   UNL     1       3.204   4.514  20.875  0.00  0.00    +0.000 N 
ATOM     14  C   UNL     1       2.212   3.631  21.615  0.00  0.00    +0.000 C 
ATOM     15  C   UNL     1       4.481   3.791  19.426  0.00  0.00    +0.000 C 
ENDROOT
BRANCH   9  16
ATOM     16  O   UNL     1       1.635   9.382  17.722  0.00  0.00    +0.000 OA
ATOM     17  H   UNL     1       0.772   9.693  18.053  0.00  0.00    +0.000 HD
ENDBRANCH   9  16
TORSDOF 1
ENDMDL
MODEL 9
REMARK VINA RESULT:      -5.1      2.416      4.860
REMARK  Name = 
REMARK  4 active torsions:
REMARK  status: ('A' for Active; 'I' for Inactive)
REMARK    1  A    between atoms: C_1  and  N_2
REMARK    2  A    between atoms: C_5  and  C_6
REMARK    3  A    between atoms: C_9  and  O_10
REMARK    4  A    between atoms: N_14  and  C_15
REMARK                            x       y       z     vdW  Elec       q    Type
REMARK                         _______ _______ _______ _____ _____    ______ ____
ROOT
ATOM      1  C   UNL     1       2.575   4.346  21.465  0.00  0.00    +0.000 C 
ATOM      2  N   UNL     1       1.929   4.141  20.133  0.00  0.00    +0.000 NA
ATOM      3  C   UNL     1       2.607   2.849  19.800  0.00  0.00    +0.000 C 
ATOM      4  C   UNL     1       2.391   2.564  18.392  0.00  0.00    +0.000 C 
ATOM      5  C   UNL     1       2.926   3.770  17.638  0.00  0.00    +0.000 C 
ATOM      6  C   UNL     1       2.493   3.199  16.203  0.00  0.00    +0.000 C 
ATOM      7  C   UNL     1       4.676   4.616  17.141  0.00  0.00    +0.000 A 
ATOM      8  C   UNL     1       5.815   3.893  17.013  0.00  0.00    +0.000 A 
ATOM      9  C   UNL     1       6.919   4.703  17.339  0.00  0.00    +0.000 A 
ATOM     10  C   UNL     1       6.931   6.122  17.843  0.00  0.00    +0.000 A 
ATOM     11  C   UNL     1       5.835   7.048  17.959  0.00  0.00    +0.000 A 
ATOM     12  C   UNL     1       4.673   6.459  17.531  0.00  0.00    +0.000 A 
ATOM     13  N   UNL     1       3.004   6.962  18.412  0.00  0.00    +0.000 N 
ATOM     14  C   UNL     1       2.467   8.108  17.570  0.00  0.00    +0.000 C 
ATOM     15  C   UNL     1       1.938   5.230  18.754  0.00  0.00    +0.000 C 
ENDROOT
BRANCH   9  16
ATOM     16  O   UNL     1       8.166   4.110  17.260  0.00  0.00    +0.000 OA
ATOM     17  H   UNL     1       8.165   3.368  17.893  0.00  0.00    +0.000 HD
ENDBRANCH   9  16
TORSDOF 1
ENDMDL
