MODEL 1
REMARK VINA RESULT:      -7.9      0.000      0.000
REMARK  Name = 
REMARK  6 active torsions:
REMARK  status: ('A' for Active; 'I' for Inactive)
REMARK    1  A    between atoms: C_2  and  C_5
REMARK    2  A    between atoms: N_3  and  O_4
REMARK    3  A    between atoms: C_7  and  C_8
REMARK    4  A    between atoms: C_8  and  C_9
REMARK    5  A    between atoms: C_19  and  C_20
REMARK    6  A    between atoms: N_25  and  C_26
REMARK                            x       y       z     vdW  Elec       q    Type
REMARK                         _______ _______ _______ _____ _____    ______ ____
ROOT
ATOM      1  C   UNL     1       1.786   8.511  20.316  0.00  0.00    +0.000 C 
ATOM      2  C   UNL     1       2.004   6.986  20.215  0.00  0.00    +0.000 C 
ATOM      3  C   UNL     1       2.962   6.579  19.088  0.00  0.00    +0.000 C 
ATOM      4  C   UNL     1       2.466   7.158  17.756  0.00  0.00    +0.000 C 
ATOM      5  C   UNL     1       2.205   8.657  17.840  0.00  0.00    +0.000 C 
ATOM      6  C   UNL     1       1.230   9.024  18.979  0.00  0.00    +0.000 C 
ENDROOT
BRANCH   6   7
ATOM      7  C   UNL     1       1.025  10.547  18.910  0.00  0.00    +0.000 C 
ATOM      8  O   UNL     1       1.974  11.293  18.668  0.00  0.00    +0.000 OA
ATOM      9  N   UNL     1      -0.291  10.999  18.935  0.00  0.00    +0.000 N 
ATOM     10  C   UNL     1      -0.658  12.353  18.469  0.00  0.00    +0.000 C 
ATOM     11  C   UNL     1      -1.963  12.351  17.602  0.00  0.00    +0.000 C 
ATOM     12  N   UNL     1      -3.009  11.535  18.256  0.00  0.00    +0.000 N 
ATOM     13  C   UNL     1      -2.581  10.179  18.620  0.00  0.00    +0.000 C 
ATOM     14  C   UNL     1      -1.405  10.300  19.588  0.00  0.00    +0.000 C 
BRANCH  12  15
ATOM     15  C   UNL     1      -4.358  11.831  18.263  0.00  0.00    +0.000 A 
ATOM     16  C   UNL     1      -5.090  12.032  19.434  0.00  0.00    +0.000 A 
ATOM     17  C   UNL     1      -6.459  12.345  19.394  0.00  0.00    +0.000 A 
ATOM     18  C   UNL     1      -7.123  12.449  18.171  0.00  0.00    +0.000 A 
ATOM     19  C   UNL     1      -6.425  12.233  16.995  0.00  0.00    +0.000 A 
ATOM     20  C   UNL     1      -5.060  11.923  17.051  0.00  0.00    +0.000 A 
ENDBRANCH  12  15
ENDBRANCH   6   7
BRANCH   1  22
ATOM     21  O   UNL     1      -0.172   7.953  21.642  0.00  0.00    +0.000 OA
ATOM     22  C   UNL     1       0.812   8.670  21.473  0.00  0.00    +0.000 C 
ATOM     23  N   UNL     1       1.243   9.566  22.424  0.00  0.00    +0.000 N 
ATOM     24  H   UNL     1       1.953  10.274  22.267  0.00  0.00    +0.000 HD
BRANCH  23  25
ATOM     25  O   UNL     1       0.511   9.637  23.627  0.00  0.00    +0.000 OA
ATOM     26  H   UNL     1       1.223   9.648  24.302  0.00  0.00    +0.000 HD
ENDBRANCH  23  25
ENDBRANCH   1  22
BRANCH   3  27
ATOM     27  C   UNL     1       3.055   5.043  18.987  0.00  0.00    +0.000 C 
BRANCH  27  28
ATOM     28  C   UNL     1       3.549   4.554  17.628  0.00  0.00    +0.000 C 
ATOM     29  O   UNL     1       2.912   3.722  16.983  0.00  0.00    +0.000 OA
ATOM     30  N   UNL     1       4.726   5.121  17.156  0.00  0.00    +0.000 N 
ATOM     31  C   UNL     1       5.147   4.853  15.783  0.00  0.00    +0.000 C 
ATOM     32  C   UNL     1       6.364   3.933  15.756  0.00  0.00    +0.000 C 
ATOM     33  C   UNL     1       7.484   4.478  16.643  0.00  0.00    +0.000 C 
ATOM     34  C   UNL     1       6.974   4.780  18.054  0.00  0.00    +0.000 C 
ATOM     35  C   UNL     1       5.759   5.706  18.008  0.00  0.00    +0.000 C 
ENDBRANCH  27  28
ENDBRANCH   3  27
TORSDOF 6
ENDMDL
MODEL 2
REMARK VINA RESULT:      -7.9      2.538      3.289
REMARK  Name = 
REMARK  6 active torsions:
REMARK  status: ('A' for Active; 'I' for Inactive)
REMARK    1  A    between atoms: C_2  and  C_5
REMARK    2  A    between atoms: N_3  and  O_4
REMARK    3  A    between atoms: C_7  and  C_8
REMARK    4  A    between atoms: C_8  and  C_9
REMARK    5  A    between atoms: C_19  and  C_20
REMARK    6  A    between atoms: N_25  and  C_26
REMARK                            x       y       z     vdW  Elec       q    Type
REMARK                         _______ _______ _______ _____ _____    ______ ____
ROOT
ATOM      1  C   UNL     1       1.611   9.633  20.854  0.00  0.00    +0.000 C 
ATOM      2  C   UNL     1       1.561   8.321  20.043  0.00  0.00    +0.000 C 
ATOM      3  C   UNL     1       2.214   8.433  18.659  0.00  0.00    +0.000 C 
ATOM      4  C   UNL     1       1.577   9.592  17.880  0.00  0.00    +0.000 C 
ATOM      5  C   UNL     1       1.577  10.892  18.676  0.00  0.00    +0.000 C 
ATOM      6  C   UNL     1       0.904  10.739  20.057  0.00  0.00    +0.000 C 
ENDROOT
BRANCH   6   7
ATOM      7  C   UNL     1       0.934  12.128  20.718  0.00  0.00    +0.000 C 
ATOM      8  O   UNL     1       1.997  12.738  20.837  0.00  0.00    +0.000 OA
ATOM      9  N   UNL     1      -0.298  12.721  20.978  0.00  0.00    +0.000 N 
ATOM     10  C   UNL     1      -0.430  14.174  21.212  0.00  0.00    +0.000 C 
ATOM     11  C   UNL     1      -1.667  14.787  20.472  0.00  0.00    +0.000 C 
ATOM     12  N   UNL     1      -2.861  13.939  20.685  0.00  0.00    +0.000 N 
ATOM     13  C   UNL     1      -2.663  12.521  20.359  0.00  0.00    +0.000 C 
ATOM     14  C   UNL     1      -1.541  11.985  21.247  0.00  0.00    +0.000 C 
BRANCH  12  15
ATOM     15  C   UNL     1      -4.148  14.409  20.857  0.00  0.00    +0.000 A 
ATOM     16  C   UNL     1      -5.271  13.581  20.846  0.00  0.00    +0.000 A 
ATOM     17  C   UNL     1      -6.562  14.100  21.040  0.00  0.00    +0.000 A 
ATOM     18  C   UNL     1      -6.749  15.469  21.236  0.00  0.00    +0.000 A 
ATOM     19  C   UNL     1      -5.654  16.316  21.229  0.00  0.00    +0.000 A 
ATOM     20  C   UNL     1      -4.373  15.782  21.037  0.00  0.00    +0.000 A 
ENDBRANCH  12  15
ENDBRANCH   6   7
BRANCH   1  22
ATOM     21  O   UNL     1       1.315   9.635  23.266  0.00  0.00    +0.000 OA
ATOM     22  C   UNL     1       0.908   9.289  22.159  0.00  0.00    +0.000 C 
ATOM     23  N   UNL     1      -0.332   8.722  21.973  0.00  0.00    +0.000 N 
ATOM     24  H   UNL     1      -0.643   8.291  21.108  0.00  0.00    +0.000 HD
BRANCH  23  25
ATOM     25  O   UNL     1      -1.144   8.550  23.112  0.00  0.00    +0.000 OA
ATOM     26  H   UNL     1      -1.843   9.223  22.973  0.00  0.00    +0.000 HD
ENDBRANCH  23  25
ENDBRANCH   1  22
BRANCH   3  27
ATOM     27  C   UNL     1       2.040   7.118  17.873  0.00  0.00    +0.000 C 
BRANCH  27  28
ATOM     28  C   UNL     1       3.207   6.149  18.046  0.00  0.00    +0.000 C 
ATOM     29  O   UNL     1       4.301   6.374  17.529  0.00  0.00    +0.000 OA
ATOM     30  N   UNL     1       2.971   5.032  18.837  0.00  0.00    +0.000 N 
ATOM     31  C   UNL     1       4.093   4.173  19.211  0.00  0.00    +0.000 C 
ATOM     32  C   UNL     1       4.026   2.839  18.474  0.00  0.00    +0.000 C 
ATOM     33  C   UNL     1       2.661   2.176  18.660  0.00  0.00    +0.000 C 
ATOM     34  C   UNL     1       1.526   3.136  18.294  0.00  0.00    +0.000 C 
ATOM     35  C   UNL     1       1.652   4.448  19.068  0.00  0.00    +0.000 C 
ENDBRANCH  27  28
ENDBRANCH   3  27
TORSDOF 6
ENDMDL
MODEL 3
REMARK VINA RESULT:      -7.8      1.027      1.308
REMARK  Name = 
REMARK  6 active torsions:
REMARK  status: ('A' for Active; 'I' for Inactive)
REMARK    1  A    between atoms: C_2  and  C_5
REMARK    2  A    between atoms: N_3  and  O_4
REMARK    3  A    between atoms: C_7  and  C_8
REMARK    4  A    between atoms: C_8  and  C_9
REMARK    5  A    between atoms: C_19  and  C_20
REMARK    6  A    between atoms: N_25  and  C_26
REMARK                            x       y       z     vdW  Elec       q    Type
REMARK                         _______ _______ _______ _____ _____    ______ ____
ROOT
ATOM      1  C   UNL     1       1.797   8.701  20.288  0.00  0.00    +0.000 C 
ATOM      2  C   UNL     1       2.158   7.203  20.202  0.00  0.00    +0.000 C 
ATOM      3  C   UNL     1       3.186   6.883  19.109  0.00  0.00    +0.000 C 
ATOM      4  C   UNL     1       2.682   7.411  17.758  0.00  0.00    +0.000 C 
ATOM      5  C   UNL     1       2.281   8.880  17.826  0.00  0.00    +0.000 C 
ATOM      6  C   UNL     1       1.240   9.158  18.932  0.00  0.00    +0.000 C 
ENDROOT
BRANCH   6   7
ATOM      7  C   UNL     1       0.897  10.655  18.848  0.00  0.00    +0.000 C 
ATOM      8  O   UNL     1       1.781  11.486  18.635  0.00  0.00    +0.000 OA
ATOM      9  N   UNL     1      -0.455  10.984  18.825  0.00  0.00    +0.000 N 
ATOM     10  C   UNL     1      -0.929  12.297  18.340  0.00  0.00    +0.000 C 
ATOM     11  C   UNL     1      -2.197  12.173  17.429  0.00  0.00    +0.000 C 
ATOM     12  N   UNL     1      -3.186  11.265  18.050  0.00  0.00    +0.000 N 
ATOM     13  C   UNL     1      -2.647   9.955  18.436  0.00  0.00    +0.000 C 
ATOM     14  C   UNL     1      -1.521  10.185  19.443  0.00  0.00    +0.000 C 
BRANCH  12  15
ATOM     15  C   UNL     1      -4.556  11.434  18.009  0.00  0.00    +0.000 A 
ATOM     16  C   UNL     1      -5.446  10.647  18.741  0.00  0.00    +0.000 A 
ATOM     17  C   UNL     1      -6.832  10.865  18.681  0.00  0.00    +0.000 A 
ATOM     18  C   UNL     1      -7.352  11.873  17.869  0.00  0.00    +0.000 A 
ATOM     19  C   UNL     1      -6.494  12.654  17.115  0.00  0.00    +0.000 A 
ATOM     20  C   UNL     1      -5.113  12.427  17.188  0.00  0.00    +0.000 A 
ENDBRANCH  12  15
ENDBRANCH   6   7
BRANCH   1  22
ATOM     21  O   UNL     1      -0.160   7.983  21.538  0.00  0.00    +0.000 OA
ATOM     22  C   UNL     1       0.775   8.772  21.413  0.00  0.00    +0.000 C 
ATOM     23  N   UNL     1       1.106   9.683  22.389  0.00  0.00    +0.000 N 
ATOM     24  H   UNL     1       1.768  10.443  22.266  0.00  0.00    +0.000 HD
BRANCH  23  25
ATOM     25  O   UNL     1       0.331   9.683  23.567  0.00  0.00    +0.000 OA
ATOM     26  H   UNL     1       0.859  10.256  24.163  0.00  0.00    +0.000 HD
ENDBRANCH  23  25
ENDBRANCH   1  22
BRANCH   3  27
ATOM     27  C   UNL     1       3.423   5.363  19.019  0.00  0.00    +0.000 C 
BRANCH  27  28
ATOM     28  C   UNL     1       4.893   4.987  18.851  0.00  0.00    +0.000 C 
ATOM     29  O   UNL     1       5.696   5.140  19.771  0.00  0.00    +0.000 OA
ATOM     30  N   UNL     1       5.257   4.441  17.627  0.00  0.00    +0.000 N 
ATOM     31  C   UNL     1       6.593   3.874  17.467  0.00  0.00    +0.000 C 
ATOM     32  C   UNL     1       7.458   4.759  16.575  0.00  0.00    +0.000 C 
ATOM     33  C   UNL     1       6.756   5.052  15.248  0.00  0.00    +0.000 C 
ATOM     34  C   UNL     1       5.347   5.603  15.478  0.00  0.00    +0.000 C 
ATOM     35  C   UNL     1       4.537   4.668  16.376  0.00  0.00    +0.000 C 
ENDBRANCH  27  28
ENDBRANCH   3  27
TORSDOF 6
ENDMDL
MODEL 4
REMARK VINA RESULT:      -7.7      2.201      2.705
REMARK  Name = 
REMARK  6 active torsions:
REMARK  status: ('A' for Active; 'I' for Inactive)
REMARK    1  A    between atoms: C_2  and  C_5
REMARK    2  A    between atoms: N_3  and  O_4
REMARK    3  A    between atoms: C_7  and  C_8
REMARK    4  A    between atoms: C_8  and  C_9
REMARK    5  A    between atoms: C_19  and  C_20
REMARK    6  A    between atoms: N_25  and  C_26
REMARK                            x       y       z     vdW  Elec       q    Type
REMARK                         _______ _______ _______ _____ _____    ______ ____
ROOT
ATOM      1  C   UNL     1       1.656   9.560  20.796  0.00  0.00    +0.000 C 
ATOM      2  C   UNL     1       1.620   8.218  20.035  0.00  0.00    +0.000 C 
ATOM      3  C   UNL     1       2.305   8.273  18.664  0.00  0.00    +0.000 C 
ATOM      4  C   UNL     1       1.689   9.402  17.826  0.00  0.00    +0.000 C 
ATOM      5  C   UNL     1       1.676  10.732  18.570  0.00  0.00    +0.000 C 
ATOM      6  C   UNL     1       0.971  10.636  19.940  0.00  0.00    +0.000 C 
ENDROOT
BRANCH   6   7
ATOM      7  C   UNL     1       0.992  12.050  20.546  0.00  0.00    +0.000 C 
ATOM      8  O   UNL     1       2.040  12.695  20.588  0.00  0.00    +0.000 OA
ATOM      9  N   UNL     1      -0.244  12.615  20.848  0.00  0.00    +0.000 N 
ATOM     10  C   UNL     1      -0.408  14.073  21.035  0.00  0.00    +0.000 C 
ATOM     11  C   UNL     1      -1.700  14.620  20.337  0.00  0.00    +0.000 C 
ATOM     12  N   UNL     1      -2.854  13.747  20.643  0.00  0.00    +0.000 N 
ATOM     13  C   UNL     1      -2.629  12.324  20.360  0.00  0.00    +0.000 C 
ATOM     14  C   UNL     1      -1.447  11.855  21.208  0.00  0.00    +0.000 C 
BRANCH  12  15
ATOM     15  C   UNL     1      -4.145  14.184  20.864  0.00  0.00    +0.000 A 
ATOM     16  C   UNL     1      -5.203  13.325  21.166  0.00  0.00    +0.000 A 
ATOM     17  C   UNL     1      -6.498  13.817  21.398  0.00  0.00    +0.000 A 
ATOM     18  C   UNL     1      -6.758  15.185  21.316  0.00  0.00    +0.000 A 
ATOM     19  C   UNL     1      -5.732  16.058  20.996  0.00  0.00    +0.000 A 
ATOM     20  C   UNL     1      -4.445  15.552  20.770  0.00  0.00    +0.000 A 
ENDBRANCH  12  15
ENDBRANCH   6   7
BRANCH   1  22
ATOM     21  O   UNL     1       1.298   9.671  23.196  0.00  0.00    +0.000 OA
ATOM     22  C   UNL     1       0.924   9.269  22.097  0.00  0.00    +0.000 C 
ATOM     23  N   UNL     1      -0.305   8.680  21.906  0.00  0.00    +0.000 N 
ATOM     24  H   UNL     1      -0.589   8.205  21.055  0.00  0.00    +0.000 HD
BRANCH  23  25
ATOM     25  O   UNL     1      -1.144   8.551  23.031  0.00  0.00    +0.000 OA
ATOM     26  H   UNL     1      -1.043   7.603  23.259  0.00  0.00    +0.000 HD
ENDBRANCH  23  25
ENDBRANCH   1  22
BRANCH   3  27
ATOM     27  C   UNL     1       2.144   6.929  17.925  0.00  0.00    +0.000 C 
BRANCH  27  28
ATOM     28  C   UNL     1       3.125   5.858  18.395  0.00  0.00    +0.000 C 
ATOM     29  O   UNL     1       2.931   5.233  19.437  0.00  0.00    +0.000 OA
ATOM     30  N   UNL     1       4.216   5.614  17.572  0.00  0.00    +0.000 N 
ATOM     31  C   UNL     1       5.081   4.470  17.853  0.00  0.00    +0.000 C 
ATOM     32  C   UNL     1       6.434   4.928  18.388  0.00  0.00    +0.000 C 
ATOM     33  C   UNL     1       7.071   5.961  17.458  0.00  0.00    +0.000 C 
ATOM     34  C   UNL     1       6.105   7.112  17.166  0.00  0.00    +0.000 C 
ATOM     35  C   UNL     1       4.774   6.583  16.631  0.00  0.00    +0.000 C 
ENDBRANCH  27  28
ENDBRANCH   3  27
TORSDOF 6
ENDMDL
MODEL 5
REMARK VINA RESULT:      -7.6      3.112     10.169
REMARK  Name = 
REMARK  6 active torsions:
REMARK  status: ('A' for Active; 'I' for Inactive)
REMARK    1  A    between atoms: C_2  and  C_5
REMARK    2  A    between atoms: N_3  and  O_4
REMARK    3  A    between atoms: C_7  and  C_8
REMARK    4  A    between atoms: C_8  and  C_9
REMARK    5  A    between atoms: C_19  and  C_20
REMARK    6  A    between atoms: N_25  and  C_26
REMARK                            x       y       z     vdW  Elec       q    Type
REMARK                         _______ _______ _______ _____ _____    ______ ____
ROOT
ATOM      1  C   UNL     1      -0.232  11.016  18.981  0.00  0.00    +0.000 C 
ATOM      2  C   UNL     1      -1.196  11.272  20.160  0.00  0.00    +0.000 C 
ATOM      3  C   UNL     1      -0.478  11.536  21.490  0.00  0.00    +0.000 C 
ATOM      4  C   UNL     1       0.479  10.376  21.797  0.00  0.00    +0.000 C 
ATOM      5  C   UNL     1       1.416  10.076  20.633  0.00  0.00    +0.000 C 
ATOM      6  C   UNL     1       0.655   9.808  19.317  0.00  0.00    +0.000 C 
ENDROOT
BRANCH   6   7
ATOM      7  C   UNL     1       1.717   9.475  18.254  0.00  0.00    +0.000 C 
ATOM      8  O   UNL     1       2.330  10.376  17.682  0.00  0.00    +0.000 OA
ATOM      9  N   UNL     1       2.074   8.136  18.130  0.00  0.00    +0.000 N 
ATOM     10  C   UNL     1       3.334   7.723  17.476  0.00  0.00    +0.000 C 
ATOM     11  C   UNL     1       4.065   6.581  18.259  0.00  0.00    +0.000 C 
ATOM     12  N   UNL     1       3.102   5.524  18.638  0.00  0.00    +0.000 N 
ATOM     13  C   UNL     1       1.913   6.013  19.348  0.00  0.00    +0.000 C 
ATOM     14  C   UNL     1       1.191   7.002  18.434  0.00  0.00    +0.000 C 
BRANCH  12  15
ATOM     15  C   UNL     1       3.372   4.169  18.649  0.00  0.00    +0.000 A 
ATOM     16  C   UNL     1       4.202   3.562  19.592  0.00  0.00    +0.000 A 
ATOM     17  C   UNL     1       4.437   2.178  19.573  0.00  0.00    +0.000 A 
ATOM     18  C   UNL     1       3.850   1.376  18.594  0.00  0.00    +0.000 A 
ATOM     19  C   UNL     1       3.039   1.956  17.632  0.00  0.00    +0.000 A 
ATOM     20  C   UNL     1       2.812   3.338  17.666  0.00  0.00    +0.000 A 
ENDBRANCH  12  15
ENDBRANCH   6   7
BRANCH   1  22
ATOM     21  O   UNL     1      -1.534   9.661  17.441  0.00  0.00    +0.000 OA
ATOM     22  C   UNL     1      -1.154  10.775  17.795  0.00  0.00    +0.000 C 
ATOM     23  N   UNL     1      -1.680  11.934  17.273  0.00  0.00    +0.000 N 
ATOM     24  H   UNL     1      -1.294  12.861  17.427  0.00  0.00    +0.000 HD
BRANCH  23  25
ATOM     25  O   UNL     1      -2.695  11.807  16.304  0.00  0.00    +0.000 OA
ATOM     26  H   UNL     1      -2.380  11.047  15.771  0.00  0.00    +0.000 HD
ENDBRANCH  23  25
ENDBRANCH   1  22
BRANCH   3  27
ATOM     27  C   UNL     1      -1.500  11.685  22.634  0.00  0.00    +0.000 C 
BRANCH  27  28
ATOM     28  C   UNL     1      -1.707  13.132  23.076  0.00  0.00    +0.000 C 
ATOM     29  O   UNL     1      -0.850  13.725  23.730  0.00  0.00    +0.000 OA
ATOM     30  N   UNL     1      -2.891  13.738  22.675  0.00  0.00    +0.000 N 
ATOM     31  C   UNL     1      -3.065  15.173  22.887  0.00  0.00    +0.000 C 
ATOM     32  C   UNL     1      -4.082  15.442  23.992  0.00  0.00    +0.000 C 
ATOM     33  C   UNL     1      -5.393  14.700  23.723  0.00  0.00    +0.000 C 
ATOM     34  C   UNL     1      -5.144  13.212  23.467  0.00  0.00    +0.000 C 
ATOM     35  C   UNL     1      -4.119  13.017  22.349  0.00  0.00    +0.000 C 
ENDBRANCH  27  28
ENDBRANCH   3  27
TORSDOF 6
ENDMDL
MODEL 6
REMARK VINA RESULT:      -7.6      2.411     10.038
REMARK  Name = 
REMARK  6 active torsions:
REMARK  status: ('A' for Active; 'I' for Inactive)
REMARK    1  A    between atoms: C_2  and  C_5
REMARK    2  A    between atoms: N_3  and  O_4
REMARK    3  A    between atoms: C_7  and  C_8
REMARK    4  A    between atoms: C_8  and  C_9
REMARK    5  A    between atoms: C_19  and  C_20
REMARK    6  A    between atoms: N_25  and  C_26
REMARK                            x       y       z     vdW  Elec       q    Type
REMARK                         _______ _______ _______ _____ _____    ______ ____
ROOT
ATOM      1  C   UNL     1      -2.075  11.864  19.555  0.00  0.00    +0.000 C 
ATOM      2  C   UNL     1      -3.103  12.186  18.449  0.00  0.00    +0.000 C 
ATOM      3  C   UNL     1      -3.910  10.964  17.991  0.00  0.00    +0.000 C 
ATOM      4  C   UNL     1      -2.951   9.850  17.550  0.00  0.00    +0.000 C 
ATOM      5  C   UNL     1      -1.899   9.540  18.609  0.00  0.00    +0.000 C 
ATOM      6  C   UNL     1      -1.105  10.793  19.036  0.00  0.00    +0.000 C 
ENDROOT
BRANCH   6   7
ATOM      7  C   UNL     1      -0.058  10.322  20.062  0.00  0.00    +0.000 C 
ATOM      8  O   UNL     1      -0.237  10.510  21.265  0.00  0.00    +0.000 OA
ATOM      9  N   UNL     1       0.969   9.518  19.578  0.00  0.00    +0.000 N 
ATOM     10  C   UNL     1       1.784   8.671  20.475  0.00  0.00    +0.000 C 
ATOM     11  C   UNL     1       2.035   7.244  19.880  0.00  0.00    +0.000 C 
ATOM     12  N   UNL     1       2.445   7.347  18.462  0.00  0.00    +0.000 N 
ATOM     13  C   UNL     1       1.541   8.147  17.626  0.00  0.00    +0.000 C 
ATOM     14  C   UNL     1       1.490   9.560  18.205  0.00  0.00    +0.000 C 
BRANCH  12  15
ATOM     15  C   UNL     1       3.382   6.541  17.845  0.00  0.00    +0.000 A 
ATOM     16  C   UNL     1       3.319   5.147  17.858  0.00  0.00    +0.000 A 
ATOM     17  C   UNL     1       4.287   4.367  17.205  0.00  0.00    +0.000 A 
ATOM     18  C   UNL     1       5.348   4.976  16.534  0.00  0.00    +0.000 A 
ATOM     19  C   UNL     1       5.447   6.357  16.524  0.00  0.00    +0.000 A 
ATOM     20  C   UNL     1       4.473   7.121  17.179  0.00  0.00    +0.000 A 
ENDBRANCH  12  15
ENDBRANCH   6   7
BRANCH   1  22
ATOM     21  O   UNL     1      -1.208  13.643  20.965  0.00  0.00    +0.000 OA
ATOM     22  C   UNL     1      -1.402  13.200  19.835  0.00  0.00    +0.000 C 
ATOM     23  N   UNL     1      -0.855  13.777  18.712  0.00  0.00    +0.000 N 
ATOM     24  H   UNL     1      -1.109  13.535  17.759  0.00  0.00    +0.000 HD
BRANCH  23  25
ATOM     25  O   UNL     1      -0.041  14.913  18.898  0.00  0.00    +0.000 OA
ATOM     26  H   UNL     1       0.475  14.937  18.064  0.00  0.00    +0.000 HD
ENDBRANCH  23  25
ENDBRANCH   1  22
BRANCH   3  27
ATOM     27  C   UNL     1      -4.843  11.341  16.823  0.00  0.00    +0.000 C 
BRANCH  27  28
ATOM     28  C   UNL     1      -5.851  12.430  17.180  0.00  0.00    +0.000 C 
ATOM     29  O   UNL     1      -5.828  13.525  16.619  0.00  0.00    +0.000 OA
ATOM     30  N   UNL     1      -6.802  12.104  18.138  0.00  0.00    +0.000 N 
ATOM     31  C   UNL     1      -7.915  13.019  18.379  0.00  0.00    +0.000 C 
ATOM     32  C   UNL     1      -7.766  13.715  19.729  0.00  0.00    +0.000 C 
ATOM     33  C   UNL     1      -7.557  12.697  20.851  0.00  0.00    +0.000 C 
ATOM     34  C   UNL     1      -6.408  11.741  20.523  0.00  0.00    +0.000 C 
ATOM     35  C   UNL     1      -6.623  11.078  19.163  0.00  0.00    +0.000 C 
ENDBRANCH  27  28
ENDBRANCH   3  27
TORSDOF 6
ENDMDL
MODEL 7
REMARK VINA RESULT:      -7.5      2.474      2.992
REMARK  Name = 
REMARK  6 active torsions:
REMARK  status: ('A' for Active; 'I' for Inactive)
REMARK    1  A    between atoms: C_2  and  C_5
REMARK    2  A    between atoms: N_3  and  O_4
REMARK    3  A    between atoms: C_7  and  C_8
REMARK    4  A    between atoms: C_8  and  C_9
REMARK    5  A    between atoms: C_19  and  C_20
REMARK    6  A    between atoms: N_25  and  C_26
REMARK                            x       y       z     vdW  Elec       q    Type
REMARK                         _______ _______ _______ _____ _____    ______ ____
ROOT
ATOM      1  C   UNL     1       1.692   9.437  20.744  0.00  0.00    +0.000 C 
ATOM      2  C   UNL     1       1.719   8.007  20.164  0.00  0.00    +0.000 C 
ATOM      3  C   UNL     1       2.453   7.906  18.821  0.00  0.00    +0.000 C 
ATOM      4  C   UNL     1       1.839   8.898  17.823  0.00  0.00    +0.000 C 
ATOM      5  C   UNL     1       1.764  10.312  18.387  0.00  0.00    +0.000 C 
ATOM      6  C   UNL     1       1.012  10.372  19.733  0.00  0.00    +0.000 C 
ENDROOT
BRANCH   6   7
ATOM      7  C   UNL     1       0.973  11.852  20.151  0.00  0.00    +0.000 C 
ATOM      8  O   UNL     1       1.971  12.562  20.025  0.00  0.00    +0.000 OA
ATOM      9  N   UNL     1      -0.275  12.374  20.477  0.00  0.00    +0.000 N 
ATOM     10  C   UNL     1      -0.532  13.830  20.489  0.00  0.00    +0.000 C 
ATOM     11  C   UNL     1      -1.906  14.198  19.834  0.00  0.00    +0.000 C 
ATOM     12  N   UNL     1      -2.969  13.302  20.340  0.00  0.00    +0.000 N 
ATOM     13  C   UNL     1      -2.662  11.872  20.224  0.00  0.00    +0.000 C 
ATOM     14  C   UNL     1      -1.392  11.594  21.026  0.00  0.00    +0.000 C 
BRANCH  12  15
ATOM     15  C   UNL     1      -4.269  13.684  20.607  0.00  0.00    +0.000 A 
ATOM     16  C   UNL     1      -4.611  14.948  21.090  0.00  0.00    +0.000 A 
ATOM     17  C   UNL     1      -5.950  15.298  21.334  0.00  0.00    +0.000 A 
ATOM     18  C   UNL     1      -6.972  14.376  21.109  0.00  0.00    +0.000 A 
ATOM     19  C   UNL     1      -6.659  13.107  20.651  0.00  0.00    +0.000 A 
ATOM     20  C   UNL     1      -5.319  12.774  20.410  0.00  0.00    +0.000 A 
ENDBRANCH  12  15
ENDBRANCH   6   7
BRANCH   1  22
ATOM     21  O   UNL     1       1.214   9.884  23.084  0.00  0.00    +0.000 OA
ATOM     22  C   UNL     1       0.919   9.294  22.047  0.00  0.00    +0.000 C 
ATOM     23  N   UNL     1      -0.258   8.596  21.904  0.00  0.00    +0.000 N 
ATOM     24  H   UNL     1      -0.470   7.980  21.126  0.00  0.00    +0.000 HD
BRANCH  23  25
ATOM     25  O   UNL     1      -1.140   8.580  23.004  0.00  0.00    +0.000 OA
ATOM     26  H   UNL     1      -1.224   9.533  23.217  0.00  0.00    +0.000 HD
ENDBRANCH  23  25
ENDBRANCH   1  22
BRANCH   3  27
ATOM     27  C   UNL     1       2.354   6.474  18.259  0.00  0.00    +0.000 C 
BRANCH  27  28
ATOM     28  C   UNL     1       3.186   5.458  19.037  0.00  0.00    +0.000 C 
ATOM     29  O   UNL     1       4.257   5.777  19.554  0.00  0.00    +0.000 OA
ATOM     30  N   UNL     1       2.654   4.180  19.153  0.00  0.00    +0.000 N 
ATOM     31  C   UNL     1       3.293   3.220  20.050  0.00  0.00    +0.000 C 
ATOM     32  C   UNL     1       4.007   2.128  19.260  0.00  0.00    +0.000 C 
ATOM     33  C   UNL     1       3.066   1.482  18.243  0.00  0.00    +0.000 C 
ATOM     34  C   UNL     1       2.395   2.537  17.361  0.00  0.00    +0.000 C 
ATOM     35  C   UNL     1       1.698   3.596  18.215  0.00  0.00    +0.000 C 
ENDBRANCH  27  28
ENDBRANCH   3  27
TORSDOF 6
ENDMDL
MODEL 8
REMARK VINA RESULT:      -7.5      3.573      5.011
REMARK  Name = 
REMARK  6 active torsions:
REMARK  status: ('A' for Active; 'I' for Inactive)
REMARK    1  A    between atoms: C_2  and  C_5
REMARK    2  A    between atoms: N_3  and  O_4
REMARK    3  A    between atoms: C_7  and  C_8
REMARK    4  A    between atoms: C_8  and  C_9
REMARK    5  A    between atoms: C_19  and  C_20
REMARK    6  A    between atoms: N_25  and  C_26
REMARK                            x       y       z     vdW  Elec       q    Type
REMARK                         _______ _______ _______ _____ _____    ______ ____
ROOT
ATOM      1  C   UNL     1       1.127   8.896  18.846  0.00  0.00    +0.000 C 
ATOM      2  C   UNL     1       2.054   7.867  19.526  0.00  0.00    +0.000 C 
ATOM      3  C   UNL     1       1.325   6.946  20.512  0.00  0.00    +0.000 C 
ATOM      4  C   UNL     1       0.577   7.793  21.552  0.00  0.00    +0.000 C 
ATOM      5  C   UNL     1      -0.316   8.845  20.906  0.00  0.00    +0.000 C 
ATOM      6  C   UNL     1       0.457   9.756  19.928  0.00  0.00    +0.000 C 
ENDROOT
BRANCH   6   7
ATOM      7  C   UNL     1      -0.552  10.788  19.397  0.00  0.00    +0.000 C 
ATOM      8  O   UNL     1      -1.130  10.600  18.326  0.00  0.00    +0.000 OA
ATOM      9  N   UNL     1      -0.911  11.813  20.267  0.00  0.00    +0.000 N 
ATOM     10  C   UNL     1      -2.138  12.612  20.067  0.00  0.00    +0.000 C 
ATOM     11  C   UNL     1      -2.914  12.856  21.405  0.00  0.00    +0.000 C 
ATOM     12  N   UNL     1      -1.978  13.280  22.469  0.00  0.00    +0.000 N 
ATOM     13  C   UNL     1      -0.823  12.391  22.649  0.00  0.00    +0.000 C 
ATOM     14  C   UNL     1      -0.051  12.347  21.331  0.00  0.00    +0.000 C 
BRANCH  12  15
ATOM     15  C   UNL     1      -2.256  14.215  23.446  0.00  0.00    +0.000 A 
ATOM     16  C   UNL     1      -1.282  14.754  24.288  0.00  0.00    +0.000 A 
ATOM     17  C   UNL     1      -1.608  15.715  25.259  0.00  0.00    +0.000 A 
ATOM     18  C   UNL     1      -2.926  16.143  25.412  0.00  0.00    +0.000 A 
ATOM     19  C   UNL     1      -3.917  15.609  24.605  0.00  0.00    +0.000 A 
ATOM     20  C   UNL     1      -3.575  14.653  23.639  0.00  0.00    +0.000 A 
ENDBRANCH  12  15
ENDBRANCH   6   7
BRANCH   1  22
ATOM     21  O   UNL     1       2.717   9.186  17.031  0.00  0.00    +0.000 OA
ATOM     22  C   UNL     1       2.056   9.688  17.938  0.00  0.00    +0.000 C 
ATOM     23  N   UNL     1       1.941  11.050  18.099  0.00  0.00    +0.000 N 
ATOM     24  H   UNL     1       1.532  11.500  18.913  0.00  0.00    +0.000 HD
BRANCH  23  25
ATOM     25  O   UNL     1       2.610  11.873  17.171  0.00  0.00    +0.000 OA
ATOM     26  H   UNL     1       2.495  12.764  17.563  0.00  0.00    +0.000 HD
ENDBRANCH  23  25
ENDBRANCH   1  22
BRANCH   3  27
ATOM     27  C   UNL     1       2.327   6.013  21.222  0.00  0.00    +0.000 C 
BRANCH  27  28
ATOM     28  C   UNL     1       3.081   5.094  20.266  0.00  0.00    +0.000 C 
ATOM     29  O   UNL     1       4.018   5.514  19.588  0.00  0.00    +0.000 OA
ATOM     30  N   UNL     1       2.673   3.766  20.232  0.00  0.00    +0.000 N 
ATOM     31  C   UNL     1       3.476   2.791  19.498  0.00  0.00    +0.000 C 
ATOM     32  C   UNL     1       2.762   2.347  18.225  0.00  0.00    +0.000 C 
ATOM     33  C   UNL     1       1.344   1.864  18.531  0.00  0.00    +0.000 C 
ATOM     34  C   UNL     1       0.567   2.907  19.336  0.00  0.00    +0.000 C 
ATOM     35  C   UNL     1       1.336   3.304  20.597  0.00  0.00    +0.000 C 
ENDBRANCH  27  28
ENDBRANCH   3  27
TORSDOF 6
ENDMDL
MODEL 9
REMARK VINA RESULT:      -7.4      3.551      4.848
REMARK  Name = 
REMARK  6 active torsions:
REMARK  status: ('A' for Active; 'I' for Inactive)
REMARK    1  A    between atoms: C_2  and  C_5
REMARK    2  A    between atoms: N_3  and  O_4
REMARK    3  A    between atoms: C_7  and  C_8
REMARK    4  A    between atoms: C_8  and  C_9
REMARK    5  A    between atoms: C_19  and  C_20
REMARK    6  A    between atoms: N_25  and  C_26
REMARK                            x       y       z     vdW  Elec       q    Type
REMARK                         _______ _______ _______ _____ _____    ______ ____
ROOT
ATOM      1  C   UNL     1       1.141   8.858  18.813  0.00  0.00    +0.000 C 
ATOM      2  C   UNL     1       2.061   7.808  19.471  0.00  0.00    +0.000 C 
ATOM      3  C   UNL     1       1.322   6.860  20.425  0.00  0.00    +0.000 C 
ATOM      4  C   UNL     1       0.568   7.678  21.483  0.00  0.00    +0.000 C 
ATOM      5  C   UNL     1      -0.318   8.750  20.859  0.00  0.00    +0.000 C 
ATOM      6  C   UNL     1       0.464   9.687  19.915  0.00  0.00    +0.000 C 
ENDROOT
BRANCH   6   7
ATOM      7  C   UNL     1      -0.539  10.737  19.405  0.00  0.00    +0.000 C 
ATOM      8  O   UNL     1      -1.129  10.568  18.338  0.00  0.00    +0.000 OA
ATOM      9  N   UNL     1      -0.881  11.753  20.292  0.00  0.00    +0.000 N 
ATOM     10  C   UNL     1      -2.102  12.567  20.112  0.00  0.00    +0.000 C 
ATOM     11  C   UNL     1      -2.864  12.801  21.460  0.00  0.00    +0.000 C 
ATOM     12  N   UNL     1      -1.915  13.202  22.521  0.00  0.00    +0.000 N 
ATOM     13  C   UNL     1      -0.768  12.300  22.680  0.00  0.00    +0.000 C 
ATOM     14  C   UNL     1      -0.007  12.265  21.356  0.00  0.00    +0.000 C 
BRANCH  12  15
ATOM     15  C   UNL     1      -2.175  14.127  23.513  0.00  0.00    +0.000 A 
ATOM     16  C   UNL     1      -1.177  14.714  24.293  0.00  0.00    +0.000 A 
ATOM     17  C   UNL     1      -1.487  15.662  25.281  0.00  0.00    +0.000 A 
ATOM     18  C   UNL     1      -2.812  16.030  25.515  0.00  0.00    +0.000 A 
ATOM     19  C   UNL     1      -3.824  15.447  24.771  0.00  0.00    +0.000 A 
ATOM     20  C   UNL     1      -3.499  14.504  23.787  0.00  0.00    +0.000 A 
ENDBRANCH  12  15
ENDBRANCH   6   7
BRANCH   1  22
ATOM     21  O   UNL     1       2.784   9.189  17.054  0.00  0.00    +0.000 OA
ATOM     22  C   UNL     1       2.079   9.674  17.937  0.00  0.00    +0.000 C 
ATOM     23  N   UNL     1       1.919  11.032  18.090  0.00  0.00    +0.000 N 
ATOM     24  H   UNL     1       1.470  11.472  18.887  0.00  0.00    +0.000 HD
BRANCH  23  25
ATOM     25  O   UNL     1       2.597  11.872  17.183  0.00  0.00    +0.000 OA
ATOM     26  H   UNL     1       1.909  12.044  16.505  0.00  0.00    +0.000 HD
ENDBRANCH  23  25
ENDBRANCH   1  22
BRANCH   3  27
ATOM     27  C   UNL     1       2.316   5.906  21.115  0.00  0.00    +0.000 C 
BRANCH  27  28
ATOM     28  C   UNL     1       2.030   4.431  20.844  0.00  0.00    +0.000 C 
ATOM     29  O   UNL     1       1.728   3.664  21.759  0.00  0.00    +0.000 OA
ATOM     30  N   UNL     1       2.097   4.020  19.519  0.00  0.00    +0.000 N 
ATOM     31  C   UNL     1       1.638   2.679  19.163  0.00  0.00    +0.000 C 
ATOM     32  C   UNL     1       2.816   1.778  18.805  0.00  0.00    +0.000 C 
ATOM     33  C   UNL     1       3.698   2.426  17.737  0.00  0.00    +0.000 C 
ATOM     34  C   UNL     1       4.111   3.842  18.145  0.00  0.00    +0.000 C 
ATOM     35  C   UNL     1       2.885   4.689  18.487  0.00  0.00    +0.000 C 
ENDBRANCH  27  28
ENDBRANCH   3  27
TORSDOF 6
ENDMDL
