MODEL 1
REMARK VINA RESULT:      -7.7      0.000      0.000
REMARK  Name = 
REMARK  5 active torsions:
REMARK  status: ('A' for Active; 'I' for Inactive)
REMARK    1  A    between atoms: N_1  and  S_2
REMARK    2  A    between atoms: S_2  and  C_5
REMARK    3  A    between atoms: C_8  and  C_9
REMARK    4  A    between atoms: C_9  and  C_10
REMARK    5  A    between atoms: C_10  and  N_11
REMARK                            x       y       z     vdW  Elec       q    Type
REMARK                         _______ _______ _______ _____ _____    ______ ____
ROOT
ATOM      1  C   UNL     1       2.019   4.485  19.698  0.00  0.00    +0.000 C 
ENDROOT
BRANCH   1   5
ATOM      2  C   UNL     1       5.648   4.581  17.374  0.00  0.00    +0.000 A 
ATOM      3  C   UNL     1       4.416   4.493  16.722  0.00  0.00    +0.000 A 
ATOM      4  C   UNL     1       3.240   4.437  17.480  0.00  0.00    +0.000 A 
ATOM      5  C   UNL     1       3.289   4.466  18.883  0.00  0.00    +0.000 A 
ATOM      6  C   UNL     1       4.536   4.539  19.518  0.00  0.00    +0.000 A 
ATOM      7  C   UNL     1       5.715   4.596  18.768  0.00  0.00    +0.000 A 
BRANCH   2   8
ATOM      8  S   UNL     1       7.140   4.677  16.428  0.00  0.00    +0.000 S 
ATOM      9  O   UNL     1       6.881   4.174  15.099  0.00  0.00    +0.000 OA
ATOM     10  O   UNL     1       8.249   4.216  17.231  0.00  0.00    +0.000 OA
BRANCH   8  11
ATOM     11  N   UNL     1       7.371   6.333  16.268  0.00  0.00    +0.000 NA
ATOM     12  H   UNL     1       8.012   6.512  15.494  0.00  0.00    +0.000 HD
ATOM     13  H   UNL     1       7.689   6.724  17.155  0.00  0.00    +0.000 HD
ENDBRANCH   8  11
ENDBRANCH   2   8
ENDBRANCH   1   5
BRANCH   1  14
ATOM     14  C   UNL     1       1.994   5.470  20.885  0.00  0.00    +0.000 C 
BRANCH  14  15
ATOM     15  N   UNL     1       2.150   6.812  20.349  0.00  0.00    +0.000 N 
ATOM     16  C   UNL     1       1.388   7.856  20.717  0.00  0.00    +0.000 A 
ATOM     17  N   UNL     1       1.140   8.902  19.961  0.00  0.00    +0.000 NA
ATOM     18  C   UNL     1       0.446   9.745  20.783  0.00  0.00    +0.000 A 
ATOM     19  C   UNL     1      -0.061  11.031  20.556  0.00  0.00    +0.000 A 
ATOM     20  C   UNL     1      -0.709  11.684  21.609  0.00  0.00    +0.000 A 
ATOM     21  C   UNL     1      -0.861  11.062  22.857  0.00  0.00    +0.000 A 
ATOM     22  C   UNL     1      -0.371   9.768  23.097  0.00  0.00    +0.000 A 
ATOM     23  C   UNL     1       0.277   9.157  22.025  0.00  0.00    +0.000 A 
ATOM     24  O   UNL     1       0.870   7.919  21.983  0.00  0.00    +0.000 OA
ATOM     25  H   UNL     1       2.363   6.839  19.358  0.00  0.00    +0.000 HD
ENDBRANCH  14  15
ENDBRANCH   1  14
TORSDOF 5
ENDMDL
MODEL 2
REMARK VINA RESULT:      -7.7      0.394      1.022
REMARK  Name = 
REMARK  5 active torsions:
REMARK  status: ('A' for Active; 'I' for Inactive)
REMARK    1  A    between atoms: N_1  and  S_2
REMARK    2  A    between atoms: S_2  and  C_5
REMARK    3  A    between atoms: C_8  and  C_9
REMARK    4  A    between atoms: C_9  and  C_10
REMARK    5  A    between atoms: C_10  and  N_11
REMARK                            x       y       z     vdW  Elec       q    Type
REMARK                         _______ _______ _______ _____ _____    ______ ____
ROOT
ATOM      1  C   UNL     1       1.850   4.701  19.632  0.00  0.00    +0.000 C 
ENDROOT
BRANCH   1   5
ATOM      2  C   UNL     1       5.569   4.731  17.451  0.00  0.00    +0.000 A 
ATOM      3  C   UNL     1       5.512   4.117  18.704  0.00  0.00    +0.000 A 
ATOM      4  C   UNL     1       4.309   4.130  19.421  0.00  0.00    +0.000 A 
ATOM      5  C   UNL     1       3.167   4.754  18.894  0.00  0.00    +0.000 A 
ATOM      6  C   UNL     1       3.249   5.379  17.642  0.00  0.00    +0.000 A 
ATOM      7  C   UNL     1       4.446   5.369  16.920  0.00  0.00    +0.000 A 
BRANCH   2   8
ATOM      8  S   UNL     1       7.075   4.702  16.524  0.00  0.00    +0.000 S 
ATOM      9  O   UNL     1       6.805   4.157  15.215  0.00  0.00    +0.000 OA
ATOM     10  O   UNL     1       8.146   4.215  17.363  0.00  0.00    +0.000 OA
BRANCH   8  11
ATOM     11  N   UNL     1       7.401   6.334  16.297  0.00  0.00    +0.000 NA
ATOM     12  H   UNL     1       8.053   6.651  17.016  0.00  0.00    +0.000 HD
ATOM     13  H   UNL     1       6.528   6.861  16.282  0.00  0.00    +0.000 HD
ENDBRANCH   8  11
ENDBRANCH   2   8
ENDBRANCH   1   5
BRANCH   1  14
ATOM     14  C   UNL     1       1.716   5.650  20.841  0.00  0.00    +0.000 C 
BRANCH  14  15
ATOM     15  N   UNL     1       1.999   6.999  20.378  0.00  0.00    +0.000 N 
ATOM     16  C   UNL     1       1.275   8.075  20.730  0.00  0.00    +0.000 A 
ATOM     17  N   UNL     1       1.155   9.163  20.002  0.00  0.00    +0.000 NA
ATOM     18  C   UNL     1       0.451  10.018  20.803  0.00  0.00    +0.000 A 
ATOM     19  C   UNL     1       0.045  11.343  20.593  0.00  0.00    +0.000 A 
ATOM     20  C   UNL     1      -0.645  11.996  21.620  0.00  0.00    +0.000 A 
ATOM     21  C   UNL     1      -0.935  11.337  22.824  0.00  0.00    +0.000 A 
ATOM     22  C   UNL     1      -0.549  10.005  23.045  0.00  0.00    +0.000 A 
ATOM     23  C   UNL     1       0.145   9.395  22.002  0.00  0.00    +0.000 A 
ATOM     24  O   UNL     1       0.662   8.123  21.953  0.00  0.00    +0.000 OA
ATOM     25  H   UNL     1       2.293   7.050  19.408  0.00  0.00    +0.000 HD
ENDBRANCH  14  15
ENDBRANCH   1  14
TORSDOF 5
ENDMDL
MODEL 3
REMARK VINA RESULT:      -7.6      3.315      8.839
REMARK  Name = 
REMARK  5 active torsions:
REMARK  status: ('A' for Active; 'I' for Inactive)
REMARK    1  A    between atoms: N_1  and  S_2
REMARK    2  A    between atoms: S_2  and  C_5
REMARK    3  A    between atoms: C_8  and  C_9
REMARK    4  A    between atoms: C_9  and  C_10
REMARK    5  A    between atoms: C_10  and  N_11
REMARK                            x       y       z     vdW  Elec       q    Type
REMARK                         _______ _______ _______ _____ _____    ______ ____
ROOT
ATOM      1  C   UNL     1       3.685   4.524  18.027  0.00  0.00    +0.000 C 
ENDROOT
BRANCH   1   5
ATOM      2  C   UNL     1       1.639   7.631  20.206  0.00  0.00    +0.000 A 
ATOM      3  C   UNL     1       1.688   6.339  20.734  0.00  0.00    +0.000 A 
ATOM      4  C   UNL     1       2.332   5.326  20.013  0.00  0.00    +0.000 A 
ATOM      5  C   UNL     1       2.924   5.597  18.768  0.00  0.00    +0.000 A 
ATOM      6  C   UNL     1       2.849   6.896  18.248  0.00  0.00    +0.000 A 
ATOM      7  C   UNL     1       2.209   7.913  18.963  0.00  0.00    +0.000 A 
BRANCH   2   8
ATOM      8  S   UNL     1       0.849   8.925  21.118  0.00  0.00    +0.000 S 
ATOM      9  O   UNL     1      -0.406   8.432  21.632  0.00  0.00    +0.000 OA
ATOM     10  O   UNL     1       0.956  10.165  20.383  0.00  0.00    +0.000 OA
BRANCH   8  11
ATOM     11  N   UNL     1       1.862   9.112  22.445  0.00  0.00    +0.000 NA
ATOM     12  H   UNL     1       2.807   9.321  22.122  0.00  0.00    +0.000 HD
ATOM     13  H   UNL     1       1.811   8.282  23.036  0.00  0.00    +0.000 HD
ENDBRANCH   8  11
ENDBRANCH   2   8
ENDBRANCH   1   5
BRANCH   1  14
ATOM     14  C   UNL     1       5.195   4.436  18.332  0.00  0.00    +0.000 C 
BRANCH  14  15
ATOM     15  N   UNL     1       5.885   5.322  17.408  0.00  0.00    +0.000 N 
ATOM     16  C   UNL     1       6.214   4.978  16.151  0.00  0.00    +0.000 A 
ATOM     17  N   UNL     1       7.219   5.492  15.477  0.00  0.00    +0.000 NA
ATOM     18  C   UNL     1       7.089   4.949  14.230  0.00  0.00    +0.000 A 
ATOM     19  C   UNL     1       7.843   5.145  13.065  0.00  0.00    +0.000 A 
ATOM     20  C   UNL     1       7.452   4.473  11.901  0.00  0.00    +0.000 A 
ATOM     21  C   UNL     1       6.343   3.615  11.904  0.00  0.00    +0.000 A 
ATOM     22  C   UNL     1       5.585   3.397  13.066  0.00  0.00    +0.000 A 
ATOM     23  C   UNL     1       6.001   4.093  14.200  0.00  0.00    +0.000 A 
ATOM     24  O   UNL     1       5.439   4.091  15.453  0.00  0.00    +0.000 OA
ATOM     25  H   UNL     1       6.607   5.888  17.840  0.00  0.00    +0.000 HD
ENDBRANCH  14  15
ENDBRANCH   1  14
TORSDOF 5
ENDMDL
MODEL 4
REMARK VINA RESULT:      -7.5      2.946      3.570
REMARK  Name = 
REMARK  5 active torsions:
REMARK  status: ('A' for Active; 'I' for Inactive)
REMARK    1  A    between atoms: N_1  and  S_2
REMARK    2  A    between atoms: S_2  and  C_5
REMARK    3  A    between atoms: C_8  and  C_9
REMARK    4  A    between atoms: C_9  and  C_10
REMARK    5  A    between atoms: C_10  and  N_11
REMARK                            x       y       z     vdW  Elec       q    Type
REMARK                         _______ _______ _______ _____ _____    ______ ____
ROOT
ATOM      1  C   UNL     1       2.954   8.278  17.749  0.00  0.00    +0.000 C 
ENDROOT
BRANCH   1   5
ATOM      2  C   UNL     1       3.264   4.241  19.228  0.00  0.00    +0.000 A 
ATOM      3  C   UNL     1       3.823   4.564  17.990  0.00  0.00    +0.000 A 
ATOM      4  C   UNL     1       3.700   5.871  17.500  0.00  0.00    +0.000 A 
ATOM      5  C   UNL     1       3.020   6.852  18.239  0.00  0.00    +0.000 A 
ATOM      6  C   UNL     1       2.451   6.503  19.472  0.00  0.00    +0.000 A 
ATOM      7  C   UNL     1       2.571   5.201  19.967  0.00  0.00    +0.000 A 
BRANCH   2   8
ATOM      8  S   UNL     1       3.433   2.600  19.869  0.00  0.00    +0.000 S 
ATOM      9  O   UNL     1       2.892   1.668  18.908  0.00  0.00    +0.000 OA
ATOM     10  O   UNL     1       3.054   2.588  21.263  0.00  0.00    +0.000 OA
BRANCH   8  11
ATOM     11  N   UNL     1       5.097   2.372  19.863  0.00  0.00    +0.000 NA
ATOM     12  H   UNL     1       5.398   2.101  18.926  0.00  0.00    +0.000 HD
ATOM     13  H   UNL     1       5.354   1.695  20.581  0.00  0.00    +0.000 HD
ENDBRANCH   8  11
ENDBRANCH   2   8
ENDBRANCH   1   5
BRANCH   1  14
ATOM     14  C   UNL     1       1.539   8.840  17.499  0.00  0.00    +0.000 C 
BRANCH  14  15
ATOM     15  N   UNL     1       1.477  10.164  18.097  0.00  0.00    +0.000 N 
ATOM     16  C   UNL     1       0.762  10.452  19.198  0.00  0.00    +0.000 A 
ATOM     17  N   UNL     1       0.274  11.639  19.480  0.00  0.00    +0.000 NA
ATOM     18  C   UNL     1      -0.251  11.489  20.733  0.00  0.00    +0.000 A 
ATOM     19  C   UNL     1      -0.878  12.414  21.579  0.00  0.00    +0.000 A 
ATOM     20  C   UNL     1      -1.292  11.982  22.844  0.00  0.00    +0.000 A 
ATOM     21  C   UNL     1      -1.098  10.654  23.249  0.00  0.00    +0.000 A 
ATOM     22  C   UNL     1      -0.486   9.710  22.409  0.00  0.00    +0.000 A 
ATOM     23  C   UNL     1      -0.079  10.184  21.162  0.00  0.00    +0.000 A 
ATOM     24  O   UNL     1       0.563   9.498  20.160  0.00  0.00    +0.000 OA
ATOM     25  H   UNL     1       1.442  10.921  17.423  0.00  0.00    +0.000 HD
ENDBRANCH  14  15
ENDBRANCH   1  14
TORSDOF 5
ENDMDL
MODEL 5
REMARK VINA RESULT:      -7.5      3.085      3.829
REMARK  Name = 
REMARK  5 active torsions:
REMARK  status: ('A' for Active; 'I' for Inactive)
REMARK    1  A    between atoms: N_1  and  S_2
REMARK    2  A    between atoms: S_2  and  C_5
REMARK    3  A    between atoms: C_8  and  C_9
REMARK    4  A    between atoms: C_9  and  C_10
REMARK    5  A    between atoms: C_10  and  N_11
REMARK                            x       y       z     vdW  Elec       q    Type
REMARK                         _______ _______ _______ _____ _____    ______ ____
ROOT
ATOM      1  C   UNL     1       2.103   7.483  18.368  0.00  0.00    +0.000 C 
ENDROOT
BRANCH   1   5
ATOM      2  C   UNL     1       5.564   5.502  16.730  0.00  0.00    +0.000 A 
ATOM      3  C   UNL     1       4.542   4.740  17.301  0.00  0.00    +0.000 A 
ATOM      4  C   UNL     1       3.430   5.387  17.854  0.00  0.00    +0.000 A 
ATOM      5  C   UNL     1       3.336   6.788  17.842  0.00  0.00    +0.000 A 
ATOM      6  C   UNL     1       4.381   7.535  17.279  0.00  0.00    +0.000 A 
ATOM      7  C   UNL     1       5.493   6.896  16.724  0.00  0.00    +0.000 A 
BRANCH   2   8
ATOM      8  S   UNL     1       6.963   4.696  16.006  0.00  0.00    +0.000 S 
ATOM      9  O   UNL     1       7.889   4.340  17.055  0.00  0.00    +0.000 OA
ATOM     10  O   UNL     1       7.370   5.413  14.819  0.00  0.00    +0.000 OA
BRANCH   8  11
ATOM     11  N   UNL     1       6.308   3.253  15.445  0.00  0.00    +0.000 NA
ATOM     12  H   UNL     1       6.675   2.478  16.000  0.00  0.00    +0.000 HD
ATOM     13  H   UNL     1       6.491   3.158  14.446  0.00  0.00    +0.000 HD
ENDBRANCH   8  11
ENDBRANCH   2   8
ENDBRANCH   1   5
BRANCH   1  14
ATOM     14  C   UNL     1       2.071   9.017  18.202  0.00  0.00    +0.000 C 
BRANCH  14  15
ATOM     15  N   UNL     1       1.030   9.534  19.074  0.00  0.00    +0.000 N 
ATOM     16  C   UNL     1      -0.140  10.023  18.630  0.00  0.00    +0.000 A 
ATOM     17  N   UNL     1      -0.863  10.918  19.266  0.00  0.00    +0.000 NA
ATOM     18  C   UNL     1      -2.004  11.010  18.518  0.00  0.00    +0.000 A 
ATOM     19  C   UNL     1      -3.164  11.773  18.710  0.00  0.00    +0.000 A 
ATOM     20  C   UNL     1      -4.206  11.638  17.787  0.00  0.00    +0.000 A 
ATOM     21  C   UNL     1      -4.088  10.773  16.690  0.00  0.00    +0.000 A 
ATOM     22  C   UNL     1      -2.928  10.011  16.475  0.00  0.00    +0.000 A 
ATOM     23  C   UNL     1      -1.918  10.167  17.423  0.00  0.00    +0.000 A 
ATOM     24  O   UNL     1      -0.699   9.536  17.479  0.00  0.00    +0.000 OA
ATOM     25  H   UNL     1       1.379  10.066  19.864  0.00  0.00    +0.000 HD
ENDBRANCH  14  15
ENDBRANCH   1  14
TORSDOF 5
ENDMDL
MODEL 6
REMARK VINA RESULT:      -7.5      4.798      8.663
REMARK  Name = 
REMARK  5 active torsions:
REMARK  status: ('A' for Active; 'I' for Inactive)
REMARK    1  A    between atoms: N_1  and  S_2
REMARK    2  A    between atoms: S_2  and  C_5
REMARK    3  A    between atoms: C_8  and  C_9
REMARK    4  A    between atoms: C_9  and  C_10
REMARK    5  A    between atoms: C_10  and  N_11
REMARK                            x       y       z     vdW  Elec       q    Type
REMARK                         _______ _______ _______ _____ _____    ______ ____
ROOT
ATOM      1  C   UNL     1       6.239   6.462  18.291  0.00  0.00    +0.000 C 
ENDROOT
BRANCH   1   5
ATOM      2  C   UNL     1       2.708   4.050  18.832  0.00  0.00    +0.000 A 
ATOM      3  C   UNL     1       2.745   4.992  17.802  0.00  0.00    +0.000 A 
ATOM      4  C   UNL     1       3.884   5.791  17.643  0.00  0.00    +0.000 A 
ATOM      5  C   UNL     1       4.982   5.655  18.509  0.00  0.00    +0.000 A 
ATOM      6  C   UNL     1       4.917   4.715  19.547  0.00  0.00    +0.000 A 
ATOM      7  C   UNL     1       3.784   3.913  19.710  0.00  0.00    +0.000 A 
BRANCH   2   8
ATOM      8  S   UNL     1       1.285   3.017  19.028  0.00  0.00    +0.000 S 
ATOM      9  O   UNL     1       1.721   1.687  19.384  0.00  0.00    +0.000 OA
ATOM     10  O   UNL     1       0.356   3.268  17.950  0.00  0.00    +0.000 OA
BRANCH   8  11
ATOM     11  N   UNL     1       0.552   3.655  20.399  0.00  0.00    +0.000 NA
ATOM     12  H   UNL     1      -0.457   3.705  20.249  0.00  0.00    +0.000 HD
ATOM     13  H   UNL     1       0.972   4.556  20.626  0.00  0.00    +0.000 HD
ENDBRANCH   8  11
ENDBRANCH   2   8
ENDBRANCH   1   5
BRANCH   1  14
ATOM     14  C   UNL     1       7.530   5.648  18.060  0.00  0.00    +0.000 C 
BRANCH  14  15
ATOM     15  N   UNL     1       7.174   4.460  17.302  0.00  0.00    +0.000 N 
ATOM     16  C   UNL     1       7.006   4.449  15.968  0.00  0.00    +0.000 A 
ATOM     17  N   UNL     1       6.236   3.603  15.321  0.00  0.00    +0.000 NA
ATOM     18  C   UNL     1       6.478   3.880  14.005  0.00  0.00    +0.000 A 
ATOM     19  C   UNL     1       5.978   3.285  12.838  0.00  0.00    +0.000 A 
ATOM     20  C   UNL     1       6.435   3.759  11.604  0.00  0.00    +0.000 A 
ATOM     21  C   UNL     1       7.358   4.812  11.535  0.00  0.00    +0.000 A 
ATOM     22  C   UNL     1       7.858   5.430  12.693  0.00  0.00    +0.000 A 
ATOM     23  C   UNL     1       7.386   4.921  13.902  0.00  0.00    +0.000 A 
ATOM     24  O   UNL     1       7.719   5.309  15.176  0.00  0.00    +0.000 OA
ATOM     25  H   UNL     1       6.500   3.860  17.765  0.00  0.00    +0.000 HD
ENDBRANCH  14  15
ENDBRANCH   1  14
TORSDOF 5
ENDMDL
MODEL 7
REMARK VINA RESULT:      -7.4      3.357      4.194
REMARK  Name = 
REMARK  5 active torsions:
REMARK  status: ('A' for Active; 'I' for Inactive)
REMARK    1  A    between atoms: N_1  and  S_2
REMARK    2  A    between atoms: S_2  and  C_5
REMARK    3  A    between atoms: C_8  and  C_9
REMARK    4  A    between atoms: C_9  and  C_10
REMARK    5  A    between atoms: C_10  and  N_11
REMARK                            x       y       z     vdW  Elec       q    Type
REMARK                         _______ _______ _______ _____ _____    ______ ____
ROOT
ATOM      1  C   UNL     1       2.844   8.291  17.911  0.00  0.00    +0.000 C 
ENDROOT
BRANCH   1   5
ATOM      2  C   UNL     1       2.459   4.332  19.573  0.00  0.00    +0.000 A 
ATOM      3  C   UNL     1       2.138   5.442  20.358  0.00  0.00    +0.000 A 
ATOM      4  C   UNL     1       2.287   6.727  19.825  0.00  0.00    +0.000 A 
ATOM      5  C   UNL     1       2.756   6.910  18.514  0.00  0.00    +0.000 A 
ATOM      6  C   UNL     1       3.088   5.784  17.747  0.00  0.00    +0.000 A 
ATOM      7  C   UNL     1       2.941   4.497  18.273  0.00  0.00    +0.000 A 
BRANCH   2   8
ATOM      8  S   UNL     1       2.252   2.701  20.227  0.00  0.00    +0.000 S 
ATOM      9  O   UNL     1       3.393   2.383  21.052  0.00  0.00    +0.000 OA
ATOM     10  O   UNL     1       1.777   1.822  19.183  0.00  0.00    +0.000 OA
BRANCH   8  11
ATOM     11  N   UNL     1       0.950   2.886  21.273  0.00  0.00    +0.000 NA
ATOM     12  H   UNL     1       0.920   2.093  21.916  0.00  0.00    +0.000 HD
ATOM     13  H   UNL     1       0.091   3.004  20.736  0.00  0.00    +0.000 HD
ENDBRANCH   8  11
ENDBRANCH   2   8
ENDBRANCH   1   5
BRANCH   1  14
ATOM     14  C   UNL     1       1.502   8.934  17.502  0.00  0.00    +0.000 C 
BRANCH  14  15
ATOM     15  N   UNL     1       1.441  10.254  18.110  0.00  0.00    +0.000 N 
ATOM     16  C   UNL     1       0.726  10.534  19.212  0.00  0.00    +0.000 A 
ATOM     17  N   UNL     1       0.239  11.720  19.503  0.00  0.00    +0.000 NA
ATOM     18  C   UNL     1      -0.288  11.561  20.754  0.00  0.00    +0.000 A 
ATOM     19  C   UNL     1      -0.915  12.481  21.606  0.00  0.00    +0.000 A 
ATOM     20  C   UNL     1      -1.330  12.040  22.867  0.00  0.00    +0.000 A 
ATOM     21  C   UNL     1      -1.138  10.709  23.263  0.00  0.00    +0.000 A 
ATOM     22  C   UNL     1      -0.526   9.771  22.416  0.00  0.00    +0.000 A 
ATOM     23  C   UNL     1      -0.117  10.253  21.173  0.00  0.00    +0.000 A 
ATOM     24  O   UNL     1       0.525   9.574  20.167  0.00  0.00    +0.000 OA
ATOM     25  H   UNL     1       1.407  11.016  17.441  0.00  0.00    +0.000 HD
ENDBRANCH  14  15
ENDBRANCH   1  14
TORSDOF 5
ENDMDL
MODEL 8
REMARK VINA RESULT:      -7.4      2.883      3.513
REMARK  Name = 
REMARK  5 active torsions:
REMARK  status: ('A' for Active; 'I' for Inactive)
REMARK    1  A    between atoms: N_1  and  S_2
REMARK    2  A    between atoms: S_2  and  C_5
REMARK    3  A    between atoms: C_8  and  C_9
REMARK    4  A    between atoms: C_9  and  C_10
REMARK    5  A    between atoms: C_10  and  N_11
REMARK                            x       y       z     vdW  Elec       q    Type
REMARK                         _______ _______ _______ _____ _____    ______ ____
ROOT
ATOM      1  C   UNL     1       3.078   8.328  17.686  0.00  0.00    +0.000 C 
ENDROOT
BRANCH   1   5
ATOM      2  C   UNL     1       3.344   4.164  18.770  0.00  0.00    +0.000 A 
ATOM      3  C   UNL     1       2.608   5.037  19.573  0.00  0.00    +0.000 A 
ATOM      4  C   UNL     1       2.543   6.394  19.232  0.00  0.00    +0.000 A 
ATOM      5  C   UNL     1       3.211   6.881  18.097  0.00  0.00    +0.000 A 
ATOM      6  C   UNL     1       3.958   5.990  17.313  0.00  0.00    +0.000 A 
ATOM      7  C   UNL     1       4.026   4.634  17.647  0.00  0.00    +0.000 A 
BRANCH   2   8
ATOM      8  S   UNL     1       3.414   2.443  19.175  0.00  0.00    +0.000 S 
ATOM      9  O   UNL     1       3.404   1.676  17.952  0.00  0.00    +0.000 OA
ATOM     10  O   UNL     1       2.513   2.170  20.272  0.00  0.00    +0.000 OA
BRANCH   8  11
ATOM     11  N   UNL     1       4.956   2.279  19.823  0.00  0.00    +0.000 NA
ATOM     12  H   UNL     1       5.568   1.844  19.131  0.00  0.00    +0.000 HD
ATOM     13  H   UNL     1       4.907   1.762  20.701  0.00  0.00    +0.000 HD
ENDBRANCH   8  11
ENDBRANCH   2   8
ENDBRANCH   1   5
BRANCH   1  14
ATOM     14  C   UNL     1       1.637   8.841  17.482  0.00  0.00    +0.000 C 
BRANCH  14  15
ATOM     15  N   UNL     1       1.540  10.147  18.111  0.00  0.00    +0.000 N 
ATOM     16  C   UNL     1       0.822  10.388  19.222  0.00  0.00    +0.000 A 
ATOM     17  N   UNL     1       0.302  11.554  19.534  0.00  0.00    +0.000 NA
ATOM     18  C   UNL     1      -0.214  11.359  20.784  0.00  0.00    +0.000 A 
ATOM     19  C   UNL     1      -0.863  12.245  21.655  0.00  0.00    +0.000 A 
ATOM     20  C   UNL     1      -1.259  11.771  22.910  0.00  0.00    +0.000 A 
ATOM     21  C   UNL     1      -1.026  10.440  23.283  0.00  0.00    +0.000 A 
ATOM     22  C   UNL     1      -0.390   9.535  22.418  0.00  0.00    +0.000 A 
ATOM     23  C   UNL     1      -0.002  10.049  21.182  0.00  0.00    +0.000 A 
ATOM     24  O   UNL     1       0.655   9.406  20.161  0.00  0.00    +0.000 OA
ATOM     25  H   UNL     1       1.481  10.919  17.456  0.00  0.00    +0.000 HD
ENDBRANCH  14  15
ENDBRANCH   1  14
TORSDOF 5
ENDMDL
MODEL 9
REMARK VINA RESULT:      -7.3      3.547      8.857
REMARK  Name = 
REMARK  5 active torsions:
REMARK  status: ('A' for Active; 'I' for Inactive)
REMARK    1  A    between atoms: N_1  and  S_2
REMARK    2  A    between atoms: S_2  and  C_5
REMARK    3  A    between atoms: C_8  and  C_9
REMARK    4  A    between atoms: C_9  and  C_10
REMARK    5  A    between atoms: C_10  and  N_11
REMARK                            x       y       z     vdW  Elec       q    Type
REMARK                         _______ _______ _______ _____ _____    ______ ____
ROOT
ATOM      1  C   UNL     1       3.602   5.312  18.077  0.00  0.00    +0.000 C 
ENDROOT
BRANCH   1   5
ATOM      2  C   UNL     1       1.576   8.869  19.429  0.00  0.00    +0.000 A 
ATOM      3  C   UNL     1       2.130   8.838  18.148  0.00  0.00    +0.000 A 
ATOM      4  C   UNL     1       2.809   7.691  17.720  0.00  0.00    +0.000 A 
ATOM      5  C   UNL     1       2.939   6.577  18.565  0.00  0.00    +0.000 A 
ATOM      6  C   UNL     1       2.390   6.634  19.854  0.00  0.00    +0.000 A 
ATOM      7  C   UNL     1       1.710   7.776  20.288  0.00  0.00    +0.000 A 
BRANCH   2   8
ATOM      8  S   UNL     1       0.695  10.303  19.974  0.00  0.00    +0.000 S 
ATOM      9  O   UNL     1      -0.721  10.054  19.848  0.00  0.00    +0.000 OA
ATOM     10  O   UNL     1       1.327  11.487  19.438  0.00  0.00    +0.000 OA
BRANCH   8  11
ATOM     11  N   UNL     1       1.024  10.335  21.621  0.00  0.00    +0.000 NA
ATOM     12  H   UNL     1       0.536   9.564  22.078  0.00  0.00    +0.000 HD
ATOM     13  H   UNL     1       0.783  11.250  22.003  0.00  0.00    +0.000 HD
ENDBRANCH   8  11
ENDBRANCH   2   8
ENDBRANCH   1   5
BRANCH   1  14
ATOM     14  C   UNL     1       5.110   5.183  18.377  0.00  0.00    +0.000 C 
BRANCH  14  15
ATOM     15  N   UNL     1       5.829   5.921  17.351  0.00  0.00    +0.000 N 
ATOM     16  C   UNL     1       6.157   5.406  16.154  0.00  0.00    +0.000 A 
ATOM     17  N   UNL     1       7.180   5.800  15.428  0.00  0.00    +0.000 NA
ATOM     18  C   UNL     1       7.043   5.101  14.262  0.00  0.00    +0.000 A 
ATOM     19  C   UNL     1       7.809   5.121  13.088  0.00  0.00    +0.000 A 
ATOM     20  C   UNL     1       7.407   4.312  12.020  0.00  0.00    +0.000 A 
ATOM     21  C   UNL     1       6.276   3.491  12.125  0.00  0.00    +0.000 A 
ATOM     22  C   UNL     1       5.505   3.447  13.299  0.00  0.00    +0.000 A 
ATOM     23  C   UNL     1       5.933   4.276  14.335  0.00  0.00    +0.000 A 
ATOM     24  O   UNL     1       5.363   4.455  15.571  0.00  0.00    +0.000 OA
ATOM     25  H   UNL     1       6.564   6.521  17.711  0.00  0.00    +0.000 HD
ENDBRANCH  14  15
ENDBRANCH   1  14
TORSDOF 5
ENDMDL
