MODEL 1
REMARK VINA RESULT:      -7.4      0.000      0.000
REMARK  Name = 
REMARK  4 active torsions:
REMARK  status: ('A' for Active; 'I' for Inactive)
REMARK    1  A    between atoms: N_1  and  C_2
REMARK    2  A    between atoms: C_2  and  C_3
REMARK    3  A    between atoms: C_3  and  C_4
REMARK    4  A    between atoms: C_9  and  C_10
REMARK                            x       y       z     vdW  Elec       q    Type
REMARK                         _______ _______ _______ _____ _____    ______ ____
ROOT
ATOM      1  C   UNL     1       6.421   4.300  14.460  0.00  0.00    +0.000 A 
ATOM      2  C   UNL     1       7.365   4.879  15.329  0.00  0.00    +0.000 A 
ATOM      3  C   UNL     1       7.095   5.055  16.696  0.00  0.00    +0.000 A 
ATOM      4  C   UNL     1       5.855   4.631  17.183  0.00  0.00    +0.000 A 
ATOM      5  N   UNL     1       5.327   4.671  18.446  0.00  0.00    +0.000 NA
ATOM      6  C   UNL     1       4.142   4.100  18.311  0.00  0.00    +0.000 A 
ATOM      7  O   UNL     1       3.842   3.706  17.029  0.00  0.00    +0.000 OA
ATOM      8  C   UNL     1       4.951   4.050  16.311  0.00  0.00    +0.000 A 
ATOM      9  C   UNL     1       5.176   3.859  14.950  0.00  0.00    +0.000 A 
ENDROOT
BRANCH   6  10
ATOM     10  C   UNL     1       3.157   3.801  19.349  0.00  0.00    +0.000 A 
ATOM     11  C   UNL     1       3.491   2.897  20.370  0.00  0.00    +0.000 A 
ATOM     12  C   UNL     1       2.557   2.534  21.343  0.00  0.00    +0.000 A 
ATOM     13  C   UNL     1       1.273   3.073  21.308  0.00  0.00    +0.000 A 
ATOM     14  C   UNL     1       0.930   3.986  20.312  0.00  0.00    +0.000 A 
ATOM     15  C   UNL     1       1.867   4.350  19.340  0.00  0.00    +0.000 A 
ENDBRANCH   6  10
BRANCH   1  16
ATOM     16  C   UNL     1       6.749   4.147  12.991  0.00  0.00    +0.000 C 
BRANCH  16  17
ATOM     17  C   UNL     1       5.713   3.299  12.244  0.00  0.00    +0.000 C 
BRANCH  17  18
ATOM     18  N   UNL     1       6.288   2.021  11.828  0.00  0.00    +0.000 NA
ATOM     19  H   UNL     1       6.977   2.185  11.095  0.00  0.00    +0.000 HD
ATOM     20  H   UNL     1       5.564   1.438  11.411  0.00  0.00    +0.000 HD
ENDBRANCH  17  18
ENDBRANCH  16  17
ENDBRANCH   1  16
TORSDOF 4
ENDMDL
MODEL 2
REMARK VINA RESULT:      -7.4      0.108      1.142
REMARK  Name = 
REMARK  4 active torsions:
REMARK  status: ('A' for Active; 'I' for Inactive)
REMARK    1  A    between atoms: N_1  and  C_2
REMARK    2  A    between atoms: C_2  and  C_3
REMARK    3  A    between atoms: C_3  and  C_4
REMARK    4  A    between atoms: C_9  and  C_10
REMARK                            x       y       z     vdW  Elec       q    Type
REMARK                         _______ _______ _______ _____ _____    ______ ____
ROOT
ATOM      1  C   UNL     1       6.420   4.238  14.430  0.00  0.00    +0.000 A 
ATOM      2  C   UNL     1       7.309   4.933  15.272  0.00  0.00    +0.000 A 
ATOM      3  C   UNL     1       7.017   5.153  16.627  0.00  0.00    +0.000 A 
ATOM      4  C   UNL     1       5.811   4.656  17.131  0.00  0.00    +0.000 A 
ATOM      5  N   UNL     1       5.273   4.715  18.389  0.00  0.00    +0.000 NA
ATOM      6  C   UNL     1       4.138   4.045  18.279  0.00  0.00    +0.000 A 
ATOM      7  O   UNL     1       3.879   3.566  17.017  0.00  0.00    +0.000 OA
ATOM      8  C   UNL     1       4.963   3.962  16.286  0.00  0.00    +0.000 A 
ATOM      9  C   UNL     1       5.211   3.724  14.937  0.00  0.00    +0.000 A 
ENDROOT
BRANCH   6  10
ATOM     10  C   UNL     1       3.173   3.719  19.327  0.00  0.00    +0.000 A 
ATOM     11  C   UNL     1       1.910   4.332  19.309  0.00  0.00    +0.000 A 
ATOM     12  C   UNL     1       0.982   4.098  20.327  0.00  0.00    +0.000 A 
ATOM     13  C   UNL     1       1.307   3.244  21.379  0.00  0.00    +0.000 A 
ATOM     14  C   UNL     1       2.549   2.614  21.403  0.00  0.00    +0.000 A 
ATOM     15  C   UNL     1       3.476   2.846  20.382  0.00  0.00    +0.000 A 
ENDBRANCH   6  10
BRANCH   1  16
ATOM     16  C   UNL     1       6.770   4.040  12.971  0.00  0.00    +0.000 C 
BRANCH  16  17
ATOM     17  C   UNL     1       5.684   3.275  12.207  0.00  0.00    +0.000 C 
BRANCH  17  18
ATOM     18  N   UNL     1       6.175   1.967  11.774  0.00  0.00    +0.000 NA
ATOM     19  H   UNL     1       7.170   1.894  11.986  0.00  0.00    +0.000 HD
ATOM     20  H   UNL     1       6.096   1.888  10.761  0.00  0.00    +0.000 HD
ENDBRANCH  17  18
ENDBRANCH  16  17
ENDBRANCH   1  16
TORSDOF 4
ENDMDL
MODEL 3
REMARK VINA RESULT:      -7.1      1.915      6.984
REMARK  Name = 
REMARK  4 active torsions:
REMARK  status: ('A' for Active; 'I' for Inactive)
REMARK    1  A    between atoms: N_1  and  C_2
REMARK    2  A    between atoms: C_2  and  C_3
REMARK    3  A    between atoms: C_3  and  C_4
REMARK    4  A    between atoms: C_9  and  C_10
REMARK                            x       y       z     vdW  Elec       q    Type
REMARK                         _______ _______ _______ _____ _____    ______ ____
ROOT
ATOM      1  C   UNL     1       2.196   4.529  19.150  0.00  0.00    +0.000 A 
ATOM      2  C   UNL     1       2.615   5.866  19.282  0.00  0.00    +0.000 A 
ATOM      3  C   UNL     1       3.558   6.430  18.409  0.00  0.00    +0.000 A 
ATOM      4  C   UNL     1       4.073   5.627  17.386  0.00  0.00    +0.000 A 
ATOM      5  N   UNL     1       4.985   5.903  16.403  0.00  0.00    +0.000 NA
ATOM      6  C   UNL     1       5.054   4.779  15.710  0.00  0.00    +0.000 A 
ATOM      7  O   UNL     1       4.260   3.764  16.191  0.00  0.00    +0.000 OA
ATOM      8  C   UNL     1       3.631   4.321  17.268  0.00  0.00    +0.000 A 
ATOM      9  C   UNL     1       2.701   3.721  18.113  0.00  0.00    +0.000 A 
ENDROOT
BRANCH   6  10
ATOM     10  C   UNL     1       5.818   4.508  14.494  0.00  0.00    +0.000 A 
ATOM     11  C   UNL     1       7.054   5.147  14.306  0.00  0.00    +0.000 A 
ATOM     12  C   UNL     1       7.786   4.967  13.130  0.00  0.00    +0.000 A 
ATOM     13  C   UNL     1       7.289   4.141  12.124  0.00  0.00    +0.000 A 
ATOM     14  C   UNL     1       6.073   3.484  12.302  0.00  0.00    +0.000 A 
ATOM     15  C   UNL     1       5.343   3.664  13.481  0.00  0.00    +0.000 A 
ENDBRANCH   6  10
BRANCH   1  16
ATOM     16  C   UNL     1       1.189   3.959  20.127  0.00  0.00    +0.000 C 
BRANCH  16  17
ATOM     17  C   UNL     1       1.629   2.605  20.697  0.00  0.00    +0.000 C 
BRANCH  17  18
ATOM     18  N   UNL     1       1.765   2.673  22.151  0.00  0.00    +0.000 NA
ATOM     19  H   UNL     1       0.840   2.763  22.572  0.00  0.00    +0.000 HD
ATOM     20  H   UNL     1       2.276   3.516  22.410  0.00  0.00    +0.000 HD
ENDBRANCH  17  18
ENDBRANCH  16  17
ENDBRANCH   1  16
TORSDOF 4
ENDMDL
MODEL 4
REMARK VINA RESULT:      -7.0      1.900      6.972
REMARK  Name = 
REMARK  4 active torsions:
REMARK  status: ('A' for Active; 'I' for Inactive)
REMARK    1  A    between atoms: N_1  and  C_2
REMARK    2  A    between atoms: C_2  and  C_3
REMARK    3  A    between atoms: C_3  and  C_4
REMARK    4  A    between atoms: C_9  and  C_10
REMARK                            x       y       z     vdW  Elec       q    Type
REMARK                         _______ _______ _______ _____ _____    ______ ____
ROOT
ATOM      1  C   UNL     1       2.110   4.352  19.320  0.00  0.00    +0.000 A 
ATOM      2  C   UNL     1       2.650   5.618  19.616  0.00  0.00    +0.000 A 
ATOM      3  C   UNL     1       3.642   6.200  18.811  0.00  0.00    +0.000 A 
ATOM      4  C   UNL     1       4.082   5.489  17.690  0.00  0.00    +0.000 A 
ATOM      5  N   UNL     1       5.017   5.803  16.740  0.00  0.00    +0.000 NA
ATOM      6  C   UNL     1       4.983   4.774  15.910  0.00  0.00    +0.000 A 
ATOM      7  O   UNL     1       4.099   3.783  16.268  0.00  0.00    +0.000 OA
ATOM      8  C   UNL     1       3.522   4.254  17.412  0.00  0.00    +0.000 A 
ATOM      9  C   UNL     1       2.541   3.639  18.185  0.00  0.00    +0.000 A 
ENDROOT
BRANCH   6  10
ATOM     10  C   UNL     1       5.721   4.591  14.662  0.00  0.00    +0.000 A 
ATOM     11  C   UNL     1       5.200   3.735  13.678  0.00  0.00    +0.000 A 
ATOM     12  C   UNL     1       5.905   3.481  12.499  0.00  0.00    +0.000 A 
ATOM     13  C   UNL     1       7.143   4.083  12.288  0.00  0.00    +0.000 A 
ATOM     14  C   UNL     1       7.667   4.950  13.245  0.00  0.00    +0.000 A 
ATOM     15  C   UNL     1       6.959   5.205  14.424  0.00  0.00    +0.000 A 
ENDBRANCH   6  10
BRANCH   1  16
ATOM     16  C   UNL     1       1.054   3.757  20.228  0.00  0.00    +0.000 C 
BRANCH  16  17
ATOM     17  C   UNL     1       1.587   2.580  21.053  0.00  0.00    +0.000 C 
BRANCH  17  18
ATOM     18  N   UNL     1       2.305   3.056  22.234  0.00  0.00    +0.000 NA
ATOM     19  H   UNL     1       2.979   2.349  22.527  0.00  0.00    +0.000 HD
ATOM     20  H   UNL     1       1.655   3.165  23.011  0.00  0.00    +0.000 HD
ENDBRANCH  17  18
ENDBRANCH  16  17
ENDBRANCH   1  16
TORSDOF 4
ENDMDL
MODEL 5
REMARK VINA RESULT:      -7.0      1.842      6.918
REMARK  Name = 
REMARK  4 active torsions:
REMARK  status: ('A' for Active; 'I' for Inactive)
REMARK    1  A    between atoms: N_1  and  C_2
REMARK    2  A    between atoms: C_2  and  C_3
REMARK    3  A    between atoms: C_3  and  C_4
REMARK    4  A    between atoms: C_9  and  C_10
REMARK                            x       y       z     vdW  Elec       q    Type
REMARK                         _______ _______ _______ _____ _____    ______ ____
ROOT
ATOM      1  C   UNL     1       3.352   3.762  19.722  0.00  0.00    +0.000 A 
ATOM      2  C   UNL     1       3.268   5.168  19.707  0.00  0.00    +0.000 A 
ATOM      3  C   UNL     1       3.790   5.924  18.646  0.00  0.00    +0.000 A 
ATOM      4  C   UNL     1       4.397   5.242  17.586  0.00  0.00    +0.000 A 
ATOM      5  N   UNL     1       4.979   5.707  16.438  0.00  0.00    +0.000 NA
ATOM      6  C   UNL     1       5.346   4.608  15.801  0.00  0.00    +0.000 A 
ATOM      7  O   UNL     1       5.064   3.441  16.471  0.00  0.00    +0.000 OA
ATOM      8  C   UNL     1       4.451   3.860  17.618  0.00  0.00    +0.000 A 
ATOM      9  C   UNL     1       3.950   3.071  18.650  0.00  0.00    +0.000 A 
ENDROOT
BRANCH   6  10
ATOM     10  C   UNL     1       5.957   4.487  14.479  0.00  0.00    +0.000 A 
ATOM     11  C   UNL     1       5.366   3.641  13.527  0.00  0.00    +0.000 A 
ATOM     12  C   UNL     1       5.953   3.445  12.274  0.00  0.00    +0.000 A 
ATOM     13  C   UNL     1       7.143   4.098  11.957  0.00  0.00    +0.000 A 
ATOM     14  C   UNL     1       7.733   4.956  12.883  0.00  0.00    +0.000 A 
ATOM     15  C   UNL     1       7.143   5.152  14.135  0.00  0.00    +0.000 A 
ENDBRANCH   6  10
BRANCH   1  16
ATOM     16  C   UNL     1       2.790   2.990  20.896  0.00  0.00    +0.000 C 
BRANCH  16  17
ATOM     17  C   UNL     1       1.307   3.291  21.138  0.00  0.00    +0.000 C 
BRANCH  17  18
ATOM     18  N   UNL     1       0.508   2.950  19.962  0.00  0.00    +0.000 NA
ATOM     19  H   UNL     1       1.073   2.393  19.321  0.00  0.00    +0.000 HD
ATOM     20  H   UNL     1       0.262   3.799  19.455  0.00  0.00    +0.000 HD
ENDBRANCH  17  18
ENDBRANCH  16  17
ENDBRANCH   1  16
TORSDOF 4
ENDMDL
MODEL 6
REMARK VINA RESULT:      -6.7      4.899      7.865
REMARK  Name = 
REMARK  4 active torsions:
REMARK  status: ('A' for Active; 'I' for Inactive)
REMARK    1  A    between atoms: N_1  and  C_2
REMARK    2  A    between atoms: C_2  and  C_3
REMARK    3  A    between atoms: C_3  and  C_4
REMARK    4  A    between atoms: C_9  and  C_10
REMARK                            x       y       z     vdW  Elec       q    Type
REMARK                         _______ _______ _______ _____ _____    ______ ____
ROOT
ATOM      1  C   UNL     1       0.497  10.279  19.626  0.00  0.00    +0.000 A 
ATOM      2  C   UNL     1       0.576   9.533  20.818  0.00  0.00    +0.000 A 
ATOM      3  C   UNL     1       1.283   8.322  20.881  0.00  0.00    +0.000 A 
ATOM      4  C   UNL     1       1.922   7.870  19.722  0.00  0.00    +0.000 A 
ATOM      5  N   UNL     1       2.673   6.748  19.493  0.00  0.00    +0.000 NA
ATOM      6  C   UNL     1       3.043   6.868  18.229  0.00  0.00    +0.000 A 
ATOM      7  O   UNL     1       2.561   7.992  17.599  0.00  0.00    +0.000 OA
ATOM      8  C   UNL     1       1.843   8.631  18.569  0.00  0.00    +0.000 A 
ATOM      9  C   UNL     1       1.151   9.834  18.461  0.00  0.00    +0.000 A 
ENDROOT
BRANCH   6  10
ATOM     10  C   UNL     1       3.922   5.995  17.455  0.00  0.00    +0.000 A 
ATOM     11  C   UNL     1       4.836   6.568  16.556  0.00  0.00    +0.000 A 
ATOM     12  C   UNL     1       5.649   5.768  15.748  0.00  0.00    +0.000 A 
ATOM     13  C   UNL     1       5.559   4.380  15.833  0.00  0.00    +0.000 A 
ATOM     14  C   UNL     1       4.670   3.795  16.733  0.00  0.00    +0.000 A 
ATOM     15  C   UNL     1       3.859   4.597  17.542  0.00  0.00    +0.000 A 
ENDBRANCH   6  10
BRANCH   1  16
ATOM     16  C   UNL     1      -0.291  11.571  19.601  0.00  0.00    +0.000 C 
BRANCH  16  17
ATOM     17  C   UNL     1      -1.409  11.554  18.552  0.00  0.00    +0.000 C 
BRANCH  17  18
ATOM     18  N   UNL     1      -1.199  12.600  17.552  0.00  0.00    +0.000 NA
ATOM     19  H   UNL     1      -1.897  13.333  17.681  0.00  0.00    +0.000 HD
ATOM     20  H   UNL     1      -1.357  12.221  16.620  0.00  0.00    +0.000 HD
ENDBRANCH  17  18
ENDBRANCH  16  17
ENDBRANCH   1  16
TORSDOF 4
ENDMDL
MODEL 7
REMARK VINA RESULT:      -6.7      3.636      4.822
REMARK  Name = 
REMARK  4 active torsions:
REMARK  status: ('A' for Active; 'I' for Inactive)
REMARK    1  A    between atoms: N_1  and  C_2
REMARK    2  A    between atoms: C_2  and  C_3
REMARK    3  A    between atoms: C_3  and  C_4
REMARK    4  A    between atoms: C_9  and  C_10
REMARK                            x       y       z     vdW  Elec       q    Type
REMARK                         _______ _______ _______ _____ _____    ______ ____
ROOT
ATOM      1  C   UNL     1       4.772   4.502  16.989  0.00  0.00    +0.000 A 
ATOM      2  C   UNL     1       4.328   3.579  17.956  0.00  0.00    +0.000 A 
ATOM      3  C   UNL     1       3.499   3.971  19.018  0.00  0.00    +0.000 A 
ATOM      4  C   UNL     1       3.111   5.313  19.093  0.00  0.00    +0.000 A 
ATOM      5  N   UNL     1       2.319   5.968  19.998  0.00  0.00    +0.000 NA
ATOM      6  C   UNL     1       2.279   7.209  19.543  0.00  0.00    +0.000 A 
ATOM      7  O   UNL     1       3.018   7.422  18.403  0.00  0.00    +0.000 OA
ATOM      8  C   UNL     1       3.548   6.195  18.120  0.00  0.00    +0.000 A 
ATOM      9  C   UNL     1       4.373   5.851  17.053  0.00  0.00    +0.000 A 
ENDROOT
BRANCH   6  10
ATOM     10  C   UNL     1       1.521   8.343  20.067  0.00  0.00    +0.000 A 
ATOM     11  C   UNL     1       1.149   8.350  21.421  0.00  0.00    +0.000 A 
ATOM     12  C   UNL     1       0.368   9.383  21.947  0.00  0.00    +0.000 A 
ATOM     13  C   UNL     1      -0.050  10.425  21.123  0.00  0.00    +0.000 A 
ATOM     14  C   UNL     1       0.326  10.443  19.781  0.00  0.00    +0.000 A 
ATOM     15  C   UNL     1       1.109   9.410  19.256  0.00  0.00    +0.000 A 
ENDBRANCH   6  10
BRANCH   1  16
ATOM     16  C   UNL     1       5.680   4.037  15.871  0.00  0.00    +0.000 C 
BRANCH  16  17
ATOM     17  C   UNL     1       7.054   4.716  15.911  0.00  0.00    +0.000 C 
BRANCH  17  18
ATOM     18  N   UNL     1       7.857   4.200  17.019  0.00  0.00    +0.000 NA
ATOM     19  H   UNL     1       7.307   3.523  17.547  0.00  0.00    +0.000 HD
ATOM     20  H   UNL     1       8.074   4.955  17.668  0.00  0.00    +0.000 HD
ENDBRANCH  17  18
ENDBRANCH  16  17
ENDBRANCH   1  16
TORSDOF 4
ENDMDL
MODEL 8
REMARK VINA RESULT:      -6.6      3.670      4.535
REMARK  Name = 
REMARK  4 active torsions:
REMARK  status: ('A' for Active; 'I' for Inactive)
REMARK    1  A    between atoms: N_1  and  C_2
REMARK    2  A    between atoms: C_2  and  C_3
REMARK    3  A    between atoms: C_3  and  C_4
REMARK    4  A    between atoms: C_9  and  C_10
REMARK                            x       y       z     vdW  Elec       q    Type
REMARK                         _______ _______ _______ _____ _____    ______ ____
ROOT
ATOM      1  C   UNL     1       5.257   4.391  16.396  0.00  0.00    +0.000 A 
ATOM      2  C   UNL     1       4.489   3.466  17.131  0.00  0.00    +0.000 A 
ATOM      3  C   UNL     1       3.479   3.886  18.010  0.00  0.00    +0.000 A 
ATOM      4  C   UNL     1       3.243   5.258  18.138  0.00  0.00    +0.000 A 
ATOM      5  N   UNL     1       2.337   5.944  18.902  0.00  0.00    +0.000 NA
ATOM      6  C   UNL     1       2.551   7.210  18.586  0.00  0.00    +0.000 A 
ATOM      7  O   UNL     1       3.563   7.407  17.675  0.00  0.00    +0.000 OA
ATOM      8  C   UNL     1       3.999   6.144  17.391  0.00  0.00    +0.000 A 
ATOM      9  C   UNL     1       5.012   5.773  16.510  0.00  0.00    +0.000 A 
ENDROOT
BRANCH   6  10
ATOM     10  C   UNL     1       1.825   8.394  19.041  0.00  0.00    +0.000 A 
ATOM     11  C   UNL     1       1.427   8.478  20.385  0.00  0.00    +0.000 A 
ATOM     12  C   UNL     1       0.675   9.561  20.847  0.00  0.00    +0.000 A 
ATOM     13  C   UNL     1       0.312  10.578  19.967  0.00  0.00    +0.000 A 
ATOM     14  C   UNL     1       0.714  10.520  18.634  0.00  0.00    +0.000 A 
ATOM     15  C   UNL     1       1.468   9.436  18.174  0.00  0.00    +0.000 A 
ENDBRANCH   6  10
BRANCH   1  16
ATOM     16  C   UNL     1       6.347   3.893  15.472  0.00  0.00    +0.000 C 
BRANCH  16  17
ATOM     17  C   UNL     1       6.543   4.803  14.254  0.00  0.00    +0.000 C 
BRANCH  17  18
ATOM     18  N   UNL     1       7.837   5.480  14.313  0.00  0.00    +0.000 NA
ATOM     19  H   UNL     1       8.529   4.850  14.717  0.00  0.00    +0.000 HD
ATOM     20  H   UNL     1       7.779   6.278  14.945  0.00  0.00    +0.000 HD
ENDBRANCH  17  18
ENDBRANCH  16  17
ENDBRANCH   1  16
TORSDOF 4
ENDMDL
MODEL 9
REMARK VINA RESULT:      -6.6      3.705      4.652
REMARK  Name = 
REMARK  4 active torsions:
REMARK  status: ('A' for Active; 'I' for Inactive)
REMARK    1  A    between atoms: N_1  and  C_2
REMARK    2  A    between atoms: C_2  and  C_3
REMARK    3  A    between atoms: C_3  and  C_4
REMARK    4  A    between atoms: C_9  and  C_10
REMARK                            x       y       z     vdW  Elec       q    Type
REMARK                         _______ _______ _______ _____ _____    ______ ____
ROOT
ATOM      1  C   UNL     1       5.290   4.425  16.368  0.00  0.00    +0.000 A 
ATOM      2  C   UNL     1       4.439   3.493  16.992  0.00  0.00    +0.000 A 
ATOM      3  C   UNL     1       3.390   3.903  17.829  0.00  0.00    +0.000 A 
ATOM      4  C   UNL     1       3.200   5.274  18.026  0.00  0.00    +0.000 A 
ATOM      5  N   UNL     1       2.272   5.952  18.772  0.00  0.00    +0.000 NA
ATOM      6  C   UNL     1       2.557   7.224  18.550  0.00  0.00    +0.000 A 
ATOM      7  O   UNL     1       3.635   7.430  17.720  0.00  0.00    +0.000 OA
ATOM      8  C   UNL     1       4.039   6.169  17.387  0.00  0.00    +0.000 A 
ATOM      9  C   UNL     1       5.093   5.808  16.553  0.00  0.00    +0.000 A 
ENDROOT
BRANCH   6  10
ATOM     10  C   UNL     1       1.849   8.409  19.030  0.00  0.00    +0.000 A 
ATOM     11  C   UNL     1       1.676   9.501  18.164  0.00  0.00    +0.000 A 
ATOM     12  C   UNL     1       1.064  10.677  18.603  0.00  0.00    +0.000 A 
ATOM     13  C   UNL     1       0.613  10.776  19.918  0.00  0.00    +0.000 A 
ATOM     14  C   UNL     1       0.761   9.695  20.786  0.00  0.00    +0.000 A 
ATOM     15  C   UNL     1       1.372   8.518  20.344  0.00  0.00    +0.000 A 
ENDBRANCH   6  10
BRANCH   1  16
ATOM     16  C   UNL     1       6.420   3.936  15.488  0.00  0.00    +0.000 C 
BRANCH  16  17
ATOM     17  C   UNL     1       6.527   4.727  14.178  0.00  0.00    +0.000 C 
BRANCH  17  18
ATOM     18  N   UNL     1       7.787   5.465  14.117  0.00  0.00    +0.000 NA
ATOM     19  H   UNL     1       7.843   6.102  14.911  0.00  0.00    +0.000 HD
ATOM     20  H   UNL     1       7.802   6.050  13.283  0.00  0.00    +0.000 HD
ENDBRANCH  17  18
ENDBRANCH  16  17
ENDBRANCH   1  16
TORSDOF 4
ENDMDL
