MODEL 1
REMARK VINA RESULT:      -6.7      0.000      0.000
REMARK  Name = 
REMARK  7 active torsions:
REMARK  status: ('A' for Active; 'I' for Inactive)
REMARK    1  A    between atoms: C_1  and  C_2
REMARK    2  A    between atoms: C_2  and  C_3
REMARK    3  A    between atoms: C_2  and  C_4
REMARK    4  A    between atoms: C_2  and  N_5
REMARK    5  A    between atoms: C_6  and  C_8
REMARK    6  A    between atoms: C_8  and  N_9
REMARK    7  A    between atoms: C_10  and  C_12
REMARK                            x       y       z     vdW  Elec       q    Type
REMARK                         _______ _______ _______ _____ _____    ______ ____
ROOT
ATOM      1  N   UNL     1       5.191   3.400  16.511  0.00  0.00    +0.000 N 
ATOM      2  C   UNL     1       4.112   4.148  16.908  0.00  0.00    +0.000 C 
ATOM      3  O   UNL     1       4.183   5.372  16.954  0.00  0.00    +0.000 OA
ATOM      4  H   UNL     1       5.073   2.424  16.271  0.00  0.00    +0.000 HD
ENDROOT
BRANCH   2   5
ATOM      5  C   UNL     1       2.858   3.359  17.301  0.00  0.00    +0.000 C 
ATOM      6  C   UNL     1       3.244   2.073  18.048  0.00  0.00    +0.000 C 
ATOM      7  C   UNL     1       3.783   2.355  19.454  0.00  0.00    +0.000 C 
ATOM      8  C   UNL     1       2.819   3.202  20.275  0.00  0.00    +0.000 C 
ATOM      9  C   UNL     1       2.393   4.470  19.540  0.00  0.00    +0.000 C 
ATOM     10  C   UNL     1       1.858   4.163  18.144  0.00  0.00    +0.000 C 
ENDBRANCH   2   5
BRANCH   1  11
ATOM     11  C   UNL     1       6.428   4.048  16.112  0.00  0.00    +0.000 C 
BRANCH  11  13
ATOM     12  N   UNL     1       6.260   3.297  13.776  0.00  0.00    +0.000 N 
ATOM     13  C   UNL     1       6.431   4.380  14.618  0.00  0.00    +0.000 C 
ATOM     14  O   UNL     1       6.552   5.542  14.232  0.00  0.00    +0.000 OA
ATOM     15  H   UNL     1       6.075   2.396  14.222  0.00  0.00    +0.000 HD
BRANCH  12  17
ATOM     16  C   UNL     1       6.622   2.026  11.689  0.00  0.00    +0.000 C 
ATOM     17  C   UNL     1       6.243   3.380  12.308  0.00  0.00    +0.000 C 
ATOM     18  C   UNL     1       7.210   4.470  11.811  0.00  0.00    +0.000 C 
ATOM     19  C   UNL     1       4.821   3.738  11.834  0.00  0.00    +0.000 C 
ENDBRANCH  12  17
ENDBRANCH  11  13
ENDBRANCH   1  11
TORSDOF 4
ENDMDL
MODEL 2
REMARK VINA RESULT:      -6.7      3.377      4.168
REMARK  Name = 
REMARK  7 active torsions:
REMARK  status: ('A' for Active; 'I' for Inactive)
REMARK    1  A    between atoms: C_1  and  C_2
REMARK    2  A    between atoms: C_2  and  C_3
REMARK    3  A    between atoms: C_2  and  C_4
REMARK    4  A    between atoms: C_2  and  N_5
REMARK    5  A    between atoms: C_6  and  C_8
REMARK    6  A    between atoms: C_8  and  N_9
REMARK    7  A    between atoms: C_10  and  C_12
REMARK                            x       y       z     vdW  Elec       q    Type
REMARK                         _______ _______ _______ _____ _____    ______ ____
ROOT
ATOM      1  N   UNL     1       2.970   4.606  18.316  0.00  0.00    +0.000 N 
ATOM      2  C   UNL     1       1.851   3.916  17.925  0.00  0.00    +0.000 C 
ATOM      3  O   UNL     1       1.053   4.414  17.137  0.00  0.00    +0.000 OA
ATOM      4  H   UNL     1       3.725   4.126  18.790  0.00  0.00    +0.000 HD
ENDROOT
BRANCH   2   5
ATOM      5  C   UNL     1       1.667   2.528  18.549  0.00  0.00    +0.000 C 
ATOM      6  C   UNL     1       3.015   1.977  19.040  0.00  0.00    +0.000 C 
ATOM      7  C   UNL     1       3.530   2.715  20.280  0.00  0.00    +0.000 C 
ATOM      8  C   UNL     1       2.499   2.734  21.402  0.00  0.00    +0.000 C 
ATOM      9  C   UNL     1       1.140   3.246  20.931  0.00  0.00    +0.000 C 
ATOM     10  C   UNL     1       0.648   2.494  19.697  0.00  0.00    +0.000 C 
ENDBRANCH   2   5
BRANCH   1  11
ATOM     11  C   UNL     1       3.243   5.929  17.781  0.00  0.00    +0.000 C 
BRANCH  11  13
ATOM     12  N   UNL     1       5.646   5.769  18.277  0.00  0.00    +0.000 N 
ATOM     13  C   UNL     1       4.695   6.057  17.316  0.00  0.00    +0.000 C 
ATOM     14  O   UNL     1       4.959   6.369  16.155  0.00  0.00    +0.000 OA
ATOM     15  H   UNL     1       5.299   5.429  19.177  0.00  0.00    +0.000 HD
BRANCH  12  17
ATOM     16  C   UNL     1       7.547   4.740  17.081  0.00  0.00    +0.000 C 
ATOM     17  C   UNL     1       7.098   5.840  18.056  0.00  0.00    +0.000 C 
ATOM     18  C   UNL     1       7.862   5.703  19.384  0.00  0.00    +0.000 C 
ATOM     19  C   UNL     1       7.453   7.202  17.429  0.00  0.00    +0.000 C 
ENDBRANCH  12  17
ENDBRANCH  11  13
ENDBRANCH   1  11
TORSDOF 4
ENDMDL
MODEL 3
REMARK VINA RESULT:      -6.6      3.362      4.150
REMARK  Name = 
REMARK  7 active torsions:
REMARK  status: ('A' for Active; 'I' for Inactive)
REMARK    1  A    between atoms: C_1  and  C_2
REMARK    2  A    between atoms: C_2  and  C_3
REMARK    3  A    between atoms: C_2  and  C_4
REMARK    4  A    between atoms: C_2  and  N_5
REMARK    5  A    between atoms: C_6  and  C_8
REMARK    6  A    between atoms: C_8  and  N_9
REMARK    7  A    between atoms: C_10  and  C_12
REMARK                            x       y       z     vdW  Elec       q    Type
REMARK                         _______ _______ _______ _____ _____    ______ ____
ROOT
ATOM      1  N   UNL     1       2.991   4.635  18.098  0.00  0.00    +0.000 N 
ATOM      2  C   UNL     1       1.815   3.988  17.812  0.00  0.00    +0.000 C 
ATOM      3  O   UNL     1       0.940   4.543  17.156  0.00  0.00    +0.000 OA
ATOM      4  H   UNL     1       3.786   4.115  18.449  0.00  0.00    +0.000 HD
ENDROOT
BRANCH   2   5
ATOM      5  C   UNL     1       1.675   2.571  18.381  0.00  0.00    +0.000 C 
ATOM      6  C   UNL     1       3.038   2.045  18.856  0.00  0.00    +0.000 C 
ATOM      7  C   UNL     1       3.525   2.750  20.126  0.00  0.00    +0.000 C 
ATOM      8  C   UNL     1       2.490   2.691  21.243  0.00  0.00    +0.000 C 
ATOM      9  C   UNL     1       1.117   3.176  20.786  0.00  0.00    +0.000 C 
ATOM     10  C   UNL     1       0.654   2.458  19.521  0.00  0.00    +0.000 C 
ENDBRANCH   2   5
BRANCH   1  11
ATOM     11  C   UNL     1       3.229   5.980  17.604  0.00  0.00    +0.000 C 
BRANCH  11  13
ATOM     12  N   UNL     1       5.617   5.775  18.156  0.00  0.00    +0.000 N 
ATOM     13  C   UNL     1       4.694   6.182  17.211  0.00  0.00    +0.000 C 
ATOM     14  O   UNL     1       4.992   6.650  16.112  0.00  0.00    +0.000 OA
ATOM     15  H   UNL     1       5.244   5.314  18.989  0.00  0.00    +0.000 HD
BRANCH  12  17
ATOM     16  C   UNL     1       7.780   5.686  19.346  0.00  0.00    +0.000 C 
ATOM     17  C   UNL     1       7.074   5.887  17.996  0.00  0.00    +0.000 C 
ATOM     18  C   UNL     1       7.457   7.255  17.406  0.00  0.00    +0.000 C 
ATOM     19  C   UNL     1       7.567   4.788  17.035  0.00  0.00    +0.000 C 
ENDBRANCH  12  17
ENDBRANCH  11  13
ENDBRANCH   1  11
TORSDOF 4
ENDMDL
MODEL 4
REMARK VINA RESULT:      -6.6      0.335      1.117
REMARK  Name = 
REMARK  7 active torsions:
REMARK  status: ('A' for Active; 'I' for Inactive)
REMARK    1  A    between atoms: C_1  and  C_2
REMARK    2  A    between atoms: C_2  and  C_3
REMARK    3  A    between atoms: C_2  and  C_4
REMARK    4  A    between atoms: C_2  and  N_5
REMARK    5  A    between atoms: C_6  and  C_8
REMARK    6  A    between atoms: C_8  and  N_9
REMARK    7  A    between atoms: C_10  and  C_12
REMARK                            x       y       z     vdW  Elec       q    Type
REMARK                         _______ _______ _______ _____ _____    ______ ____
ROOT
ATOM      1  N   UNL     1       5.393   3.472  16.446  0.00  0.00    +0.000 N 
ATOM      2  C   UNL     1       4.300   4.114  16.971  0.00  0.00    +0.000 C 
ATOM      3  O   UNL     1       4.339   5.316  17.215  0.00  0.00    +0.000 OA
ATOM      4  H   UNL     1       5.298   2.545  16.052  0.00  0.00    +0.000 HD
ENDROOT
BRANCH   2   5
ATOM      5  C   UNL     1       3.074   3.236  17.244  0.00  0.00    +0.000 C 
ATOM      6  C   UNL     1       3.448   2.062  18.163  0.00  0.00    +0.000 C 
ATOM      7  C   UNL     1       3.727   2.513  19.600  0.00  0.00    +0.000 C 
ATOM      8  C   UNL     1       2.572   3.321  20.179  0.00  0.00    +0.000 C 
ATOM      9  C   UNL     1       2.159   4.474  19.268  0.00  0.00    +0.000 C 
ATOM     10  C   UNL     1       1.885   3.999  17.843  0.00  0.00    +0.000 C 
ENDBRANCH   2   5
BRANCH   1  11
ATOM     11  C   UNL     1       6.606   4.212  16.144  0.00  0.00    +0.000 C 
BRANCH  11  13
ATOM     12  N   UNL     1       6.123   3.481  13.847  0.00  0.00    +0.000 N 
ATOM     13  C   UNL     1       6.789   4.399  14.637  0.00  0.00    +0.000 C 
ATOM     14  O   UNL     1       7.465   5.328  14.195  0.00  0.00    +0.000 OA
ATOM     15  H   UNL     1       5.517   2.815  14.331  0.00  0.00    +0.000 HD
BRANCH  12  17
ATOM     16  C   UNL     1       7.132   4.540  11.856  0.00  0.00    +0.000 C 
ATOM     17  C   UNL     1       6.167   3.463  12.377  0.00  0.00    +0.000 C 
ATOM     18  C   UNL     1       4.765   3.688  11.784  0.00  0.00    +0.000 C 
ATOM     19  C   UNL     1       6.684   2.092  11.899  0.00  0.00    +0.000 C 
ENDBRANCH  12  17
ENDBRANCH  11  13
ENDBRANCH   1  11
TORSDOF 4
ENDMDL
MODEL 5
REMARK VINA RESULT:      -6.5      3.027      6.438
REMARK  Name = 
REMARK  7 active torsions:
REMARK  status: ('A' for Active; 'I' for Inactive)
REMARK    1  A    between atoms: C_1  and  C_2
REMARK    2  A    between atoms: C_2  and  C_3
REMARK    3  A    between atoms: C_2  and  C_4
REMARK    4  A    between atoms: C_2  and  N_5
REMARK    5  A    between atoms: C_6  and  C_8
REMARK    6  A    between atoms: C_8  and  N_9
REMARK    7  A    between atoms: C_10  and  C_12
REMARK                            x       y       z     vdW  Elec       q    Type
REMARK                         _______ _______ _______ _____ _____    ______ ____
ROOT
ATOM      1  N   UNL     1       3.540   6.824  17.702  0.00  0.00    +0.000 N 
ATOM      2  C   UNL     1       4.814   6.348  17.879  0.00  0.00    +0.000 C 
ATOM      3  O   UNL     1       5.105   5.698  18.878  0.00  0.00    +0.000 OA
ATOM      4  H   UNL     1       3.247   7.170  16.797  0.00  0.00    +0.000 HD
ENDROOT
BRANCH   2   5
ATOM      5  C   UNL     1       5.820   6.701  16.778  0.00  0.00    +0.000 C 
ATOM      6  C   UNL     1       7.212   6.147  17.123  0.00  0.00    +0.000 C 
ATOM      7  C   UNL     1       7.276   4.621  17.006  0.00  0.00    +0.000 C 
ATOM      8  C   UNL     1       6.811   4.133  15.639  0.00  0.00    +0.000 C 
ATOM      9  C   UNL     1       5.445   4.698  15.258  0.00  0.00    +0.000 C 
ATOM     10  C   UNL     1       5.406   6.219  15.381  0.00  0.00    +0.000 C 
ENDBRANCH   2   5
BRANCH   1  11
ATOM     11  C   UNL     1       2.507   6.543  18.683  0.00  0.00    +0.000 C 
BRANCH  11  13
ATOM     12  N   UNL     1       2.345   4.373  19.828  0.00  0.00    +0.000 N 
ATOM     13  C   UNL     1       2.097   5.069  18.660  0.00  0.00    +0.000 C 
ATOM     14  O   UNL     1       1.562   4.581  17.665  0.00  0.00    +0.000 OA
ATOM     15  H   UNL     1       2.706   4.915  20.616  0.00  0.00    +0.000 HD
BRANCH  12  17
ATOM     16  C   UNL     1       3.134   2.075  19.380  0.00  0.00    +0.000 C 
ATOM     17  C   UNL     1       2.045   2.947  20.024  0.00  0.00    +0.000 C 
ATOM     18  C   UNL     1       0.671   2.589  19.430  0.00  0.00    +0.000 C 
ATOM     19  C   UNL     1       2.018   2.634  21.533  0.00  0.00    +0.000 C 
ENDBRANCH  12  17
ENDBRANCH  11  13
ENDBRANCH   1  11
TORSDOF 4
ENDMDL
MODEL 6
REMARK VINA RESULT:      -6.5      3.005      6.385
REMARK  Name = 
REMARK  7 active torsions:
REMARK  status: ('A' for Active; 'I' for Inactive)
REMARK    1  A    between atoms: C_1  and  C_2
REMARK    2  A    between atoms: C_2  and  C_3
REMARK    3  A    between atoms: C_2  and  C_4
REMARK    4  A    between atoms: C_2  and  N_5
REMARK    5  A    between atoms: C_6  and  C_8
REMARK    6  A    between atoms: C_8  and  N_9
REMARK    7  A    between atoms: C_10  and  C_12
REMARK                            x       y       z     vdW  Elec       q    Type
REMARK                         _______ _______ _______ _____ _____    ______ ____
ROOT
ATOM      1  N   UNL     1       3.564   6.793  17.625  0.00  0.00    +0.000 N 
ATOM      2  C   UNL     1       4.848   6.367  17.851  0.00  0.00    +0.000 C 
ATOM      3  O   UNL     1       5.140   5.785  18.890  0.00  0.00    +0.000 OA
ATOM      4  H   UNL     1       3.277   7.078  16.696  0.00  0.00    +0.000 HD
ENDROOT
BRANCH   2   5
ATOM      5  C   UNL     1       5.864   6.688  16.748  0.00  0.00    +0.000 C 
ATOM      6  C   UNL     1       7.242   6.108  17.102  0.00  0.00    +0.000 C 
ATOM      7  C   UNL     1       7.275   4.580  17.002  0.00  0.00    +0.000 C 
ATOM      8  C   UNL     1       6.803   4.088  15.639  0.00  0.00    +0.000 C 
ATOM      9  C   UNL     1       5.450   4.677  15.249  0.00  0.00    +0.000 C 
ATOM     10  C   UNL     1       5.443   6.200  15.355  0.00  0.00    +0.000 C 
ENDBRANCH   2   5
BRANCH   1  11
ATOM     11  C   UNL     1       2.521   6.537  18.603  0.00  0.00    +0.000 C 
BRANCH  11  13
ATOM     12  N   UNL     1       2.441   4.379  19.778  0.00  0.00    +0.000 N 
ATOM     13  C   UNL     1       2.118   5.061  18.620  0.00  0.00    +0.000 C 
ATOM     14  O   UNL     1       1.526   4.559  17.665  0.00  0.00    +0.000 OA
ATOM     15  H   UNL     1       2.846   4.931  20.536  0.00  0.00    +0.000 HD
BRANCH  12  17
ATOM     16  C   UNL     1       2.316   2.608  21.497  0.00  0.00    +0.000 C 
ATOM     17  C   UNL     1       2.160   2.954  20.007  0.00  0.00    +0.000 C 
ATOM     18  C   UNL     1       3.097   2.069  19.166  0.00  0.00    +0.000 C 
ATOM     19  C   UNL     1       0.706   2.648  19.600  0.00  0.00    +0.000 C 
ENDBRANCH  12  17
ENDBRANCH  11  13
ENDBRANCH   1  11
TORSDOF 4
ENDMDL
MODEL 7
REMARK VINA RESULT:      -6.5      0.979      1.683
REMARK  Name = 
REMARK  7 active torsions:
REMARK  status: ('A' for Active; 'I' for Inactive)
REMARK    1  A    between atoms: C_1  and  C_2
REMARK    2  A    between atoms: C_2  and  C_3
REMARK    3  A    between atoms: C_2  and  C_4
REMARK    4  A    between atoms: C_2  and  N_5
REMARK    5  A    between atoms: C_6  and  C_8
REMARK    6  A    between atoms: C_8  and  N_9
REMARK    7  A    between atoms: C_10  and  C_12
REMARK                            x       y       z     vdW  Elec       q    Type
REMARK                         _______ _______ _______ _____ _____    ______ ____
ROOT
ATOM      1  N   UNL     1       4.907   4.226  16.529  0.00  0.00    +0.000 N 
ATOM      2  C   UNL     1       4.675   4.327  17.877  0.00  0.00    +0.000 C 
ATOM      3  O   UNL     1       5.583   4.150  18.683  0.00  0.00    +0.000 OA
ATOM      4  H   UNL     1       4.225   4.574  15.867  0.00  0.00    +0.000 HD
ENDROOT
BRANCH   2   5
ATOM      5  C   UNL     1       3.232   4.644  18.286  0.00  0.00    +0.000 C 
ATOM      6  C   UNL     1       2.243   3.791  17.475  0.00  0.00    +0.000 C 
ATOM      7  C   UNL     1       2.275   2.315  17.885  0.00  0.00    +0.000 C 
ATOM      8  C   UNL     1       2.061   2.134  19.383  0.00  0.00    +0.000 C 
ATOM      9  C   UNL     1       3.009   2.998  20.211  0.00  0.00    +0.000 C 
ATOM     10  C   UNL     1       2.958   4.463  19.786  0.00  0.00    +0.000 C 
ENDBRANCH   2   5
BRANCH   1  11
ATOM     11  C   UNL     1       6.240   3.933  16.032  0.00  0.00    +0.000 C 
BRANCH  11  13
ATOM     12  N   UNL     1       5.917   3.142  13.726  0.00  0.00    +0.000 N 
ATOM     13  C   UNL     1       6.346   4.185  14.526  0.00  0.00    +0.000 C 
ATOM     14  O   UNL     1       6.761   5.260  14.096  0.00  0.00    +0.000 OA
ATOM     15  H   UNL     1       5.505   2.339  14.205  0.00  0.00    +0.000 HD
BRANCH  12  17
ATOM     16  C   UNL     1       7.074   4.064  11.748  0.00  0.00    +0.000 C 
ATOM     17  C   UNL     1       5.940   3.160  12.256  0.00  0.00    +0.000 C 
ATOM     18  C   UNL     1       4.593   3.647  11.693  0.00  0.00    +0.000 C 
ATOM     19  C   UNL     1       6.200   1.734  11.733  0.00  0.00    +0.000 C 
ENDBRANCH  12  17
ENDBRANCH  11  13
ENDBRANCH   1  11
TORSDOF 4
ENDMDL
MODEL 8
REMARK VINA RESULT:      -6.5      3.397      4.554
REMARK  Name = 
REMARK  7 active torsions:
REMARK  status: ('A' for Active; 'I' for Inactive)
REMARK    1  A    between atoms: C_1  and  C_2
REMARK    2  A    between atoms: C_2  and  C_3
REMARK    3  A    between atoms: C_2  and  C_4
REMARK    4  A    between atoms: C_2  and  N_5
REMARK    5  A    between atoms: C_6  and  C_8
REMARK    6  A    between atoms: C_8  and  N_9
REMARK    7  A    between atoms: C_10  and  C_12
REMARK                            x       y       z     vdW  Elec       q    Type
REMARK                         _______ _______ _______ _____ _____    ______ ____
ROOT
ATOM      1  N   UNL     1       2.646   5.186  18.332  0.00  0.00    +0.000 N 
ATOM      2  C   UNL     1       2.123   4.993  19.585  0.00  0.00    +0.000 C 
ATOM      3  O   UNL     1       2.096   5.909  20.400  0.00  0.00    +0.000 OA
ATOM      4  H   UNL     1       2.479   4.507  17.600  0.00  0.00    +0.000 HD
ENDROOT
BRANCH   2   5
ATOM      5  C   UNL     1       1.613   3.579  19.887  0.00  0.00    +0.000 C 
ATOM      6  C   UNL     1       1.220   2.859  18.588  0.00  0.00    +0.000 C 
ATOM      7  C   UNL     1       2.439   2.483  17.739  0.00  0.00    +0.000 C 
ATOM      8  C   UNL     1       3.458   1.674  18.531  0.00  0.00    +0.000 C 
ATOM      9  C   UNL     1       3.839   2.351  19.845  0.00  0.00    +0.000 C 
ATOM     10  C   UNL     1       2.609   2.715  20.673  0.00  0.00    +0.000 C 
ENDBRANCH   2   5
BRANCH   1  11
ATOM     11  C   UNL     1       3.153   6.489  17.940  0.00  0.00    +0.000 C 
BRANCH  11  13
ATOM     12  N   UNL     1       5.534   6.043  18.359  0.00  0.00    +0.000 N 
ATOM     13  C   UNL     1       4.588   6.399  17.417  0.00  0.00    +0.000 C 
ATOM     14  O   UNL     1       4.840   6.609  16.231  0.00  0.00    +0.000 OA
ATOM     15  H   UNL     1       5.185   5.802  19.289  0.00  0.00    +0.000 HD
BRANCH  12  17
ATOM     16  C   UNL     1       7.526   7.208  17.479  0.00  0.00    +0.000 C 
ATOM     17  C   UNL     1       6.972   5.909  18.083  0.00  0.00    +0.000 C 
ATOM     18  C   UNL     1       7.239   4.734  17.126  0.00  0.00    +0.000 C 
ATOM     19  C   UNL     1       7.722   5.641  19.402  0.00  0.00    +0.000 C 
ENDBRANCH  12  17
ENDBRANCH  11  13
ENDBRANCH   1  11
TORSDOF 4
ENDMDL
MODEL 9
REMARK VINA RESULT:      -6.4      6.538      7.895
REMARK  Name = 
REMARK  7 active torsions:
REMARK  status: ('A' for Active; 'I' for Inactive)
REMARK    1  A    between atoms: C_1  and  C_2
REMARK    2  A    between atoms: C_2  and  C_3
REMARK    3  A    between atoms: C_2  and  C_4
REMARK    4  A    between atoms: C_2  and  N_5
REMARK    5  A    between atoms: C_6  and  C_8
REMARK    6  A    between atoms: C_8  and  N_9
REMARK    7  A    between atoms: C_10  and  C_12
REMARK                            x       y       z     vdW  Elec       q    Type
REMARK                         _______ _______ _______ _____ _____    ______ ____
ROOT
ATOM      1  N   UNL     1       8.260   8.078  18.333  0.00  0.00    +0.000 N 
ATOM      2  C   UNL     1       7.523   7.103  17.710  0.00  0.00    +0.000 C 
ATOM      3  O   UNL     1       6.783   7.382  16.773  0.00  0.00    +0.000 OA
ATOM      4  H   UNL     1       9.018   7.825  18.954  0.00  0.00    +0.000 HD
ENDROOT
BRANCH   2   5
ATOM      5  C   UNL     1       7.673   5.686  18.275  0.00  0.00    +0.000 C 
ATOM      6  C   UNL     1       6.682   5.459  19.427  0.00  0.00    +0.000 C 
ATOM      7  C   UNL     1       5.234   5.354  18.938  0.00  0.00    +0.000 C 
ATOM      8  C   UNL     1       5.074   4.295  17.854  0.00  0.00    +0.000 C 
ATOM      9  C   UNL     1       6.071   4.478  16.714  0.00  0.00    +0.000 C 
ATOM     10  C   UNL     1       7.506   4.578  17.226  0.00  0.00    +0.000 C 
ENDBRANCH   2   5
BRANCH   1  11
ATOM     11  C   UNL     1       8.196   9.455  17.874  0.00  0.00    +0.000 C 
BRANCH  11  13
ATOM     12  N   UNL     1       9.843  11.281  17.852  0.00  0.00    +0.000 N 
ATOM     13  C   UNL     1       9.186  10.345  18.628  0.00  0.00    +0.000 C 
ATOM     14  O   UNL     1       9.339  10.226  19.844  0.00  0.00    +0.000 OA
ATOM     15  H   UNL     1       9.557  11.343  16.872  0.00  0.00    +0.000 HD
BRANCH  12  17
ATOM     16  C   UNL     1      11.432  13.061  17.213  0.00  0.00    +0.000 C 
ATOM     17  C   UNL     1      10.843  12.229  18.363  0.00  0.00    +0.000 C 
ATOM     18  C   UNL     1      11.972  11.489  19.102  0.00  0.00    +0.000 C 
ATOM     19  C   UNL     1      10.168  13.198  19.352  0.00  0.00    +0.000 C 
ENDBRANCH  12  17
ENDBRANCH  11  13
ENDBRANCH   1  11
TORSDOF 4
ENDMDL
