MODEL 1
REMARK VINA RESULT:      -7.7      0.000      0.000
REMARK  Name = 
REMARK  7 active torsions:
REMARK  status: ('A' for Active; 'I' for Inactive)
REMARK    1  A    between atoms: C_1  and  C_2
REMARK    2  A    between atoms: C_7  and  C_8
REMARK    3  A    between atoms: C_8  and  C_9
REMARK    4  A    between atoms: C_9  and  C_10
REMARK    5  A    between atoms: C_10  and  O_11
REMARK    6  A    between atoms: O_11  and  C_12
REMARK    7  A    between atoms: C_15  and  C_16
REMARK                            x       y       z     vdW  Elec       q    Type
REMARK                         _______ _______ _______ _____ _____    ______ ____
ROOT
ATOM      1  C   UNL     1       2.007   2.026  19.756  0.00  0.00    +0.000 C 
ENDROOT
BRANCH   1   8
ATOM      2  C   UNL     1       6.996   5.046  15.240  0.00  0.00    +0.000 C 
ATOM      3  C   UNL     1       6.264   4.577  16.458  0.00  0.00    +0.000 A 
ATOM      4  C   UNL     1       6.757   4.817  17.745  0.00  0.00    +0.000 A 
ATOM      5  N   UNL     1       6.177   4.436  18.913  0.00  0.00    +0.000 NA
ATOM      6  C   UNL     1       5.026   3.773  18.707  0.00  0.00    +0.000 A 
ATOM      7  N   UNL     1       4.199   3.258  19.662  0.00  0.00    +0.000 N 
ATOM      8  C   UNL     1       3.136   2.667  19.022  0.00  0.00    +0.000 A 
ATOM      9  N   UNL     1       3.247   2.775  17.710  0.00  0.00    +0.000 NA
ATOM     10  C   UNL     1       4.418   3.463  17.501  0.00  0.00    +0.000 A 
ATOM     11  C   UNL     1       5.053   3.879  16.327  0.00  0.00    +0.000 A 
ATOM     12  H   UNL     1       4.354   3.325  20.655  0.00  0.00    +0.000 HD
ENDBRANCH   1   8
BRANCH   1  13
ATOM     13  C   UNL     1       1.564   2.844  20.968  0.00  0.00    +0.000 C 
BRANCH  13  14
ATOM     14  C   UNL     1       1.056   4.233  20.585  0.00  0.00    +0.000 C 
BRANCH  14  15
ATOM     15  O   UNL     1       2.078   5.191  20.878  0.00  0.00    +0.000 OA
BRANCH  15  16
ATOM     16  C   UNL     1       1.970   6.397  20.235  0.00  0.00    +0.000 A 
ATOM     17  C   UNL     1       2.472   6.421  18.934  0.00  0.00    +0.000 A 
ATOM     18  C   UNL     1       2.435   7.598  18.178  0.00  0.00    +0.000 A 
ATOM     19  C   UNL     1       1.896   8.774  18.716  0.00  0.00    +0.000 A 
ATOM     20  C   UNL     1       1.878  10.031  17.893  0.00  0.00    +0.000 C 
ATOM     21  C   UNL     1       1.389   8.739  20.023  0.00  0.00    +0.000 A 
ATOM     22 CL   UNL     1       0.709  10.146  20.763  0.00  0.00    +0.000 Cl
ATOM     23  C   UNL     1       1.424   7.561  20.775  0.00  0.00    +0.000 A 
ENDBRANCH  15  16
ENDBRANCH  14  15
ENDBRANCH  13  14
ENDBRANCH   1  13
TORSDOF 5
ENDMDL
MODEL 2
REMARK VINA RESULT:      -7.5      3.322      5.288
REMARK  Name = 
REMARK  7 active torsions:
REMARK  status: ('A' for Active; 'I' for Inactive)
REMARK    1  A    between atoms: C_1  and  C_2
REMARK    2  A    between atoms: C_7  and  C_8
REMARK    3  A    between atoms: C_8  and  C_9
REMARK    4  A    between atoms: C_9  and  C_10
REMARK    5  A    between atoms: C_10  and  O_11
REMARK    6  A    between atoms: O_11  and  C_12
REMARK    7  A    between atoms: C_15  and  C_16
REMARK                            x       y       z     vdW  Elec       q    Type
REMARK                         _______ _______ _______ _____ _____    ______ ____
ROOT
ATOM      1  C   UNL     1       7.082   6.346  17.223  0.00  0.00    +0.000 C 
ENDROOT
BRANCH   1   8
ATOM      2  C   UNL     1       5.048   2.436  11.309  0.00  0.00    +0.000 C 
ATOM      3  C   UNL     1       5.795   3.330  12.248  0.00  0.00    +0.000 A 
ATOM      4  C   UNL     1       6.988   3.956  11.868  0.00  0.00    +0.000 A 
ATOM      5  N   UNL     1       7.744   4.782  12.638  0.00  0.00    +0.000 NA
ATOM      6  C   UNL     1       7.213   4.950  13.861  0.00  0.00    +0.000 A 
ATOM      7  N   UNL     1       7.718   5.715  14.872  0.00  0.00    +0.000 N 
ATOM      8  C   UNL     1       6.864   5.611  15.944  0.00  0.00    +0.000 A 
ATOM      9  N   UNL     1       5.845   4.817  15.669  0.00  0.00    +0.000 NA
ATOM     10  C   UNL     1       6.049   4.401  14.375  0.00  0.00    +0.000 A 
ATOM     11  C   UNL     1       5.305   3.559  13.543  0.00  0.00    +0.000 A 
ATOM     12  H   UNL     1       8.563   6.261  14.813  0.00  0.00    +0.000 HD
ENDBRANCH   1   8
BRANCH   1  13
ATOM     13  C   UNL     1       7.362   5.404  18.393  0.00  0.00    +0.000 C 
BRANCH  13  14
ATOM     14  C   UNL     1       6.210   5.353  19.395  0.00  0.00    +0.000 C 
BRANCH  14  15
ATOM     15  O   UNL     1       5.015   5.788  18.740  0.00  0.00    +0.000 OA
BRANCH  15  16
ATOM     16  C   UNL     1       3.928   4.962  18.865  0.00  0.00    +0.000 A 
ATOM     17  C   UNL     1       3.274   4.660  17.671  0.00  0.00    +0.000 A 
ATOM     18  C   UNL     1       2.141   3.838  17.668  0.00  0.00    +0.000 A 
ATOM     19  C   UNL     1       1.642   3.307  18.865  0.00  0.00    +0.000 A 
ATOM     20  C   UNL     1       0.416   2.439  18.842  0.00  0.00    +0.000 C 
ATOM     21  C   UNL     1       2.309   3.613  20.060  0.00  0.00    +0.000 A 
ATOM     22 CL   UNL     1       1.758   3.002  21.581  0.00  0.00    +0.000 Cl
ATOM     23  C   UNL     1       3.443   4.431  20.060  0.00  0.00    +0.000 A 
ENDBRANCH  15  16
ENDBRANCH  14  15
ENDBRANCH  13  14
ENDBRANCH   1  13
TORSDOF 5
ENDMDL
MODEL 3
REMARK VINA RESULT:      -7.4      1.779      2.508
REMARK  Name = 
REMARK  7 active torsions:
REMARK  status: ('A' for Active; 'I' for Inactive)
REMARK    1  A    between atoms: C_1  and  C_2
REMARK    2  A    between atoms: C_7  and  C_8
REMARK    3  A    between atoms: C_8  and  C_9
REMARK    4  A    between atoms: C_9  and  C_10
REMARK    5  A    between atoms: C_10  and  O_11
REMARK    6  A    between atoms: O_11  and  C_12
REMARK    7  A    between atoms: C_15  and  C_16
REMARK                            x       y       z     vdW  Elec       q    Type
REMARK                         _______ _______ _______ _____ _____    ______ ____
ROOT
ATOM      1  C   UNL     1       3.342   2.907  17.582  0.00  0.00    +0.000 C 
ENDROOT
BRANCH   1   8
ATOM      2  C   UNL     1       8.178   8.476  17.615  0.00  0.00    +0.000 C 
ATOM      3  C   UNL     1       7.462   7.198  17.921  0.00  0.00    +0.000 A 
ATOM      4  C   UNL     1       7.921   6.322  18.911  0.00  0.00    +0.000 A 
ATOM      5  N   UNL     1       7.352   5.141  19.267  0.00  0.00    +0.000 NA
ATOM      6  C   UNL     1       6.252   4.878  18.542  0.00  0.00    +0.000 A 
ATOM      7  N   UNL     1       5.447   3.781  18.648  0.00  0.00    +0.000 N 
ATOM      8  C   UNL     1       4.435   3.911  17.727  0.00  0.00    +0.000 A 
ATOM      9  N   UNL     1       4.557   5.031  17.038  0.00  0.00    +0.000 NA
ATOM     10  C   UNL     1       5.681   5.643  17.537  0.00  0.00    +0.000 A 
ATOM     11  C   UNL     1       6.303   6.852  17.209  0.00  0.00    +0.000 A 
ATOM     12  H   UNL     1       5.585   3.027  19.304  0.00  0.00    +0.000 HD
ENDBRANCH   1   8
BRANCH   1  13
ATOM     13  C   UNL     1       1.956   3.529  17.755  0.00  0.00    +0.000 C 
BRANCH  13  14
ATOM     14  C   UNL     1       1.659   3.907  19.205  0.00  0.00    +0.000 C 
BRANCH  14  15
ATOM     15  O   UNL     1       2.645   4.845  19.644  0.00  0.00    +0.000 OA
BRANCH  15  16
ATOM     16  C   UNL     1       2.231   6.148  19.741  0.00  0.00    +0.000 A 
ATOM     17  C   UNL     1       1.588   6.478  20.935  0.00  0.00    +0.000 A 
ATOM     18  C   UNL     1       1.105   7.773  21.148  0.00  0.00    +0.000 A 
ATOM     19  C   UNL     1       1.255   8.762  20.167  0.00  0.00    +0.000 A 
ATOM     20  C   UNL     1       0.716  10.143  20.411  0.00  0.00    +0.000 C 
ATOM     21  C   UNL     1       1.907   8.422  18.973  0.00  0.00    +0.000 A 
ATOM     22 CL   UNL     1       2.131   9.581  17.709  0.00  0.00    +0.000 Cl
ATOM     23  C   UNL     1       2.392   7.129  18.762  0.00  0.00    +0.000 A 
ENDBRANCH  15  16
ENDBRANCH  14  15
ENDBRANCH  13  14
ENDBRANCH   1  13
TORSDOF 5
ENDMDL
MODEL 4
REMARK VINA RESULT:      -7.3      3.317      5.408
REMARK  Name = 
REMARK  7 active torsions:
REMARK  status: ('A' for Active; 'I' for Inactive)
REMARK    1  A    between atoms: C_1  and  C_2
REMARK    2  A    between atoms: C_7  and  C_8
REMARK    3  A    between atoms: C_8  and  C_9
REMARK    4  A    between atoms: C_9  and  C_10
REMARK    5  A    between atoms: C_10  and  O_11
REMARK    6  A    between atoms: O_11  and  C_12
REMARK    7  A    between atoms: C_15  and  C_16
REMARK                            x       y       z     vdW  Elec       q    Type
REMARK                         _______ _______ _______ _____ _____    ______ ____
ROOT
ATOM      1  C   UNL     1       7.310   5.984  17.191  0.00  0.00    +0.000 C 
ENDROOT
BRANCH   1   8
ATOM      2  C   UNL     1       4.560   2.675  11.199  0.00  0.00    +0.000 C 
ATOM      3  C   UNL     1       5.450   3.422  12.143  0.00  0.00    +0.000 A 
ATOM      4  C   UNL     1       6.691   3.923  11.734  0.00  0.00    +0.000 A 
ATOM      5  N   UNL     1       7.574   4.611  12.505  0.00  0.00    +0.000 NA
ATOM      6  C   UNL     1       7.122   4.772  13.761  0.00  0.00    +0.000 A 
ATOM      7  N   UNL     1       7.760   5.415  14.781  0.00  0.00    +0.000 N 
ATOM      8  C   UNL     1       6.948   5.352  15.889  0.00  0.00    +0.000 A 
ATOM      9  N   UNL     1       5.831   4.700  15.627  0.00  0.00    +0.000 NA
ATOM     10  C   UNL     1       5.925   4.335  14.305  0.00  0.00    +0.000 A 
ATOM     11  C   UNL     1       5.049   3.634  13.471  0.00  0.00    +0.000 A 
ATOM     12  H   UNL     1       8.661   5.860  14.707  0.00  0.00    +0.000 HD
ENDBRANCH   1   8
BRANCH   1  13
ATOM     13  C   UNL     1       6.085   6.258  18.063  0.00  0.00    +0.000 C 
BRANCH  13  14
ATOM     14  C   UNL     1       6.105   5.464  19.368  0.00  0.00    +0.000 C 
BRANCH  14  15
ATOM     15  O   UNL     1       5.872   4.084  19.068  0.00  0.00    +0.000 OA
BRANCH  15  16
ATOM     16  C   UNL     1       4.560   3.687  19.054  0.00  0.00    +0.000 A 
ATOM     17  C   UNL     1       4.268   2.639  18.181  0.00  0.00    +0.000 A 
ATOM     18  C   UNL     1       2.961   2.153  18.064  0.00  0.00    +0.000 A 
ATOM     19  C   UNL     1       1.922   2.714  18.819  0.00  0.00    +0.000 A 
ATOM     20  C   UNL     1       0.523   2.187  18.668  0.00  0.00    +0.000 C 
ATOM     21  C   UNL     1       2.225   3.764  19.696  0.00  0.00    +0.000 A 
ATOM     22 CL   UNL     1       1.002   4.514  20.661  0.00  0.00    +0.000 Cl
ATOM     23  C   UNL     1       3.532   4.246  19.814  0.00  0.00    +0.000 A 
ENDBRANCH  15  16
ENDBRANCH  14  15
ENDBRANCH  13  14
ENDBRANCH   1  13
TORSDOF 5
ENDMDL
MODEL 5
REMARK VINA RESULT:      -7.3      1.947      3.011
REMARK  Name = 
REMARK  7 active torsions:
REMARK  status: ('A' for Active; 'I' for Inactive)
REMARK    1  A    between atoms: C_1  and  C_2
REMARK    2  A    between atoms: C_7  and  C_8
REMARK    3  A    between atoms: C_8  and  C_9
REMARK    4  A    between atoms: C_9  and  C_10
REMARK    5  A    between atoms: C_10  and  O_11
REMARK    6  A    between atoms: O_11  and  C_12
REMARK    7  A    between atoms: C_15  and  C_16
REMARK                            x       y       z     vdW  Elec       q    Type
REMARK                         _______ _______ _______ _____ _____    ______ ____
ROOT
ATOM      1  C   UNL     1       4.206   2.067  19.519  0.00  0.00    +0.000 C 
ENDROOT
BRANCH   1   8
ATOM      2  C   UNL     1       7.997   8.110  17.644  0.00  0.00    +0.000 C 
ATOM      3  C   UNL     1       7.232   6.825  17.593  0.00  0.00    +0.000 A 
ATOM      4  C   UNL     1       6.976   6.175  16.381  0.00  0.00    +0.000 A 
ATOM      5  N   UNL     1       6.295   5.010  16.220  0.00  0.00    +0.000 NA
ATOM      6  C   UNL     1       5.866   4.516  17.394  0.00  0.00    +0.000 A 
ATOM      7  N   UNL     1       5.156   3.367  17.585  0.00  0.00    +0.000 N 
ATOM      8  C   UNL     1       4.929   3.233  18.934  0.00  0.00    +0.000 A 
ATOM      9  N   UNL     1       5.453   4.240  19.610  0.00  0.00    +0.000 NA
ATOM     10  C   UNL     1       6.041   5.043  18.663  0.00  0.00    +0.000 A 
ATOM     11  C   UNL     1       6.752   6.243  18.777  0.00  0.00    +0.000 A 
ATOM     12  H   UNL     1       4.872   2.737  16.852  0.00  0.00    +0.000 HD
ENDBRANCH   1   8
BRANCH   1  13
ATOM     13  C   UNL     1       3.231   1.431  18.529  0.00  0.00    +0.000 C 
BRANCH  13  14
ATOM     14  C   UNL     1       1.794   1.908  18.732  0.00  0.00    +0.000 C 
BRANCH  14  15
ATOM     15  O   UNL     1       1.571   3.054  17.905  0.00  0.00    +0.000 OA
BRANCH  15  16
ATOM     16  C   UNL     1       1.712   4.272  18.518  0.00  0.00    +0.000 A 
ATOM     17  C   UNL     1       1.274   4.323  19.842  0.00  0.00    +0.000 A 
ATOM     18  C   UNL     1       1.351   5.514  20.571  0.00  0.00    +0.000 A 
ATOM     19  C   UNL     1       1.865   6.678  19.985  0.00  0.00    +0.000 A 
ATOM     20  C   UNL     1       1.926   7.951  20.781  0.00  0.00    +0.000 C 
ATOM     21  C   UNL     1       2.307   6.616  18.655  0.00  0.00    +0.000 A 
ATOM     22 CL   UNL     1       2.952   8.007  17.855  0.00  0.00    +0.000 Cl
ATOM     23  C   UNL     1       2.233   5.424  17.929  0.00  0.00    +0.000 A 
ENDBRANCH  15  16
ENDBRANCH  14  15
ENDBRANCH  13  14
ENDBRANCH   1  13
TORSDOF 5
ENDMDL
MODEL 6
REMARK VINA RESULT:      -7.2      3.372      5.428
REMARK  Name = 
REMARK  7 active torsions:
REMARK  status: ('A' for Active; 'I' for Inactive)
REMARK    1  A    between atoms: C_1  and  C_2
REMARK    2  A    between atoms: C_7  and  C_8
REMARK    3  A    between atoms: C_8  and  C_9
REMARK    4  A    between atoms: C_9  and  C_10
REMARK    5  A    between atoms: C_10  and  O_11
REMARK    6  A    between atoms: O_11  and  C_12
REMARK    7  A    between atoms: C_15  and  C_16
REMARK                            x       y       z     vdW  Elec       q    Type
REMARK                         _______ _______ _______ _____ _____    ______ ____
ROOT
ATOM      1  C   UNL     1       6.616   6.709  17.245  0.00  0.00    +0.000 C 
ENDROOT
BRANCH   1   8
ATOM      2  C   UNL     1       5.093   2.464  11.408  0.00  0.00    +0.000 C 
ATOM      3  C   UNL     1       5.778   3.376  12.378  0.00  0.00    +0.000 A 
ATOM      4  C   UNL     1       7.064   3.868  12.133  0.00  0.00    +0.000 A 
ATOM      5  N   UNL     1       7.776   4.696  12.942  0.00  0.00    +0.000 NA
ATOM      6  C   UNL     1       7.095   5.014  14.056  0.00  0.00    +0.000 A 
ATOM      7  N   UNL     1       7.519   5.823  15.069  0.00  0.00    +0.000 N 
ATOM      8  C   UNL     1       6.516   5.883  16.007  0.00  0.00    +0.000 A 
ATOM      9  N   UNL     1       5.478   5.151  15.645  0.00  0.00    +0.000 NA
ATOM     10  C   UNL     1       5.824   4.607  14.431  0.00  0.00    +0.000 A 
ATOM     11  C   UNL     1       5.131   3.756  13.564  0.00  0.00    +0.000 A 
ATOM     12  H   UNL     1       8.410   6.293  15.096  0.00  0.00    +0.000 HD
ENDBRANCH   1   8
BRANCH   1  13
ATOM     13  C   UNL     1       7.635   6.147  18.236  0.00  0.00    +0.000 C 
BRANCH  13  14
ATOM     14  C   UNL     1       6.975   5.417  19.405  0.00  0.00    +0.000 C 
BRANCH  14  15
ATOM     15  O   UNL     1       6.316   4.250  18.902  0.00  0.00    +0.000 OA
BRANCH  15  16
ATOM     16  C   UNL     1       4.978   4.151  19.182  0.00  0.00    +0.000 A 
ATOM     17  C   UNL     1       4.384   5.320  19.660  0.00  0.00    +0.000 A 
ATOM     18  C   UNL     1       3.026   5.342  19.996  0.00  0.00    +0.000 A 
ATOM     19  C   UNL     1       2.239   4.191  19.862  0.00  0.00    +0.000 A 
ATOM     20  C   UNL     1       0.786   4.233  20.241  0.00  0.00    +0.000 C 
ATOM     21  C   UNL     1       2.843   3.022  19.376  0.00  0.00    +0.000 A 
ATOM     22 CL   UNL     1       1.944   1.557  19.183  0.00  0.00    +0.000 Cl
ATOM     23  C   UNL     1       4.199   3.002  19.037  0.00  0.00    +0.000 A 
ENDBRANCH  15  16
ENDBRANCH  14  15
ENDBRANCH  13  14
ENDBRANCH   1  13
TORSDOF 5
ENDMDL
MODEL 7
REMARK VINA RESULT:      -7.1      5.556      7.110
REMARK  Name = 
REMARK  7 active torsions:
REMARK  status: ('A' for Active; 'I' for Inactive)
REMARK    1  A    between atoms: C_1  and  C_2
REMARK    2  A    between atoms: C_7  and  C_8
REMARK    3  A    between atoms: C_8  and  C_9
REMARK    4  A    between atoms: C_9  and  C_10
REMARK    5  A    between atoms: C_10  and  O_11
REMARK    6  A    between atoms: O_11  and  C_12
REMARK    7  A    between atoms: C_15  and  C_16
REMARK                            x       y       z     vdW  Elec       q    Type
REMARK                         _______ _______ _______ _____ _____    ______ ____
ROOT
ATOM      1  C   UNL     1       7.581   5.996  18.575  0.00  0.00    +0.000 C 
ENDROOT
BRANCH   1   8
ATOM      2  C   UNL     1       1.231   2.255  18.875  0.00  0.00    +0.000 C 
ATOM      3  C   UNL     1       2.262   3.311  18.627  0.00  0.00    +0.000 A 
ATOM      4  C   UNL     1       1.927   4.532  18.033  0.00  0.00    +0.000 A 
ATOM      5  N   UNL     1       2.779   5.556  17.761  0.00  0.00    +0.000 NA
ATOM      6  C   UNL     1       4.038   5.270  18.135  0.00  0.00    +0.000 A 
ATOM      7  N   UNL     1       5.131   6.077  18.006  0.00  0.00    +0.000 N 
ATOM      8  C   UNL     1       6.214   5.402  18.517  0.00  0.00    +0.000 A 
ATOM      9  N   UNL     1       5.868   4.207  18.959  0.00  0.00    +0.000 NA
ATOM     10  C   UNL     1       4.516   4.113  18.730  0.00  0.00    +0.000 A 
ATOM     11  C   UNL     1       3.599   3.090  18.991  0.00  0.00    +0.000 A 
ATOM     12  H   UNL     1       5.118   7.006  17.615  0.00  0.00    +0.000 HD
ENDBRANCH   1   8
BRANCH   1  13
ATOM     13  C   UNL     1       7.672   7.318  17.813  0.00  0.00    +0.000 C 
BRANCH  13  14
ATOM     14  C   UNL     1       8.487   8.371  18.562  0.00  0.00    +0.000 C 
BRANCH  14  15
ATOM     15  O   UNL     1       8.476   9.584  17.802  0.00  0.00    +0.000 OA
BRANCH  15  16
ATOM     16  C   UNL     1       8.994  10.688  18.428  0.00  0.00    +0.000 A 
ATOM     17  C   UNL     1       9.476  10.466  19.718  0.00  0.00    +0.000 A 
ATOM     18  C   UNL     1      10.016  11.517  20.466  0.00  0.00    +0.000 A 
ATOM     19  C   UNL     1      10.079  12.812  19.936  0.00  0.00    +0.000 A 
ATOM     20  C   UNL     1      10.650  13.930  20.762  0.00  0.00    +0.000 C 
ATOM     21  C   UNL     1       9.596  13.025  18.637  0.00  0.00    +0.000 A 
ATOM     22 CL   UNL     1       9.634  14.593  17.908  0.00  0.00    +0.000 Cl
ATOM     23  C   UNL     1       9.061  11.973  17.888  0.00  0.00    +0.000 A 
ENDBRANCH  15  16
ENDBRANCH  14  15
ENDBRANCH  13  14
ENDBRANCH   1  13
TORSDOF 5
ENDMDL
MODEL 8
REMARK VINA RESULT:      -7.1      5.320      6.888
REMARK  Name = 
REMARK  7 active torsions:
REMARK  status: ('A' for Active; 'I' for Inactive)
REMARK    1  A    between atoms: C_1  and  C_2
REMARK    2  A    between atoms: C_7  and  C_8
REMARK    3  A    between atoms: C_8  and  C_9
REMARK    4  A    between atoms: C_9  and  C_10
REMARK    5  A    between atoms: C_10  and  O_11
REMARK    6  A    between atoms: O_11  and  C_12
REMARK    7  A    between atoms: C_15  and  C_16
REMARK                            x       y       z     vdW  Elec       q    Type
REMARK                         _______ _______ _______ _____ _____    ______ ____
ROOT
ATOM      1  C   UNL     1       7.504   6.387  18.648  0.00  0.00    +0.000 C 
ENDROOT
BRANCH   1   8
ATOM      2  C   UNL     1       0.962   2.981  18.542  0.00  0.00    +0.000 C 
ATOM      3  C   UNL     1       2.410   3.296  18.749  0.00  0.00    +0.000 A 
ATOM      4  C   UNL     1       3.286   2.367  19.319  0.00  0.00    +0.000 A 
ATOM      5  N   UNL     1       4.613   2.548  19.552  0.00  0.00    +0.000 NA
ATOM      6  C   UNL     1       5.026   3.767  19.165  0.00  0.00    +0.000 A 
ATOM      7  N   UNL     1       6.292   4.266  19.256  0.00  0.00    +0.000 N 
ATOM      8  C   UNL     1       6.278   5.541  18.743  0.00  0.00    +0.000 A 
ATOM      9  N   UNL     1       5.069   5.880  18.335  0.00  0.00    +0.000 NA
ATOM     10  C   UNL     1       4.281   4.784  18.589  0.00  0.00    +0.000 A 
ATOM     11  C   UNL     1       2.920   4.547  18.368  0.00  0.00    +0.000 A 
ATOM     12  H   UNL     1       7.084   3.764  19.625  0.00  0.00    +0.000 HD
ENDBRANCH   1   8
BRANCH   1  13
ATOM     13  C   UNL     1       7.553   7.195  17.352  0.00  0.00    +0.000 C 
BRANCH  13  14
ATOM     14  C   UNL     1       7.842   8.675  17.594  0.00  0.00    +0.000 C 
BRANCH  14  15
ATOM     15  O   UNL     1       8.645   8.798  18.772  0.00  0.00    +0.000 OA
BRANCH  15  16
ATOM     16  C   UNL     1       9.141  10.050  19.030  0.00  0.00    +0.000 A 
ATOM     17  C   UNL     1       9.655  10.723  17.922  0.00  0.00    +0.000 A 
ATOM     18  C   UNL     1      10.205  12.003  18.059  0.00  0.00    +0.000 A 
ATOM     19  C   UNL     1      10.252  12.628  19.312  0.00  0.00    +0.000 A 
ATOM     20  C   UNL     1      10.860  13.996  19.440  0.00  0.00    +0.000 C 
ATOM     21  C   UNL     1       9.729  11.945  20.419  0.00  0.00    +0.000 A 
ATOM     22 CL   UNL     1       9.751  12.644  22.001  0.00  0.00    +0.000 Cl
ATOM     23  C   UNL     1       9.177  10.669  20.280  0.00  0.00    +0.000 A 
ENDBRANCH  15  16
ENDBRANCH  14  15
ENDBRANCH  13  14
ENDBRANCH   1  13
TORSDOF 5
ENDMDL
MODEL 9
REMARK VINA RESULT:      -7.1      1.684      2.209
REMARK  Name = 
REMARK  7 active torsions:
REMARK  status: ('A' for Active; 'I' for Inactive)
REMARK    1  A    between atoms: C_1  and  C_2
REMARK    2  A    between atoms: C_7  and  C_8
REMARK    3  A    between atoms: C_8  and  C_9
REMARK    4  A    between atoms: C_9  and  C_10
REMARK    5  A    between atoms: C_10  and  O_11
REMARK    6  A    between atoms: O_11  and  C_12
REMARK    7  A    between atoms: C_15  and  C_16
REMARK                            x       y       z     vdW  Elec       q    Type
REMARK                         _______ _______ _______ _____ _____    ______ ____
ROOT
ATOM      1  C   UNL     1       3.151   3.229  17.215  0.00  0.00    +0.000 C 
ENDROOT
BRANCH   1   8
ATOM      2  C   UNL     1       8.294   8.491  17.730  0.00  0.00    +0.000 C 
ATOM      3  C   UNL     1       7.498   7.240  17.934  0.00  0.00    +0.000 A 
ATOM      4  C   UNL     1       7.878   6.278  18.876  0.00  0.00    +0.000 A 
ATOM      5  N   UNL     1       7.232   5.112  19.141  0.00  0.00    +0.000 NA
ATOM      6  C   UNL     1       6.140   4.960  18.373  0.00  0.00    +0.000 A 
ATOM      7  N   UNL     1       5.272   3.908  18.388  0.00  0.00    +0.000 N 
ATOM      8  C   UNL     1       4.295   4.156  17.452  0.00  0.00    +0.000 A 
ATOM      9  N   UNL     1       4.500   5.308  16.841  0.00  0.00    +0.000 NA
ATOM     10  C   UNL     1       5.643   5.820  17.406  0.00  0.00    +0.000 A 
ATOM     11  C   UNL     1       6.342   7.009  17.172  0.00  0.00    +0.000 A 
ATOM     12  H   UNL     1       5.347   3.108  18.996  0.00  0.00    +0.000 HD
ENDBRANCH   1   8
BRANCH   1  13
ATOM     13  C   UNL     1       2.349   2.959  18.487  0.00  0.00    +0.000 C 
BRANCH  13  14
ATOM     14  C   UNL     1       1.591   4.192  18.976  0.00  0.00    +0.000 C 
BRANCH  14  15
ATOM     15  O   UNL     1       2.529   5.110  19.546  0.00  0.00    +0.000 OA
BRANCH  15  16
ATOM     16  C   UNL     1       2.132   6.421  19.592  0.00  0.00    +0.000 A 
ATOM     17  C   UNL     1       2.273   7.124  18.395  0.00  0.00    +0.000 A 
ATOM     18  C   UNL     1       1.917   8.474  18.317  0.00  0.00    +0.000 A 
ATOM     19  C   UNL     1       1.417   9.147  19.440  0.00  0.00    +0.000 A 
ATOM     20  C   UNL     1       1.054  10.601  19.339  0.00  0.00    +0.000 C 
ATOM     21  C   UNL     1       1.275   8.431  20.637  0.00  0.00    +0.000 A 
ATOM     22 CL   UNL     1       0.668   9.185  22.070  0.00  0.00    +0.000 Cl
ATOM     23  C   UNL     1       1.627   7.080  20.713  0.00  0.00    +0.000 A 
ENDBRANCH  15  16
ENDBRANCH  14  15
ENDBRANCH  13  14
ENDBRANCH   1  13
TORSDOF 5
ENDMDL
