MODEL 1
REMARK VINA RESULT:      -9.4      0.000      0.000
REMARK  Name = 
REMARK  3 active torsions:
REMARK  status: ('A' for Active; 'I' for Inactive)
REMARK    1  A    between atoms: C_1  and  C_2
REMARK    2  A    between atoms: C_7  and  C_8
REMARK    3  A    between atoms: C_9  and  N_10
REMARK                            x       y       z     vdW  Elec       q    Type
REMARK                         _______ _______ _______ _____ _____    ______ ____
ROOT
ATOM      1  C   UNL     1       2.987   5.597  18.442  0.00  0.00    +0.000 A 
ATOM      2  C   UNL     1       4.124   5.137  17.785  0.00  0.00    +0.000 A 
ATOM      3  N   UNL     1       4.105   3.779  17.624  0.00  0.00    +0.000 NA
ATOM      4  C   UNL     1       3.041   3.364  18.259  0.00  0.00    +0.000 A 
ATOM      5  C   UNL     1       2.558   2.044  18.483  0.00  0.00    +0.000 A 
ATOM      6  C   UNL     1       1.462   1.847  19.239  0.00  0.00    +0.000 A 
ATOM      7  C   UNL     1       0.765   2.962  19.851  0.00  0.00    +0.000 A 
ATOM      8  C   UNL     1       1.217   4.210  19.648  0.00  0.00    +0.000 A 
ATOM      9  N   UNL     1       2.344   4.421  18.832  0.00  0.00    +0.000 N 
ENDROOT
BRANCH   1  16
ATOM     10  C   UNL     1       1.116   8.462  21.813  0.00  0.00    +0.000 C 
ATOM     11  C   UNL     1       1.600   8.276  20.409  0.00  0.00    +0.000 A 
ATOM     12  N   UNL     1       1.461   9.314  19.562  0.00  0.00    +0.000 NA
ATOM     13  C   UNL     1       1.923   9.146  18.322  0.00  0.00    +0.000 A 
ATOM     14  N   UNL     1       1.768  10.211  17.436  0.00  0.00    +0.000 N 
ATOM     15  C   UNL     1       2.532   7.987  17.910  0.00  0.00    +0.000 A 
ATOM     16  C   UNL     1       2.553   6.944  18.812  0.00  0.00    +0.000 A 
ATOM     17  N   UNL     1       2.122   7.079  20.079  0.00  0.00    +0.000 NA
ATOM     18  H   UNL     1       1.246  10.937  17.923  0.00  0.00    +0.000 HD
ATOM     19  H   UNL     1       1.298   9.932  16.583  0.00  0.00    +0.000 HD
ENDBRANCH   1  16
BRANCH   2  20
ATOM     20  N   UNL     1       5.162   5.893  17.358  0.00  0.00    +0.000 N 
ATOM     21  C   UNL     1       5.943   5.672  16.269  0.00  0.00    +0.000 A 
ATOM     22  C   UNL     1       5.633   4.862  15.145  0.00  0.00    +0.000 A 
ATOM     23  C   UNL     1       6.774   4.831  14.382  0.00  0.00    +0.000 A 
ATOM     24  N   UNL     1       7.660   5.634  15.026  0.00  0.00    +0.000 N 
ATOM     25  N   UNL     1       7.174   6.185  16.152  0.00  0.00    +0.000 NA
ATOM     26  H   UNL     1       5.625   6.456  18.065  0.00  0.00    +0.000 HD
ATOM     27  H   UNL     1       8.618   5.839  14.768  0.00  0.00    +0.000 HD
ENDBRANCH   2  20
TORSDOF 2
ENDMDL
MODEL 2
REMARK VINA RESULT:      -9.3      1.266      1.556
REMARK  Name = 
REMARK  3 active torsions:
REMARK  status: ('A' for Active; 'I' for Inactive)
REMARK    1  A    between atoms: C_1  and  C_2
REMARK    2  A    between atoms: C_7  and  C_8
REMARK    3  A    between atoms: C_9  and  N_10
REMARK                            x       y       z     vdW  Elec       q    Type
REMARK                         _______ _______ _______ _____ _____    ______ ____
ROOT
ATOM      1  C   UNL     1       2.908   5.818  18.132  0.00  0.00    +0.000 A 
ATOM      2  C   UNL     1       3.972   5.437  17.319  0.00  0.00    +0.000 A 
ATOM      3  N   UNL     1       3.964   4.093  17.068  0.00  0.00    +0.000 NA
ATOM      4  C   UNL     1       2.990   3.604  17.790  0.00  0.00    +0.000 A 
ATOM      5  C   UNL     1       2.566   2.259  17.975  0.00  0.00    +0.000 A 
ATOM      6  C   UNL     1       1.569   1.979  18.835  0.00  0.00    +0.000 A 
ATOM      7  C   UNL     1       0.923   3.030  19.598  0.00  0.00    +0.000 A 
ATOM      8  C   UNL     1       1.320   4.301  19.432  0.00  0.00    +0.000 A 
ATOM      9  N   UNL     1       2.340   4.600  18.510  0.00  0.00    +0.000 N 
ENDROOT
BRANCH   1  16
ATOM     10  C   UNL     1       1.113   8.344  21.803  0.00  0.00    +0.000 C 
ATOM     11  C   UNL     1       1.572   8.295  20.379  0.00  0.00    +0.000 A 
ATOM     12  N   UNL     1       1.427   9.414  19.642  0.00  0.00    +0.000 NA
ATOM     13  C   UNL     1       1.867   9.367  18.383  0.00  0.00    +0.000 A 
ATOM     14  N   UNL     1       1.704  10.516  17.611  0.00  0.00    +0.000 N 
ATOM     15  C   UNL     1       2.461   8.251  17.848  0.00  0.00    +0.000 A 
ATOM     16  C   UNL     1       2.490   7.123  18.641  0.00  0.00    +0.000 A 
ATOM     17  N   UNL     1       2.080   7.134  19.922  0.00  0.00    +0.000 NA
ATOM     18  H   UNL     1       1.195  11.192  18.176  0.00  0.00    +0.000 HD
ATOM     19  H   UNL     1       1.218  10.325  16.742  0.00  0.00    +0.000 HD
ENDBRANCH   1  16
BRANCH   2  20
ATOM     20  N   UNL     1       4.936   6.250  16.831  0.00  0.00    +0.000 N 
ATOM     21  C   UNL     1       6.145   6.515  17.389  0.00  0.00    +0.000 A 
ATOM     22  C   UNL     1       6.823   5.739  18.366  0.00  0.00    +0.000 A 
ATOM     23  C   UNL     1       7.927   6.474  18.725  0.00  0.00    +0.000 A 
ATOM     24  N   UNL     1       7.893   7.582  17.940  0.00  0.00    +0.000 N 
ATOM     25  N   UNL     1       6.846   7.618  17.098  0.00  0.00    +0.000 NA
ATOM     26  H   UNL     1       4.624   6.986  16.203  0.00  0.00    +0.000 HD
ATOM     27  H   UNL     1       8.537   8.363  17.936  0.00  0.00    +0.000 HD
ENDBRANCH   2  20
TORSDOF 2
ENDMDL
MODEL 3
REMARK VINA RESULT:      -9.2      1.311      5.406
REMARK  Name = 
REMARK  3 active torsions:
REMARK  status: ('A' for Active; 'I' for Inactive)
REMARK    1  A    between atoms: C_1  and  C_2
REMARK    2  A    between atoms: C_7  and  C_8
REMARK    3  A    between atoms: C_9  and  N_10
REMARK                            x       y       z     vdW  Elec       q    Type
REMARK                         _______ _______ _______ _____ _____    ______ ____
ROOT
ATOM      1  C   UNL     1       3.786   5.295  17.835  0.00  0.00    +0.000 A 
ATOM      2  C   UNL     1       2.744   6.188  18.068  0.00  0.00    +0.000 A 
ATOM      3  N   UNL     1       1.694   5.588  18.706  0.00  0.00    +0.000 NA
ATOM      4  C   UNL     1       2.003   4.320  18.780  0.00  0.00    +0.000 A 
ATOM      5  C   UNL     1       1.257   3.217  19.280  0.00  0.00    +0.000 A 
ATOM      6  C   UNL     1       1.754   1.970  19.188  0.00  0.00    +0.000 A 
ATOM      7  C   UNL     1       3.041   1.722  18.567  0.00  0.00    +0.000 A 
ATOM      8  C   UNL     1       3.749   2.757  18.088  0.00  0.00    +0.000 A 
ATOM      9  N   UNL     1       3.246   4.065  18.213  0.00  0.00    +0.000 N 
ENDROOT
BRANCH   1  16
ATOM     10  C   UNL     1       7.966   7.664  17.824  0.00  0.00    +0.000 C 
ATOM     11  C   UNL     1       7.057   6.658  17.190  0.00  0.00    +0.000 A 
ATOM     12  N   UNL     1       7.458   6.106  16.027  0.00  0.00    +0.000 NA
ATOM     13  C   UNL     1       6.654   5.189  15.487  0.00  0.00    +0.000 A 
ATOM     14  N   UNL     1       7.055   4.627  14.276  0.00  0.00    +0.000 N 
ATOM     15  C   UNL     1       5.478   4.794  16.078  0.00  0.00    +0.000 A 
ATOM     16  C   UNL     1       5.101   5.472  17.218  0.00  0.00    +0.000 A 
ATOM     17  N   UNL     1       5.892   6.385  17.809  0.00  0.00    +0.000 NA
ATOM     18  H   UNL     1       7.910   5.099  13.992  0.00  0.00    +0.000 HD
ATOM     19  H   UNL     1       6.338   4.706  13.563  0.00  0.00    +0.000 HD
ENDBRANCH   1  16
BRANCH   2  20
ATOM     20  N   UNL     1       2.712   7.491  17.708  0.00  0.00    +0.000 N 
ATOM     21  C   UNL     1       2.059   8.501  18.341  0.00  0.00    +0.000 A 
ATOM     22  C   UNL     1       1.604   8.512  19.685  0.00  0.00    +0.000 A 
ATOM     23  C   UNL     1       0.883   9.673  19.824  0.00  0.00    +0.000 A 
ATOM     24  N   UNL     1       0.982  10.304  18.626  0.00  0.00    +0.000 N 
ATOM     25  N   UNL     1       1.717   9.636  17.720  0.00  0.00    +0.000 NA
ATOM     26  H   UNL     1       2.878   7.688  16.725  0.00  0.00    +0.000 HD
ATOM     27  H   UNL     1       0.562  11.183  18.347  0.00  0.00    +0.000 HD
ENDBRANCH   2  20
TORSDOF 2
ENDMDL
MODEL 4
REMARK VINA RESULT:      -9.0      1.747      5.605
REMARK  Name = 
REMARK  3 active torsions:
REMARK  status: ('A' for Active; 'I' for Inactive)
REMARK    1  A    between atoms: C_1  and  C_2
REMARK    2  A    between atoms: C_7  and  C_8
REMARK    3  A    between atoms: C_9  and  N_10
REMARK                            x       y       z     vdW  Elec       q    Type
REMARK                         _______ _______ _______ _____ _____    ______ ____
ROOT
ATOM      1  C   UNL     1       3.851   5.329  19.064  0.00  0.00    +0.000 A 
ATOM      2  C   UNL     1       2.826   6.255  18.895  0.00  0.00    +0.000 A 
ATOM      3  N   UNL     1       1.692   5.887  19.566  0.00  0.00    +0.000 NA
ATOM      4  C   UNL     1       1.943   4.703  20.060  0.00  0.00    +0.000 A 
ATOM      5  C   UNL     1       1.107   3.813  20.790  0.00  0.00    +0.000 A 
ATOM      6  C   UNL     1       1.562   2.596  21.141  0.00  0.00    +0.000 A 
ATOM      7  C   UNL     1       2.896   2.162  20.772  0.00  0.00    +0.000 A 
ATOM      8  C   UNL     1       3.690   2.994  20.080  0.00  0.00    +0.000 A 
ATOM      9  N   UNL     1       3.228   4.279  19.740  0.00  0.00    +0.000 N 
ENDROOT
BRANCH   1  16
ATOM     10  C   UNL     1       6.808   4.598  15.349  0.00  0.00    +0.000 C 
ATOM     11  C   UNL     1       6.621   4.882  16.807  0.00  0.00    +0.000 A 
ATOM     12  N   UNL     1       7.728   4.942  17.573  0.00  0.00    +0.000 NA
ATOM     13  C   UNL     1       7.551   5.227  18.865  0.00  0.00    +0.000 A 
ATOM     14  N   UNL     1       8.691   5.274  19.666  0.00  0.00    +0.000 N 
ATOM     15  C   UNL     1       6.314   5.469  19.407  0.00  0.00    +0.000 A 
ATOM     16  C   UNL     1       5.228   5.300  18.573  0.00  0.00    +0.000 A 
ATOM     17  N   UNL     1       5.363   5.039  17.260  0.00  0.00    +0.000 NA
ATOM     18  H   UNL     1       9.482   5.008  19.084  0.00  0.00    +0.000 HD
ATOM     19  H   UNL     1       8.613   4.670  20.477  0.00  0.00    +0.000 HD
ENDBRANCH   1  16
BRANCH   2  20
ATOM     20  N   UNL     1       2.881   7.383  18.150  0.00  0.00    +0.000 N 
ATOM     21  C   UNL     1       2.164   8.521  18.333  0.00  0.00    +0.000 A 
ATOM     22  C   UNL     1       1.506   8.936  19.520  0.00  0.00    +0.000 A 
ATOM     23  C   UNL     1       0.801  10.064  19.182  0.00  0.00    +0.000 A 
ATOM     24  N   UNL     1       1.099  10.298  17.878  0.00  0.00    +0.000 N 
ATOM     25  N   UNL     1       1.949   9.402  17.347  0.00  0.00    +0.000 NA
ATOM     26  H   UNL     1       3.203   7.271  17.193  0.00  0.00    +0.000 HD
ATOM     27  H   UNL     1       0.749  11.037  17.281  0.00  0.00    +0.000 HD
ENDBRANCH   2  20
TORSDOF 2
ENDMDL
MODEL 5
REMARK VINA RESULT:      -9.0      1.601      5.520
REMARK  Name = 
REMARK  3 active torsions:
REMARK  status: ('A' for Active; 'I' for Inactive)
REMARK    1  A    between atoms: C_1  and  C_2
REMARK    2  A    between atoms: C_7  and  C_8
REMARK    3  A    between atoms: C_9  and  N_10
REMARK                            x       y       z     vdW  Elec       q    Type
REMARK                         _______ _______ _______ _____ _____    ______ ____
ROOT
ATOM      1  C   UNL     1       4.003   5.610  18.678  0.00  0.00    +0.000 A 
ATOM      2  C   UNL     1       2.919   6.473  18.798  0.00  0.00    +0.000 A 
ATOM      3  N   UNL     1       2.017   6.032  19.726  0.00  0.00    +0.000 NA
ATOM      4  C   UNL     1       2.452   4.861  20.111  0.00  0.00    +0.000 A 
ATOM      5  C   UNL     1       1.881   3.915  21.008  0.00  0.00    +0.000 A 
ATOM      6  C   UNL     1       2.478   2.725  21.203  0.00  0.00    +0.000 A 
ATOM      7  C   UNL     1       3.696   2.375  20.496  0.00  0.00    +0.000 A 
ATOM      8  C   UNL     1       4.238   3.260  19.645  0.00  0.00    +0.000 A 
ATOM      9  N   UNL     1       3.633   4.518  19.465  0.00  0.00    +0.000 N 
ENDROOT
BRANCH   1  16
ATOM     10  C   UNL     1       8.039   7.968  17.568  0.00  0.00    +0.000 C 
ATOM     11  C   UNL     1       7.091   6.842  17.293  0.00  0.00    +0.000 A 
ATOM     12  N   UNL     1       7.344   6.065  16.222  0.00  0.00    +0.000 NA
ATOM     13  C   UNL     1       6.510   5.048  16.005  0.00  0.00    +0.000 A 
ATOM     14  N   UNL     1       6.757   4.250  14.888  0.00  0.00    +0.000 N 
ATOM     15  C   UNL     1       5.448   4.772  16.830  0.00  0.00    +0.000 A 
ATOM     16  C   UNL     1       5.209   5.668  17.851  0.00  0.00    +0.000 A 
ATOM     17  N   UNL     1       6.039   6.691  18.120  0.00  0.00    +0.000 NA
ATOM     18  H   UNL     1       7.544   4.662  14.390  0.00  0.00    +0.000 HD
ATOM     19  H   UNL     1       5.944   4.172  14.288  0.00  0.00    +0.000 HD
ENDBRANCH   1  16
BRANCH   2  20
ATOM     20  N   UNL     1       2.719   7.609  18.090  0.00  0.00    +0.000 N 
ATOM     21  C   UNL     1       1.906   8.647  18.419  0.00  0.00    +0.000 A 
ATOM     22  C   UNL     1       1.398   8.959  19.707  0.00  0.00    +0.000 A 
ATOM     23  C   UNL     1       0.517   9.995  19.519  0.00  0.00    +0.000 A 
ATOM     24  N   UNL     1       0.576  10.282  18.193  0.00  0.00    +0.000 N 
ATOM     25  N   UNL     1       1.433   9.506  17.508  0.00  0.00    +0.000 NA
ATOM     26  H   UNL     1       2.896   7.551  17.092  0.00  0.00    +0.000 HD
ATOM     27  H   UNL     1       0.049  10.979  17.682  0.00  0.00    +0.000 HD
ENDBRANCH   2  20
TORSDOF 2
ENDMDL
MODEL 6
REMARK VINA RESULT:      -9.0      2.388      5.575
REMARK  Name = 
REMARK  3 active torsions:
REMARK  status: ('A' for Active; 'I' for Inactive)
REMARK    1  A    between atoms: C_1  and  C_2
REMARK    2  A    between atoms: C_7  and  C_8
REMARK    3  A    between atoms: C_9  and  N_10
REMARK                            x       y       z     vdW  Elec       q    Type
REMARK                         _______ _______ _______ _____ _____    ______ ____
ROOT
ATOM      1  C   UNL     1       5.692   4.773  15.856  0.00  0.00    +0.000 A 
ATOM      2  C   UNL     1       6.927   5.297  16.227  0.00  0.00    +0.000 A 
ATOM      3  N   UNL     1       7.775   5.405  15.160  0.00  0.00    +0.000 NA
ATOM      4  C   UNL     1       7.145   4.861  14.152  0.00  0.00    +0.000 A 
ATOM      5  C   UNL     1       7.571   4.633  12.813  0.00  0.00    +0.000 A 
ATOM      6  C   UNL     1       6.767   3.981  11.953  0.00  0.00    +0.000 A 
ATOM      7  C   UNL     1       5.470   3.485  12.370  0.00  0.00    +0.000 A 
ATOM      8  C   UNL     1       5.063   3.692  13.633  0.00  0.00    +0.000 A 
ATOM      9  N   UNL     1       5.887   4.402  14.525  0.00  0.00    +0.000 N 
ENDROOT
BRANCH   1  16
ATOM     10  C   UNL     1       2.289   6.482  18.786  0.00  0.00    +0.000 C 
ATOM     11  C   UNL     1       2.907   5.319  18.073  0.00  0.00    +0.000 A 
ATOM     12  N   UNL     1       2.387   4.099  18.311  0.00  0.00    +0.000 NA
ATOM     13  C   UNL     1       2.926   3.075  17.647  0.00  0.00    +0.000 A 
ATOM     14  N   UNL     1       2.404   1.808  17.902  0.00  0.00    +0.000 N 
ATOM     15  C   UNL     1       3.947   3.234  16.744  0.00  0.00    +0.000 A 
ATOM     16  C   UNL     1       4.478   4.501  16.626  0.00  0.00    +0.000 A 
ATOM     17  N   UNL     1       3.950   5.565  17.257  0.00  0.00    +0.000 NA
ATOM     18  H   UNL     1       1.707   1.909  18.637  0.00  0.00    +0.000 HD
ATOM     19  H   UNL     1       3.124   1.145  18.169  0.00  0.00    +0.000 HD
ENDBRANCH   1  16
BRANCH   2  20
ATOM     20  N   UNL     1       7.303   5.650  17.478  0.00  0.00    +0.000 N 
ATOM     21  C   UNL     1       7.692   6.881  17.899  0.00  0.00    +0.000 A 
ATOM     22  C   UNL     1       7.434   8.123  17.264  0.00  0.00    +0.000 A 
ATOM     23  C   UNL     1       8.143   9.060  17.974  0.00  0.00    +0.000 A 
ATOM     24  N   UNL     1       8.724   8.376  18.993  0.00  0.00    +0.000 N 
ATOM     25  N   UNL     1       8.441   7.062  18.995  0.00  0.00    +0.000 NA
ATOM     26  H   UNL     1       7.663   4.902  18.064  0.00  0.00    +0.000 HD
ATOM     27  H   UNL     1       9.339   8.733  19.714  0.00  0.00    +0.000 HD
ENDBRANCH   2  20
TORSDOF 2
ENDMDL
MODEL 7
REMARK VINA RESULT:      -8.6      1.375      4.797
REMARK  Name = 
REMARK  3 active torsions:
REMARK  status: ('A' for Active; 'I' for Inactive)
REMARK    1  A    between atoms: C_1  and  C_2
REMARK    2  A    between atoms: C_7  and  C_8
REMARK    3  A    between atoms: C_9  and  N_10
REMARK                            x       y       z     vdW  Elec       q    Type
REMARK                         _______ _______ _______ _____ _____    ______ ____
ROOT
ATOM      1  C   UNL     1       3.245   5.808  17.903  0.00  0.00    +0.000 A 
ATOM      2  C   UNL     1       2.789   4.498  18.010  0.00  0.00    +0.000 A 
ATOM      3  N   UNL     1       3.604   3.620  17.351  0.00  0.00    +0.000 NA
ATOM      4  C   UNL     1       4.496   4.356  16.741  0.00  0.00    +0.000 A 
ATOM      5  C   UNL     1       5.548   3.986  15.857  0.00  0.00    +0.000 A 
ATOM      6  C   UNL     1       6.310   4.935  15.282  0.00  0.00    +0.000 A 
ATOM      7  C   UNL     1       6.067   6.343  15.534  0.00  0.00    +0.000 A 
ATOM      8  C   UNL     1       5.074   6.700  16.364  0.00  0.00    +0.000 A 
ATOM      9  N   UNL     1       4.297   5.709  16.991  0.00  0.00    +0.000 N 
ENDROOT
BRANCH   1  16
ATOM     10  C   UNL     1       1.181   8.072  21.604  0.00  0.00    +0.000 C 
ATOM     11  C   UNL     1       1.691   8.109  20.196  0.00  0.00    +0.000 A 
ATOM     12  N   UNL     1       1.506   9.248  19.500  0.00  0.00    +0.000 NA
ATOM     13  C   UNL     1       1.991   9.279  18.258  0.00  0.00    +0.000 A 
ATOM     14  N   UNL     1       1.788  10.448  17.526  0.00  0.00    +0.000 N 
ATOM     15  C   UNL     1       2.667   8.222  17.700  0.00  0.00    +0.000 A 
ATOM     16  C   UNL     1       2.734   7.066  18.449  0.00  0.00    +0.000 A 
ATOM     17  N   UNL     1       2.281   6.999  19.713  0.00  0.00    +0.000 NA
ATOM     18  H   UNL     1       1.221  11.070  18.099  0.00  0.00    +0.000 HD
ATOM     19  H   UNL     1       1.344  10.267  16.633  0.00  0.00    +0.000 HD
ENDBRANCH   1  16
BRANCH   2  20
ATOM     20  N   UNL     1       1.672   4.090  18.655  0.00  0.00    +0.000 N 
ATOM     21  C   UNL     1       1.585   3.619  19.926  0.00  0.00    +0.000 A 
ATOM     22  C   UNL     1       2.527   3.802  20.971  0.00  0.00    +0.000 A 
ATOM     23  C   UNL     1       2.081   3.028  22.014  0.00  0.00    +0.000 A 
ATOM     24  N   UNL     1       0.912   2.485  21.586  0.00  0.00    +0.000 N 
ATOM     25  N   UNL     1       0.568   2.852  20.340  0.00  0.00    +0.000 NA
ATOM     26  H   UNL     1       0.906   3.775  18.066  0.00  0.00    +0.000 HD
ATOM     27  H   UNL     1       0.305   1.843  22.080  0.00  0.00    +0.000 HD
ENDBRANCH   2  20
TORSDOF 2
ENDMDL
MODEL 8
REMARK VINA RESULT:      -8.6      1.137      5.605
REMARK  Name = 
REMARK  3 active torsions:
REMARK  status: ('A' for Active; 'I' for Inactive)
REMARK    1  A    between atoms: C_1  and  C_2
REMARK    2  A    between atoms: C_7  and  C_8
REMARK    3  A    between atoms: C_9  and  N_10
REMARK                            x       y       z     vdW  Elec       q    Type
REMARK                         _______ _______ _______ _____ _____    ______ ____
ROOT
ATOM      1  C   UNL     1       3.633   5.318  17.860  0.00  0.00    +0.000 A 
ATOM      2  C   UNL     1       2.600   6.151  18.278  0.00  0.00    +0.000 A 
ATOM      3  N   UNL     1       1.672   5.476  19.023  0.00  0.00    +0.000 NA
ATOM      4  C   UNL     1       2.038   4.222  18.990  0.00  0.00    +0.000 A 
ATOM      5  C   UNL     1       1.412   3.065  19.532  0.00  0.00    +0.000 A 
ATOM      6  C   UNL     1       1.939   1.847  19.309  0.00  0.00    +0.000 A 
ATOM      7  C   UNL     1       3.136   1.686  18.506  0.00  0.00    +0.000 A 
ATOM      8  C   UNL     1       3.731   2.772  17.988  0.00  0.00    +0.000 A 
ATOM      9  N   UNL     1       3.200   4.049  18.246  0.00  0.00    +0.000 N 
ENDROOT
BRANCH   1  16
ATOM     10  C   UNL     1       6.402   4.065  14.140  0.00  0.00    +0.000 C 
ATOM     11  C   UNL     1       6.180   4.927  15.344  0.00  0.00    +0.000 A 
ATOM     12  N   UNL     1       7.171   5.769  15.696  0.00  0.00    +0.000 NA
ATOM     13  C   UNL     1       6.949   6.553  16.752  0.00  0.00    +0.000 A 
ATOM     14  N   UNL     1       7.977   7.415  17.130  0.00  0.00    +0.000 N 
ATOM     15  C   UNL     1       5.767   6.535  17.452  0.00  0.00    +0.000 A 
ATOM     16  C   UNL     1       4.842   5.582  17.080  0.00  0.00    +0.000 A 
ATOM     17  N   UNL     1       5.015   4.790  16.007  0.00  0.00    +0.000 NA
ATOM     18  H   UNL     1       8.771   7.225  16.523  0.00  0.00    +0.000 HD
ATOM     19  H   UNL     1       8.227   7.304  18.107  0.00  0.00    +0.000 HD
ENDBRANCH   1  16
BRANCH   2  20
ATOM     20  N   UNL     1       2.467   7.467  17.992  0.00  0.00    +0.000 N 
ATOM     21  C   UNL     1       1.875   8.417  18.761  0.00  0.00    +0.000 A 
ATOM     22  C   UNL     1       1.616   8.349  20.155  0.00  0.00    +0.000 A 
ATOM     23  C   UNL     1       0.879   9.469  20.453  0.00  0.00    +0.000 A 
ATOM     24  N   UNL     1       0.782  10.156  19.286  0.00  0.00    +0.000 N 
ATOM     25  N   UNL     1       1.404   9.563  18.252  0.00  0.00    +0.000 NA
ATOM     26  H   UNL     1       2.483   7.714  17.007  0.00  0.00    +0.000 HD
ATOM     27  H   UNL     1       0.293  11.027  19.113  0.00  0.00    +0.000 HD
ENDBRANCH   2  20
TORSDOF 2
ENDMDL
MODEL 9
REMARK VINA RESULT:      -8.5      1.542      2.296
REMARK  Name = 
REMARK  3 active torsions:
REMARK  status: ('A' for Active; 'I' for Inactive)
REMARK    1  A    between atoms: C_1  and  C_2
REMARK    2  A    between atoms: C_7  and  C_8
REMARK    3  A    between atoms: C_9  and  N_10
REMARK                            x       y       z     vdW  Elec       q    Type
REMARK                         _______ _______ _______ _____ _____    ______ ____
ROOT
ATOM      1  C   UNL     1       2.779   5.663  18.242  0.00  0.00    +0.000 A 
ATOM      2  C   UNL     1       3.857   5.411  17.398  0.00  0.00    +0.000 A 
ATOM      3  N   UNL     1       3.944   4.089  17.064  0.00  0.00    +0.000 NA
ATOM      4  C   UNL     1       3.017   3.487  17.762  0.00  0.00    +0.000 A 
ATOM      5  C   UNL     1       2.693   2.105  17.867  0.00  0.00    +0.000 A 
ATOM      6  C   UNL     1       1.731   1.701  18.716  0.00  0.00    +0.000 A 
ATOM      7  C   UNL     1       1.020   2.653  19.549  0.00  0.00    +0.000 A 
ATOM      8  C   UNL     1       1.322   3.958  19.459  0.00  0.00    +0.000 A 
ATOM      9  N   UNL     1       2.306   4.386  18.548  0.00  0.00    +0.000 N 
ENDROOT
BRANCH   1  16
ATOM     10  C   UNL     1       1.742  10.314  17.632  0.00  0.00    +0.000 C 
ATOM     11  C   UNL     1       1.850   9.129  18.541  0.00  0.00    +0.000 A 
ATOM     12  N   UNL     1       1.617   9.331  19.853  0.00  0.00    +0.000 NA
ATOM     13  C   UNL     1       1.686   8.263  20.648  0.00  0.00    +0.000 A 
ATOM     14  N   UNL     1       1.463   8.468  22.009  0.00  0.00    +0.000 N 
ATOM     15  C   UNL     1       1.961   7.004  20.174  0.00  0.00    +0.000 A 
ATOM     16  C   UNL     1       2.274   6.901  18.835  0.00  0.00    +0.000 A 
ATOM     17  N   UNL     1       2.191   7.947  17.994  0.00  0.00    +0.000 NA
ATOM     18  H   UNL     1       1.339   9.469  22.148  0.00  0.00    +0.000 HD
ATOM     19  H   UNL     1       2.221   8.110  22.578  0.00  0.00    +0.000 HD
ENDBRANCH   1  16
BRANCH   2  20
ATOM     20  N   UNL     1       4.754   6.322  16.953  0.00  0.00    +0.000 N 
ATOM     21  C   UNL     1       6.006   6.539  17.431  0.00  0.00    +0.000 A 
ATOM     22  C   UNL     1       6.791   5.648  18.209  0.00  0.00    +0.000 A 
ATOM     23  C   UNL     1       7.909   6.357  18.572  0.00  0.00    +0.000 A 
ATOM     24  N   UNL     1       7.778   7.569  17.974  0.00  0.00    +0.000 N 
ATOM     25  N   UNL     1       6.654   7.697  17.248  0.00  0.00    +0.000 NA
ATOM     26  H   UNL     1       4.368   7.133  16.477  0.00  0.00    +0.000 HD
ATOM     27  H   UNL     1       8.404   8.363  18.030  0.00  0.00    +0.000 HD
ENDBRANCH   2  20
TORSDOF 2
ENDMDL
