MODEL 1
REMARK VINA RESULT:      -6.6      0.000      0.000
REMARK  Name = 
REMARK  10 active torsions:
REMARK  status: ('A' for Active; 'I' for Inactive)
REMARK    1  A    between atoms: C_1  and  C_2
REMARK    2  A    between atoms: C_2  and  O_3
REMARK    3  A    between atoms: O_3  and  C_4
REMARK    4  A    between atoms: C_4  and  C_6
REMARK    5  A    between atoms: C_7  and  C_8
REMARK    6  A    between atoms: C_16  and  C_17
REMARK    7  A    between atoms: C_16  and  C_22
REMARK    8  A    between atoms: C_17  and  O_19
REMARK    9  A    between atoms: O_19  and  C_20
REMARK   10  A    between atoms: C_20  and  C_21
REMARK                            x       y       z     vdW  Elec       q    Type
REMARK                         _______ _______ _______ _____ _____    ______ ____
ROOT
ATOM      1  C   UNL     1      -0.001  10.703  20.654  0.00  0.00    +0.000 C 
ATOM      2  C   UNL     1       0.580   9.563  21.091  0.00  0.00    +0.000 C 
ATOM      3  C   UNL     1       0.617   9.080  22.521  0.00  0.00    +0.000 C 
ATOM      4  C   UNL     1       1.279   8.739  20.077  0.00  0.00    +0.000 A 
ATOM      5  C   UNL     1       2.003   7.581  20.423  0.00  0.00    +0.000 A 
ATOM      6  C   UNL     1       2.676   6.826  19.454  0.00  0.00    +0.000 A 
ATOM      7  C   UNL     1       2.642   7.222  18.120  0.00  0.00    +0.000 A 
ATOM      8  C   UNL     1       1.941   8.369  17.766  0.00  0.00    +0.000 A 
ATOM      9  C   UNL     1       1.273   9.126  18.736  0.00  0.00    +0.000 A 
ATOM     10  O   UNL     1       0.647  10.238  18.256  0.00  0.00    +0.000 OA
ATOM     11  C   UNL     1      -0.080  11.103  19.179  0.00  0.00    +0.000 C 
ENDROOT
BRANCH  11  12
ATOM     12  C   UNL     1      -1.538  11.078  18.655  0.00  0.00    +0.000 A 
ATOM     13  C   UNL     1      -1.907  10.108  17.695  0.00  0.00    +0.000 A 
ATOM     14  C   UNL     1      -3.215  10.020  17.207  0.00  0.00    +0.000 A 
ATOM     15  C   UNL     1      -4.188  10.905  17.658  0.00  0.00    +0.000 A 
ATOM     16  C   UNL     1      -3.854  11.866  18.605  0.00  0.00    +0.000 A 
ATOM     17  C   UNL     1      -2.551  11.940  19.109  0.00  0.00    +0.000 A 
ENDBRANCH  11  12
BRANCH   1  18
ATOM     18  C   UNL     1      -0.513  11.778  21.564  0.00  0.00    +0.000 C 
ATOM     19  O   UNL     1       0.169  12.703  21.972  0.00  0.00    +0.000 OA
BRANCH  18  20
ATOM     20  O   UNL     1      -1.757  11.471  22.008  0.00  0.00    +0.000 OA
BRANCH  20  22
ATOM     21  C   UNL     1      -3.558  12.935  22.705  0.00  0.00    +0.000 C 
ATOM     22  C   UNL     1      -2.278  12.229  23.106  0.00  0.00    +0.000 C 
ENDBRANCH  20  22
ENDBRANCH  18  20
ENDBRANCH   1  18
BRANCH  11  23
ATOM     23  C   UNL     1       0.745  12.412  19.026  0.00  0.00    +0.000 C 
ATOM     24  O   UNL     1       1.936  12.510  19.324  0.00  0.00    +0.000 OA
BRANCH  23  25
ATOM     25  O   UNL     1       0.049  13.443  18.460  0.00  0.00    +0.000 OA
BRANCH  25  26
ATOM     26  C   UNL     1       0.301  14.745  19.015  0.00  0.00    +0.000 C 
ATOM     27  C   UNL     1      -0.880  15.235  19.840  0.00  0.00    +0.000 C 
ENDBRANCH  25  26
ENDBRANCH  23  25
ENDBRANCH  11  23
TORSDOF 7
ENDMDL
MODEL 2
REMARK VINA RESULT:      -6.6      0.802      1.228
REMARK  Name = 
REMARK  10 active torsions:
REMARK  status: ('A' for Active; 'I' for Inactive)
REMARK    1  A    between atoms: C_1  and  C_2
REMARK    2  A    between atoms: C_2  and  O_3
REMARK    3  A    between atoms: O_3  and  C_4
REMARK    4  A    between atoms: C_4  and  C_6
REMARK    5  A    between atoms: C_7  and  C_8
REMARK    6  A    between atoms: C_16  and  C_17
REMARK    7  A    between atoms: C_16  and  C_22
REMARK    8  A    between atoms: C_17  and  O_19
REMARK    9  A    between atoms: O_19  and  C_20
REMARK   10  A    between atoms: C_20  and  C_21
REMARK                            x       y       z     vdW  Elec       q    Type
REMARK                         _______ _______ _______ _____ _____    ______ ____
ROOT
ATOM      1  C   UNL     1      -0.118  10.829  20.765  0.00  0.00    +0.000 C 
ATOM      2  C   UNL     1       0.499   9.698  21.176  0.00  0.00    +0.000 C 
ATOM      3  C   UNL     1       0.599   9.212  22.602  0.00  0.00    +0.000 C 
ATOM      4  C   UNL     1       1.172   8.888  20.133  0.00  0.00    +0.000 A 
ATOM      5  C   UNL     1       1.928   7.742  20.448  0.00  0.00    +0.000 A 
ATOM      6  C   UNL     1       2.577   7.001  19.453  0.00  0.00    +0.000 A 
ATOM      7  C   UNL     1       2.485   7.399  18.122  0.00  0.00    +0.000 A 
ATOM      8  C   UNL     1       1.751   8.535  17.798  0.00  0.00    +0.000 A 
ATOM      9  C   UNL     1       1.108   9.278  18.794  0.00  0.00    +0.000 A 
ATOM     10  O   UNL     1       0.446  10.380  18.343  0.00  0.00    +0.000 OA
ATOM     11  C   UNL     1      -0.260  11.231  19.295  0.00  0.00    +0.000 C 
ENDROOT
BRANCH  11  12
ATOM     12  C   UNL     1      -1.736  11.182  18.827  0.00  0.00    +0.000 A 
ATOM     13  C   UNL     1      -2.152  10.137  17.971  0.00  0.00    +0.000 A 
ATOM     14  C   UNL     1      -3.478  10.026  17.540  0.00  0.00    +0.000 A 
ATOM     15  C   UNL     1      -4.423  10.962  17.943  0.00  0.00    +0.000 A 
ATOM     16  C   UNL     1      -4.043  11.998  18.788  0.00  0.00    +0.000 A 
ATOM     17  C   UNL     1      -2.722  12.097  19.237  0.00  0.00    +0.000 A 
ENDBRANCH  11  12
BRANCH   1  18
ATOM     18  C   UNL     1      -0.613  11.893  21.696  0.00  0.00    +0.000 C 
ATOM     19  O   UNL     1       0.067  12.831  22.077  0.00  0.00    +0.000 OA
BRANCH  18  20
ATOM     20  O   UNL     1      -1.831  11.561  22.192  0.00  0.00    +0.000 OA
BRANCH  20  22
ATOM     21  C   UNL     1      -3.867  12.740  22.773  0.00  0.00    +0.000 C 
ATOM     22  C   UNL     1      -2.427  12.448  23.146  0.00  0.00    +0.000 C 
ENDBRANCH  20  22
ENDBRANCH  18  20
ENDBRANCH   1  18
BRANCH  11  23
ATOM     23  C   UNL     1       0.536  12.554  19.114  0.00  0.00    +0.000 C 
ATOM     24  O   UNL     1       0.014  13.634  18.832  0.00  0.00    +0.000 OA
BRANCH  23  25
ATOM     25  O   UNL     1       1.874  12.435  19.363  0.00  0.00    +0.000 OA
BRANCH  25  26
ATOM     26  C   UNL     1       2.577  13.666  19.599  0.00  0.00    +0.000 C 
ATOM     27  C   UNL     1       3.430  14.056  18.400  0.00  0.00    +0.000 C 
ENDBRANCH  25  26
ENDBRANCH  23  25
ENDBRANCH  11  23
TORSDOF 7
ENDMDL
MODEL 3
REMARK VINA RESULT:      -6.3      1.203      1.658
REMARK  Name = 
REMARK  10 active torsions:
REMARK  status: ('A' for Active; 'I' for Inactive)
REMARK    1  A    between atoms: C_1  and  C_2
REMARK    2  A    between atoms: C_2  and  O_3
REMARK    3  A    between atoms: O_3  and  C_4
REMARK    4  A    between atoms: C_4  and  C_6
REMARK    5  A    between atoms: C_7  and  C_8
REMARK    6  A    between atoms: C_16  and  C_17
REMARK    7  A    between atoms: C_16  and  C_22
REMARK    8  A    between atoms: C_17  and  O_19
REMARK    9  A    between atoms: O_19  and  C_20
REMARK   10  A    between atoms: C_20  and  C_21
REMARK                            x       y       z     vdW  Elec       q    Type
REMARK                         _______ _______ _______ _____ _____    ______ ____
ROOT
ATOM      1  C   UNL     1      -0.556  11.265  21.412  0.00  0.00    +0.000 C 
ATOM      2  C   UNL     1       0.045  10.079  21.665  0.00  0.00    +0.000 C 
ATOM      3  C   UNL     1       0.117   9.392  23.007  0.00  0.00    +0.000 C 
ATOM      4  C   UNL     1       0.728   9.422  20.527  0.00  0.00    +0.000 A 
ATOM      5  C   UNL     1       1.469   8.234  20.685  0.00  0.00    +0.000 A 
ATOM      6  C   UNL     1       2.128   7.637  19.603  0.00  0.00    +0.000 A 
ATOM      7  C   UNL     1       2.062   8.223  18.342  0.00  0.00    +0.000 A 
ATOM      8  C   UNL     1       1.343   9.402  18.175  0.00  0.00    +0.000 A 
ATOM      9  C   UNL     1       0.690  10.001  19.258  0.00  0.00    +0.000 A 
ATOM     10  O   UNL     1       0.044  11.164  18.960  0.00  0.00    +0.000 OA
ATOM     11  C   UNL     1      -0.670  11.875  20.014  0.00  0.00    +0.000 C 
ENDROOT
BRANCH  11  12
ATOM     12  C   UNL     1      -2.139  11.911  19.522  0.00  0.00    +0.000 A 
ATOM     13  C   UNL     1      -2.515  11.103  18.424  0.00  0.00    +0.000 A 
ATOM     14  C   UNL     1      -3.832  11.073  17.954  0.00  0.00    +0.000 A 
ATOM     15  C   UNL     1      -4.807  11.856  18.561  0.00  0.00    +0.000 A 
ATOM     16  C   UNL     1      -4.466  12.656  19.645  0.00  0.00    +0.000 A 
ATOM     17  C   UNL     1      -3.154  12.670  20.129  0.00  0.00    +0.000 A 
ENDBRANCH  11  12
BRANCH   1  18
ATOM     18  C   UNL     1      -1.057  12.188  22.480  0.00  0.00    +0.000 C 
ATOM     19  O   UNL     1      -0.357  13.008  23.052  0.00  0.00    +0.000 OA
BRANCH  18  20
ATOM     20  O   UNL     1      -2.320  11.854  22.842  0.00  0.00    +0.000 OA
BRANCH  20  22
ATOM     21  C   UNL     1      -4.473  12.722  23.541  0.00  0.00    +0.000 C 
ATOM     22  C   UNL     1      -2.980  12.686  23.804  0.00  0.00    +0.000 C 
ENDBRANCH  20  22
ENDBRANCH  18  20
ENDBRANCH   1  18
BRANCH  11  23
ATOM     23  C   UNL     1       0.140  13.203  20.038  0.00  0.00    +0.000 C 
ATOM     24  O   UNL     1      -0.367  14.317  19.900  0.00  0.00    +0.000 OA
BRANCH  23  25
ATOM     25  O   UNL     1       1.471  13.036  20.295  0.00  0.00    +0.000 OA
BRANCH  25  26
ATOM     26  C   UNL     1       2.365  13.846  19.516  0.00  0.00    +0.000 C 
ATOM     27  C   UNL     1       2.826  13.117  18.262  0.00  0.00    +0.000 C 
ENDBRANCH  25  26
ENDBRANCH  23  25
ENDBRANCH  11  23
TORSDOF 7
ENDMDL
MODEL 4
REMARK VINA RESULT:      -6.2      1.048      1.727
REMARK  Name = 
REMARK  10 active torsions:
REMARK  status: ('A' for Active; 'I' for Inactive)
REMARK    1  A    between atoms: C_1  and  C_2
REMARK    2  A    between atoms: C_2  and  O_3
REMARK    3  A    between atoms: O_3  and  C_4
REMARK    4  A    between atoms: C_4  and  C_6
REMARK    5  A    between atoms: C_7  and  C_8
REMARK    6  A    between atoms: C_16  and  C_17
REMARK    7  A    between atoms: C_16  and  C_22
REMARK    8  A    between atoms: C_17  and  O_19
REMARK    9  A    between atoms: O_19  and  C_20
REMARK   10  A    between atoms: C_20  and  C_21
REMARK                            x       y       z     vdW  Elec       q    Type
REMARK                         _______ _______ _______ _____ _____    ______ ____
ROOT
ATOM      1  C   UNL     1      -0.314  10.793  20.606  0.00  0.00    +0.000 C 
ATOM      2  C   UNL     1       0.300   9.680  21.070  0.00  0.00    +0.000 C 
ATOM      3  C   UNL     1       0.292   9.196  22.500  0.00  0.00    +0.000 C 
ATOM      4  C   UNL     1       1.083   8.892  20.090  0.00  0.00    +0.000 A 
ATOM      5  C   UNL     1       1.844   7.769  20.470  0.00  0.00    +0.000 A 
ATOM      6  C   UNL     1       2.597   7.049  19.535  0.00  0.00    +0.000 A 
ATOM      7  C   UNL     1       2.607   7.445  18.200  0.00  0.00    +0.000 A 
ATOM      8  C   UNL     1       1.870   8.558  17.813  0.00  0.00    +0.000 A 
ATOM      9  C   UNL     1       1.122   9.281  18.750  0.00  0.00    +0.000 A 
ATOM     10  O   UNL     1       0.468  10.364  18.241  0.00  0.00    +0.000 OA
ATOM     11  C   UNL     1      -0.342  11.191  19.128  0.00  0.00    +0.000 C 
ENDROOT
BRANCH  11  12
ATOM     12  C   UNL     1      -1.771  11.099  18.537  0.00  0.00    +0.000 A 
ATOM     13  C   UNL     1      -2.067  10.070  17.613  0.00  0.00    +0.000 A 
ATOM     14  C   UNL     1      -3.346   9.920  17.067  0.00  0.00    +0.000 A 
ATOM     15  C   UNL     1      -4.362  10.800  17.422  0.00  0.00    +0.000 A 
ATOM     16  C   UNL     1      -4.101  11.818  18.331  0.00  0.00    +0.000 A 
ATOM     17  C   UNL     1      -2.827  11.955  18.893  0.00  0.00    +0.000 A 
ENDBRANCH  11  12
BRANCH   1  18
ATOM     18  C   UNL     1      -0.919  11.840  21.490  0.00  0.00    +0.000 C 
ATOM     19  O   UNL     1      -2.118  12.054  21.566  0.00  0.00    +0.000 OA
BRANCH  18  20
ATOM     20  O   UNL     1       0.049  12.622  22.029  0.00  0.00    +0.000 OA
BRANCH  20  22
ATOM     21  C   UNL     1       0.792  14.928  21.969  0.00  0.00    +0.000 C 
ATOM     22  C   UNL     1      -0.302  13.965  22.386  0.00  0.00    +0.000 C 
ENDBRANCH  20  22
ENDBRANCH  18  20
ENDBRANCH   1  18
BRANCH  11  23
ATOM     23  C   UNL     1       0.426  12.538  19.014  0.00  0.00    +0.000 C 
ATOM     24  O   UNL     1      -0.114  13.614  18.753  0.00  0.00    +0.000 OA
BRANCH  23  25
ATOM     25  O   UNL     1       1.760  12.442  19.296  0.00  0.00    +0.000 OA
BRANCH  25  26
ATOM     26  C   UNL     1       2.631  13.239  18.478  0.00  0.00    +0.000 C 
ATOM     27  C   UNL     1       3.372  14.280  19.305  0.00  0.00    +0.000 C 
ENDBRANCH  25  26
ENDBRANCH  23  25
ENDBRANCH  11  23
TORSDOF 7
ENDMDL
MODEL 5
REMARK VINA RESULT:      -6.0      0.839      1.278
REMARK  Name = 
REMARK  10 active torsions:
REMARK  status: ('A' for Active; 'I' for Inactive)
REMARK    1  A    between atoms: C_1  and  C_2
REMARK    2  A    between atoms: C_2  and  O_3
REMARK    3  A    between atoms: O_3  and  C_4
REMARK    4  A    between atoms: C_4  and  C_6
REMARK    5  A    between atoms: C_7  and  C_8
REMARK    6  A    between atoms: C_16  and  C_17
REMARK    7  A    between atoms: C_16  and  C_22
REMARK    8  A    between atoms: C_17  and  O_19
REMARK    9  A    between atoms: O_19  and  C_20
REMARK   10  A    between atoms: C_20  and  C_21
REMARK                            x       y       z     vdW  Elec       q    Type
REMARK                         _______ _______ _______ _____ _____    ______ ____
ROOT
ATOM      1  C   UNL     1      -0.271  10.704  20.590  0.00  0.00    +0.000 C 
ATOM      2  C   UNL     1       0.305   9.576  21.066  0.00  0.00    +0.000 C 
ATOM      3  C   UNL     1       0.231   9.076  22.488  0.00  0.00    +0.000 C 
ATOM      4  C   UNL     1       1.114   8.786  20.109  0.00  0.00    +0.000 A 
ATOM      5  C   UNL     1       1.841   7.646  20.506  0.00  0.00    +0.000 A 
ATOM      6  C   UNL     1       2.620   6.923  19.593  0.00  0.00    +0.000 A 
ATOM      7  C   UNL     1       2.690   7.334  18.265  0.00  0.00    +0.000 A 
ATOM      8  C   UNL     1       1.987   8.464  17.862  0.00  0.00    +0.000 A 
ATOM      9  C   UNL     1       1.214   9.189  18.776  0.00  0.00    +0.000 A 
ATOM     10  O   UNL     1       0.599  10.288  18.254  0.00  0.00    +0.000 OA
ATOM     11  C   UNL     1      -0.233  11.119  19.118  0.00  0.00    +0.000 C 
ENDROOT
BRANCH  11  12
ATOM     12  C   UNL     1      -1.637  11.057  18.468  0.00  0.00    +0.000 A 
ATOM     13  C   UNL     1      -1.897  10.076  17.483  0.00  0.00    +0.000 A 
ATOM     14  C   UNL     1      -3.154   9.955  16.882  0.00  0.00    +0.000 A 
ATOM     15  C   UNL     1      -4.184  10.817  17.241  0.00  0.00    +0.000 A 
ATOM     16  C   UNL     1      -3.959  11.788  18.210  0.00  0.00    +0.000 A 
ATOM     17  C   UNL     1      -2.707  11.895  18.826  0.00  0.00    +0.000 A 
ENDBRANCH  11  12
BRANCH   1  18
ATOM     18  C   UNL     1      -0.894  11.751  21.462  0.00  0.00    +0.000 C 
ATOM     19  O   UNL     1      -2.093  11.975  21.503  0.00  0.00    +0.000 OA
BRANCH  18  20
ATOM     20  O   UNL     1       0.063  12.522  22.035  0.00  0.00    +0.000 OA
BRANCH  20  22
ATOM     21  C   UNL     1       0.848  14.813  22.117  0.00  0.00    +0.000 C 
ATOM     22  C   UNL     1      -0.293  13.858  22.409  0.00  0.00    +0.000 C 
ENDBRANCH  20  22
ENDBRANCH  18  20
ENDBRANCH   1  18
BRANCH  11  23
ATOM     23  C   UNL     1       0.562  12.454  19.050  0.00  0.00    +0.000 C 
ATOM     24  O   UNL     1       1.762  12.550  19.311  0.00  0.00    +0.000 OA
BRANCH  23  25
ATOM     25  O   UNL     1      -0.174  13.516  18.606  0.00  0.00    +0.000 OA
BRANCH  25  26
ATOM     26  C   UNL     1       0.513  14.777  18.560  0.00  0.00    +0.000 C 
ATOM     27  C   UNL     1      -0.435  15.936  18.833  0.00  0.00    +0.000 C 
ENDBRANCH  25  26
ENDBRANCH  23  25
ENDBRANCH  11  23
TORSDOF 7
ENDMDL
MODEL 6
REMARK VINA RESULT:      -6.0      4.551      8.974
REMARK  Name = 
REMARK  10 active torsions:
REMARK  status: ('A' for Active; 'I' for Inactive)
REMARK    1  A    between atoms: C_1  and  C_2
REMARK    2  A    between atoms: C_2  and  O_3
REMARK    3  A    between atoms: O_3  and  C_4
REMARK    4  A    between atoms: C_4  and  C_6
REMARK    5  A    between atoms: C_7  and  C_8
REMARK    6  A    between atoms: C_16  and  C_17
REMARK    7  A    between atoms: C_16  and  C_22
REMARK    8  A    between atoms: C_17  and  O_19
REMARK    9  A    between atoms: O_19  and  C_20
REMARK   10  A    between atoms: C_20  and  C_21
REMARK                            x       y       z     vdW  Elec       q    Type
REMARK                         _______ _______ _______ _____ _____    ______ ____
ROOT
ATOM      1  C   UNL     1       3.618   4.748  19.462  0.00  0.00    +0.000 C 
ATOM      2  C   UNL     1       2.746   5.180  20.402  0.00  0.00    +0.000 C 
ATOM      3  C   UNL     1       2.308   4.409  21.623  0.00  0.00    +0.000 C 
ATOM      4  C   UNL     1       2.140   6.514  20.186  0.00  0.00    +0.000 A 
ATOM      5  C   UNL     1       1.148   7.033  21.043  0.00  0.00    +0.000 A 
ATOM      6  C   UNL     1       0.568   8.286  20.812  0.00  0.00    +0.000 A 
ATOM      7  C   UNL     1       0.967   9.042  19.713  0.00  0.00    +0.000 A 
ATOM      8  C   UNL     1       1.936   8.538  18.853  0.00  0.00    +0.000 A 
ATOM      9  C   UNL     1       2.511   7.282  19.082  0.00  0.00    +0.000 A 
ATOM     10  O   UNL     1       3.429   6.899  18.149  0.00  0.00    +0.000 OA
ATOM     11  C   UNL     1       4.091   5.607  18.287  0.00  0.00    +0.000 C 
ENDROOT
BRANCH  11  12
ATOM     12  C   UNL     1       5.594   5.960  18.403  0.00  0.00    +0.000 A 
ATOM     13  C   UNL     1       6.137   6.947  17.549  0.00  0.00    +0.000 A 
ATOM     14  C   UNL     1       7.481   7.327  17.628  0.00  0.00    +0.000 A 
ATOM     15  C   UNL     1       8.322   6.723  18.555  0.00  0.00    +0.000 A 
ATOM     16  C   UNL     1       7.815   5.753  19.411  0.00  0.00    +0.000 A 
ATOM     17  C   UNL     1       6.466   5.388  19.347  0.00  0.00    +0.000 A 
ENDBRANCH  11  12
BRANCH   1  18
ATOM     18  C   UNL     1       4.118   3.338  19.376  0.00  0.00    +0.000 C 
ATOM     19  O   UNL     1       5.195   2.972  19.817  0.00  0.00    +0.000 OA
BRANCH  18  20
ATOM     20  O   UNL     1       3.305   2.594  18.586  0.00  0.00    +0.000 OA
BRANCH  20  22
ATOM     21  C   UNL     1       0.918   2.269  18.856  0.00  0.00    +0.000 C 
ATOM     22  C   UNL     1       2.308   1.789  19.227  0.00  0.00    +0.000 C 
ENDBRANCH  20  22
ENDBRANCH  18  20
ENDBRANCH   1  18
BRANCH  11  23
ATOM     23  C   UNL     1       3.587   4.908  16.992  0.00  0.00    +0.000 C 
ATOM     24  O   UNL     1       2.449   4.457  16.856  0.00  0.00    +0.000 OA
BRANCH  23  25
ATOM     25  O   UNL     1       4.502   4.895  15.977  0.00  0.00    +0.000 OA
BRANCH  25  26
ATOM     26  C   UNL     1       5.338   3.729  15.905  0.00  0.00    +0.000 C 
ATOM     27  C   UNL     1       6.712   4.064  15.342  0.00  0.00    +0.000 C 
ENDBRANCH  25  26
ENDBRANCH  23  25
ENDBRANCH  11  23
TORSDOF 7
ENDMDL
MODEL 7
REMARK VINA RESULT:      -6.0      1.082      1.611
REMARK  Name = 
REMARK  10 active torsions:
REMARK  status: ('A' for Active; 'I' for Inactive)
REMARK    1  A    between atoms: C_1  and  C_2
REMARK    2  A    between atoms: C_2  and  O_3
REMARK    3  A    between atoms: O_3  and  C_4
REMARK    4  A    between atoms: C_4  and  C_6
REMARK    5  A    between atoms: C_7  and  C_8
REMARK    6  A    between atoms: C_16  and  C_17
REMARK    7  A    between atoms: C_16  and  C_22
REMARK    8  A    between atoms: C_17  and  O_19
REMARK    9  A    between atoms: O_19  and  C_20
REMARK   10  A    between atoms: C_20  and  C_21
REMARK                            x       y       z     vdW  Elec       q    Type
REMARK                         _______ _______ _______ _____ _____    ______ ____
ROOT
ATOM      1  C   UNL     1      -0.537  11.073  21.071  0.00  0.00    +0.000 C 
ATOM      2  C   UNL     1       0.106   9.937  21.428  0.00  0.00    +0.000 C 
ATOM      3  C   UNL     1       0.180   9.364  22.822  0.00  0.00    +0.000 C 
ATOM      4  C   UNL     1       0.835   9.218  20.357  0.00  0.00    +0.000 A 
ATOM      5  C   UNL     1       1.620   8.078  20.622  0.00  0.00    +0.000 A 
ATOM      6  C   UNL     1       2.321   7.424  19.602  0.00  0.00    +0.000 A 
ATOM      7  C   UNL     1       2.255   7.903  18.297  0.00  0.00    +0.000 A 
ATOM      8  C   UNL     1       1.493   9.034  18.023  0.00  0.00    +0.000 A 
ATOM      9  C   UNL     1       0.797   9.691  19.044  0.00  0.00    +0.000 A 
ATOM     10  O   UNL     1       0.111  10.799  18.643  0.00  0.00    +0.000 OA
ATOM     11  C   UNL     1      -0.650  11.563  19.625  0.00  0.00    +0.000 C 
ENDROOT
BRANCH  11  12
ATOM     12  C   UNL     1      -2.109  11.498  19.110  0.00  0.00    +0.000 A 
ATOM     13  C   UNL     1      -3.076  12.363  19.673  0.00  0.00    +0.000 A 
ATOM     14  C   UNL     1      -4.402  12.369  19.229  0.00  0.00    +0.000 A 
ATOM     15  C   UNL     1      -4.802  11.503  18.217  0.00  0.00    +0.000 A 
ATOM     16  C   UNL     1      -3.872  10.645  17.642  0.00  0.00    +0.000 A 
ATOM     17  C   UNL     1      -2.540  10.655  18.072  0.00  0.00    +0.000 A 
ENDBRANCH  11  12
BRANCH   1  18
ATOM     18  C   UNL     1      -1.094  12.058  22.052  0.00  0.00    +0.000 C 
ATOM     19  O   UNL     1      -0.472  13.019  22.475  0.00  0.00    +0.000 OA
BRANCH  18  20
ATOM     20  O   UNL     1      -2.285  11.626  22.534  0.00  0.00    +0.000 OA
BRANCH  20  22
ATOM     21  C   UNL     1      -4.276  12.882  23.110  0.00  0.00    +0.000 C 
ATOM     22  C   UNL     1      -2.910  12.404  23.562  0.00  0.00    +0.000 C 
ENDBRANCH  20  22
ENDBRANCH  18  20
ENDBRANCH   1  18
BRANCH  11  23
ATOM     23  C   UNL     1       0.107  12.920  19.554  0.00  0.00    +0.000 C 
ATOM     24  O   UNL     1      -0.437  13.994  19.291  0.00  0.00    +0.000 OA
BRANCH  23  25
ATOM     25  O   UNL     1       1.431  12.835  19.876  0.00  0.00    +0.000 OA
BRANCH  25  26
ATOM     26  C   UNL     1       2.144  14.081  19.925  0.00  0.00    +0.000 C 
ATOM     27  C   UNL     1       2.512  14.455  21.354  0.00  0.00    +0.000 C 
ENDBRANCH  25  26
ENDBRANCH  23  25
ENDBRANCH  11  23
TORSDOF 7
ENDMDL
MODEL 8
REMARK VINA RESULT:      -6.0      6.788      9.879
REMARK  Name = 
REMARK  10 active torsions:
REMARK  status: ('A' for Active; 'I' for Inactive)
REMARK    1  A    between atoms: C_1  and  C_2
REMARK    2  A    between atoms: C_2  and  O_3
REMARK    3  A    between atoms: O_3  and  C_4
REMARK    4  A    between atoms: C_4  and  C_6
REMARK    5  A    between atoms: C_7  and  C_8
REMARK    6  A    between atoms: C_16  and  C_17
REMARK    7  A    between atoms: C_16  and  C_22
REMARK    8  A    between atoms: C_17  and  O_19
REMARK    9  A    between atoms: O_19  and  C_20
REMARK   10  A    between atoms: C_20  and  C_21
REMARK                            x       y       z     vdW  Elec       q    Type
REMARK                         _______ _______ _______ _____ _____    ______ ____
ROOT
ATOM      1  C   UNL     1       4.893   5.715  16.719  0.00  0.00    +0.000 C 
ATOM      2  C   UNL     1       3.680   5.789  17.312  0.00  0.00    +0.000 C 
ATOM      3  C   UNL     1       2.894   7.053  17.565  0.00  0.00    +0.000 C 
ATOM      4  C   UNL     1       3.093   4.516  17.792  0.00  0.00    +0.000 A 
ATOM      5  C   UNL     1       1.881   4.474  18.509  0.00  0.00    +0.000 A 
ATOM      6  C   UNL     1       1.351   3.264  18.976  0.00  0.00    +0.000 A 
ATOM      7  C   UNL     1       2.031   2.073  18.737  0.00  0.00    +0.000 A 
ATOM      8  C   UNL     1       3.233   2.101  18.040  0.00  0.00    +0.000 A 
ATOM      9  C   UNL     1       3.765   3.311  17.580  0.00  0.00    +0.000 A 
ATOM     10  O   UNL     1       4.960   3.198  16.935  0.00  0.00    +0.000 OA
ATOM     11  C   UNL     1       5.608   4.396  16.413  0.00  0.00    +0.000 C 
ENDROOT
BRANCH  11  12
ATOM     12  C   UNL     1       5.711   4.140  14.889  0.00  0.00    +0.000 A 
ATOM     13  C   UNL     1       6.957   4.317  14.245  0.00  0.00    +0.000 A 
ATOM     14  C   UNL     1       7.116   4.074  12.876  0.00  0.00    +0.000 A 
ATOM     15  C   UNL     1       6.033   3.658  12.112  0.00  0.00    +0.000 A 
ATOM     16  C   UNL     1       4.796   3.472  12.719  0.00  0.00    +0.000 A 
ATOM     17  C   UNL     1       4.642   3.694  14.092  0.00  0.00    +0.000 A 
ENDBRANCH  11  12
BRANCH   1  18
ATOM     18  C   UNL     1       5.746   6.909  16.416  0.00  0.00    +0.000 C 
ATOM     19  O   UNL     1       5.981   7.306  15.287  0.00  0.00    +0.000 OA
BRANCH  18  20
ATOM     20  O   UNL     1       6.358   7.352  17.542  0.00  0.00    +0.000 OA
BRANCH  20  22
ATOM     21  C   UNL     1       7.809   9.258  17.910  0.00  0.00    +0.000 C 
ATOM     22  C   UNL     1       7.705   7.825  17.425  0.00  0.00    +0.000 C 
ENDBRANCH  20  22
ENDBRANCH  18  20
ENDBRANCH   1  18
BRANCH  11  23
ATOM     23  C   UNL     1       6.912   4.387  17.260  0.00  0.00    +0.000 C 
ATOM     24  O   UNL     1       8.027   4.641  16.803  0.00  0.00    +0.000 OA
BRANCH  23  25
ATOM     25  O   UNL     1       6.709   4.138  18.588  0.00  0.00    +0.000 OA
BRANCH  25  26
ATOM     26  C   UNL     1       6.775   5.281  19.456  0.00  0.00    +0.000 C 
ATOM     27  C   UNL     1       8.178   5.475  20.013  0.00  0.00    +0.000 C 
ENDBRANCH  25  26
ENDBRANCH  23  25
ENDBRANCH  11  23
TORSDOF 7
ENDMDL
MODEL 9
REMARK VINA RESULT:      -5.8      1.632      5.015
REMARK  Name = 
REMARK  10 active torsions:
REMARK  status: ('A' for Active; 'I' for Inactive)
REMARK    1  A    between atoms: C_1  and  C_2
REMARK    2  A    between atoms: C_2  and  O_3
REMARK    3  A    between atoms: O_3  and  C_4
REMARK    4  A    between atoms: C_4  and  C_6
REMARK    5  A    between atoms: C_7  and  C_8
REMARK    6  A    between atoms: C_16  and  C_17
REMARK    7  A    between atoms: C_16  and  C_22
REMARK    8  A    between atoms: C_17  and  O_19
REMARK    9  A    between atoms: O_19  and  C_20
REMARK   10  A    between atoms: C_20  and  C_21
REMARK                            x       y       z     vdW  Elec       q    Type
REMARK                         _______ _______ _______ _____ _____    ______ ____
ROOT
ATOM      1  C   UNL     1      -1.854  12.553  20.673  0.00  0.00    +0.000 C 
ATOM      2  C   UNL     1      -2.984  12.480  19.933  0.00  0.00    +0.000 C 
ATOM      3  C   UNL     1      -4.299  13.147  20.256  0.00  0.00    +0.000 C 
ATOM      4  C   UNL     1      -2.932  11.632  18.718  0.00  0.00    +0.000 A 
ATOM      5  C   UNL     1      -4.069  11.400  17.919  0.00  0.00    +0.000 A 
ATOM      6  C   UNL     1      -4.009  10.578  16.787  0.00  0.00    +0.000 A 
ATOM      7  C   UNL     1      -2.807   9.968  16.437  0.00  0.00    +0.000 A 
ATOM      8  C   UNL     1      -1.680  10.180  17.224  0.00  0.00    +0.000 A 
ATOM      9  C   UNL     1      -1.743  10.996  18.358  0.00  0.00    +0.000 A 
ATOM     10  O   UNL     1      -0.574  11.098  19.051  0.00  0.00    +0.000 OA
ATOM     11  C   UNL     1      -0.524  11.923  20.253  0.00  0.00    +0.000 C 
ENDROOT
BRANCH  11  12
ATOM     12  C   UNL     1       0.544  12.999  19.932  0.00  0.00    +0.000 A 
ATOM     13  C   UNL     1       0.190  14.096  19.115  0.00  0.00    +0.000 A 
ATOM     14  C   UNL     1       1.104  15.112  18.815  0.00  0.00    +0.000 A 
ATOM     15  C   UNL     1       2.399  15.053  19.315  0.00  0.00    +0.000 A 
ATOM     16  C   UNL     1       2.774  13.988  20.125  0.00  0.00    +0.000 A 
ATOM     17  C   UNL     1       1.853  12.983  20.442  0.00  0.00    +0.000 A 
ENDBRANCH  11  12
BRANCH   1  18
ATOM     18  C   UNL     1      -1.799  13.136  22.052  0.00  0.00    +0.000 C 
ATOM     19  O   UNL     1      -1.038  14.032  22.379  0.00  0.00    +0.000 OA
BRANCH  18  20
ATOM     20  O   UNL     1      -2.561  12.408  22.905  0.00  0.00    +0.000 OA
BRANCH  20  22
ATOM     21  C   UNL     1      -4.524  12.490  24.324  0.00  0.00    +0.000 C 
ATOM     22  C   UNL     1      -3.171  13.095  24.004  0.00  0.00    +0.000 C 
ENDBRANCH  20  22
ENDBRANCH  18  20
ENDBRANCH   1  18
BRANCH  11  23
ATOM     23  C   UNL     1      -0.191  10.834  21.312  0.00  0.00    +0.000 C 
ATOM     24  O   UNL     1       0.309  11.079  22.411  0.00  0.00    +0.000 OA
BRANCH  23  25
ATOM     25  O   UNL     1      -0.566   9.572  20.948  0.00  0.00    +0.000 OA
BRANCH  25  26
ATOM     26  C   UNL     1       0.145   8.500  21.587  0.00  0.00    +0.000 C 
ATOM     27  C   UNL     1       1.398   8.124  20.809  0.00  0.00    +0.000 C 
ENDBRANCH  25  26
ENDBRANCH  23  25
ENDBRANCH  11  23
TORSDOF 7
ENDMDL
