MODEL 1
REMARK VINA RESULT:     -10.0      0.000      0.000
REMARK  Name = 
REMARK  1 active torsions:
REMARK  status: ('A' for Active; 'I' for Inactive)
REMARK    1  A    between atoms: C_15  and  C_16
REMARK                            x       y       z     vdW  Elec       q    Type
REMARK                         _______ _______ _______ _____ _____    ______ ____
ROOT
ATOM      1  O   UNL     1       2.357   2.370  21.866  0.00  0.00    +0.000 OA
ATOM      2  C   UNL     1       2.898   2.948  20.937  0.00  0.00    +0.000 C 
ATOM      3  N   UNL     1       3.858   2.467  20.100  0.00  0.00    +0.000 N 
ATOM      4  C   UNL     1       4.493   3.565  19.597  0.00  0.00    +0.000 C 
ATOM      5  O   UNL     1       5.690   3.651  19.408  0.00  0.00    +0.000 OA
ATOM      6  C   UNL     1       3.541   4.693  19.596  0.00  0.00    +0.000 A 
ATOM      7  C   UNL     1       2.629   4.324  20.552  0.00  0.00    +0.000 A 
ATOM      8  C   UNL     1       1.676   5.185  21.007  0.00  0.00    +0.000 A 
ATOM      9  C   UNL     1       1.643   6.468  20.476  0.00  0.00    +0.000 A 
ATOM     10  C   UNL     1       0.728   7.323  21.112  0.00  0.00    +0.000 A 
ATOM     11  C   UNL     1       0.624   8.655  20.767  0.00  0.00    +0.000 A 
ATOM     12  C   UNL     1       1.357   9.066  19.688  0.00  0.00    +0.000 A 
ATOM     13  C   UNL     1       2.203   8.227  18.968  0.00  0.00    +0.000 A 
ATOM     14  C   UNL     1       2.501   6.884  19.376  0.00  0.00    +0.000 A 
ATOM     15  C   UNL     1       3.488   5.910  18.882  0.00  0.00    +0.000 A 
ATOM     16  O   UNL     1       2.661   8.903  17.863  0.00  0.00    +0.000 OA
ATOM     17  C   UNL     1       1.869  10.119  17.914  0.00  0.00    +0.000 C 
ATOM     18  O   UNL     1       1.292  10.337  19.204  0.00  0.00    +0.000 OA
ATOM     19  H   UNL     1       3.415   1.949  19.353  0.00  0.00    +0.000 HD
ENDROOT
BRANCH  15  20
ATOM     20  C   UNL     1       4.471   6.050  17.752  0.00  0.00    +0.000 A 
ATOM     21  C   UNL     1       5.697   6.732  17.864  0.00  0.00    +0.000 A 
ATOM     22  C   UNL     1       6.723   6.574  16.907  0.00  0.00    +0.000 A 
ATOM     23  C   UNL     1       6.535   5.679  15.878  0.00  0.00    +0.000 A 
ATOM     24  C   UNL     1       5.336   5.048  15.714  0.00  0.00    +0.000 A 
ATOM     25  C   UNL     1       4.278   5.291  16.564  0.00  0.00    +0.000 A 
ATOM     26  O   UNL     1       5.346   4.140  14.702  0.00  0.00    +0.000 OA
ATOM     27  C   UNL     1       6.713   4.254  14.259  0.00  0.00    +0.000 C 
ATOM     28  O   UNL     1       7.454   5.280  14.959  0.00  0.00    +0.000 OA
ENDBRANCH  15  20
TORSDOF 1
ENDMDL
MODEL 2
REMARK VINA RESULT:      -8.5      1.672      4.567
REMARK  Name = 
REMARK  1 active torsions:
REMARK  status: ('A' for Active; 'I' for Inactive)
REMARK    1  A    between atoms: C_15  and  C_16
REMARK                            x       y       z     vdW  Elec       q    Type
REMARK                         _______ _______ _______ _____ _____    ______ ____
ROOT
ATOM      1  O   UNL     1       0.276   9.154  20.657  0.00  0.00    +0.000 OA
ATOM      2  C   UNL     1       1.205   8.751  19.978  0.00  0.00    +0.000 C 
ATOM      3  N   UNL     1       1.934   9.446  19.061  0.00  0.00    +0.000 N 
ATOM      4  C   UNL     1       2.473   8.510  18.230  0.00  0.00    +0.000 C 
ATOM      5  O   UNL     1       2.583   8.628  17.026  0.00  0.00    +0.000 OA
ATOM      6  C   UNL     1       2.628   7.251  18.985  0.00  0.00    +0.000 A 
ATOM      7  C   UNL     1       1.713   7.388  19.998  0.00  0.00    +0.000 A 
ATOM      8  C   UNL     1       1.393   6.353  20.825  0.00  0.00    +0.000 A 
ATOM      9  C   UNL     1       2.022   5.131  20.619  0.00  0.00    +0.000 A 
ATOM     10  C   UNL     1       1.519   4.091  21.418  0.00  0.00    +0.000 A 
ATOM     11  C   UNL     1       1.971   2.794  21.286  0.00  0.00    +0.000 A 
ATOM     12  C   UNL     1       3.024   2.598  20.435  0.00  0.00    +0.000 A 
ATOM     13  C   UNL     1       3.617   3.619  19.696  0.00  0.00    +0.000 A 
ATOM     14  C   UNL     1       3.087   4.951  19.643  0.00  0.00    +0.000 A 
ATOM     15  C   UNL     1       3.435   6.106  18.799  0.00  0.00    +0.000 A 
ATOM     16  O   UNL     1       4.735   3.121  19.072  0.00  0.00    +0.000 OA
ATOM     17  C   UNL     1       4.833   1.796  19.659  0.00  0.00    +0.000 C 
ATOM     18  O   UNL     1       3.607   1.380  20.266  0.00  0.00    +0.000 OA
ATOM     19  H   UNL     1       2.668   9.951  19.539  0.00  0.00    +0.000 HD
ENDROOT
BRANCH  15  20
ATOM     20  C   UNL     1       4.500   6.221  17.744  0.00  0.00    +0.000 A 
ATOM     21  C   UNL     1       5.767   6.789  17.972  0.00  0.00    +0.000 A 
ATOM     22  C   UNL     1       6.839   6.594  17.075  0.00  0.00    +0.000 A 
ATOM     23  C   UNL     1       6.648   5.774  15.985  0.00  0.00    +0.000 A 
ATOM     24  C   UNL     1       5.416   5.258  15.710  0.00  0.00    +0.000 A 
ATOM     25  C   UNL     1       4.326   5.545  16.504  0.00  0.00    +0.000 A 
ATOM     26  O   UNL     1       5.420   4.407  14.649  0.00  0.00    +0.000 OA
ATOM     27  C   UNL     1       6.819   4.427  14.300  0.00  0.00    +0.000 C 
ATOM     28  O   UNL     1       7.592   5.348  15.104  0.00  0.00    +0.000 OA
ENDBRANCH  15  20
TORSDOF 1
ENDMDL
MODEL 3
REMARK VINA RESULT:      -8.5      2.169      6.300
REMARK  Name = 
REMARK  1 active torsions:
REMARK  status: ('A' for Active; 'I' for Inactive)
REMARK    1  A    between atoms: C_15  and  C_16
REMARK                            x       y       z     vdW  Elec       q    Type
REMARK                         _______ _______ _______ _____ _____    ______ ____
ROOT
ATOM      1  O   UNL     1       6.840   4.360  14.547  0.00  0.00    +0.000 OA
ATOM      2  C   UNL     1       6.098   5.073  15.203  0.00  0.00    +0.000 C 
ATOM      3  N   UNL     1       5.998   6.430  15.169  0.00  0.00    +0.000 N 
ATOM      4  C   UNL     1       5.459   6.793  16.368  0.00  0.00    +0.000 C 
ATOM      5  O   UNL     1       5.791   7.765  17.015  0.00  0.00    +0.000 OA
ATOM      6  C   UNL     1       4.635   5.673  16.863  0.00  0.00    +0.000 A 
ATOM      7  C   UNL     1       5.162   4.590  16.207  0.00  0.00    +0.000 A 
ATOM      8  C   UNL     1       4.810   3.313  16.525  0.00  0.00    +0.000 A 
ATOM      9  C   UNL     1       3.890   3.122  17.549  0.00  0.00    +0.000 A 
ATOM     10  C   UNL     1       3.707   1.776  17.904  0.00  0.00    +0.000 A 
ATOM     11  C   UNL     1       2.892   1.411  18.957  0.00  0.00    +0.000 A 
ATOM     12  C   UNL     1       2.171   2.411  19.547  0.00  0.00    +0.000 A 
ATOM     13  C   UNL     1       2.250   3.747  19.161  0.00  0.00    +0.000 A 
ATOM     14  C   UNL     1       3.204   4.227  18.203  0.00  0.00    +0.000 A 
ATOM     15  C   UNL     1       3.579   5.592  17.799  0.00  0.00    +0.000 A 
ATOM     16  O   UNL     1       1.290   4.461  19.839  0.00  0.00    +0.000 OA
ATOM     17  C   UNL     1       0.546   3.401  20.496  0.00  0.00    +0.000 C 
ATOM     18  O   UNL     1       1.281   2.175  20.549  0.00  0.00    +0.000 OA
ATOM     19  H   UNL     1       5.380   6.697  14.415  0.00  0.00    +0.000 HD
ENDROOT
BRANCH  15  20
ATOM     20  C   UNL     1       3.023   6.906  18.274  0.00  0.00    +0.000 A 
ATOM     21  C   UNL     1       2.548   7.910  17.410  0.00  0.00    +0.000 A 
ATOM     22  C   UNL     1       1.750   8.975  17.879  0.00  0.00    +0.000 A 
ATOM     23  C   UNL     1       1.379   8.989  19.206  0.00  0.00    +0.000 A 
ATOM     24  C   UNL     1       1.871   8.060  20.075  0.00  0.00    +0.000 A 
ATOM     25  C   UNL     1       2.758   7.089  19.660  0.00  0.00    +0.000 A 
ATOM     26  O   UNL     1       1.343   8.167  21.324  0.00  0.00    +0.000 OA
ATOM     27  C   UNL     1       0.429   9.265  21.130  0.00  0.00    +0.000 C 
ATOM     28  O   UNL     1       0.499   9.836  19.803  0.00  0.00    +0.000 OA
ENDBRANCH  15  20
TORSDOF 1
ENDMDL
MODEL 4
REMARK VINA RESULT:      -7.6      8.298     10.408
REMARK  Name = 
REMARK  1 active torsions:
REMARK  status: ('A' for Active; 'I' for Inactive)
REMARK    1  A    between atoms: C_15  and  C_16
REMARK                            x       y       z     vdW  Elec       q    Type
REMARK                         _______ _______ _______ _____ _____    ______ ____
ROOT
ATOM      1  O   UNL     1      -4.047  10.604  15.112  0.00  0.00    +0.000 OA
ATOM      2  C   UNL     1      -3.476  11.060  16.090  0.00  0.00    +0.000 C 
ATOM      3  N   UNL     1      -2.152  11.345  16.227  0.00  0.00    +0.000 N 
ATOM      4  C   UNL     1      -1.908  11.331  17.569  0.00  0.00    +0.000 C 
ATOM      5  O   UNL     1      -0.909  10.877  18.090  0.00  0.00    +0.000 OA
ATOM      6  C   UNL     1      -3.156  11.686  18.272  0.00  0.00    +0.000 A 
ATOM      7  C   UNL     1      -4.125  11.371  17.354  0.00  0.00    +0.000 A 
ATOM      8  C   UNL     1      -5.449  11.368  17.676  0.00  0.00    +0.000 A 
ATOM      9  C   UNL     1      -5.807  11.695  18.978  0.00  0.00    +0.000 A 
ATOM     10  C   UNL     1      -7.173  11.518  19.253  0.00  0.00    +0.000 A 
ATOM     11  C   UNL     1      -7.688  11.715  20.518  0.00  0.00    +0.000 A 
ATOM     12  C   UNL     1      -6.829  12.221  21.455  0.00  0.00    +0.000 A 
ATOM     13  C   UNL     1      -5.490  12.504  21.198  0.00  0.00    +0.000 A 
ATOM     14  C   UNL     1      -4.842  12.155  19.966  0.00  0.00    +0.000 A 
ATOM     15  C   UNL     1      -3.426  12.187  19.565  0.00  0.00    +0.000 A 
ATOM     16  O   UNL     1      -4.955  13.141  22.291  0.00  0.00    +0.000 OA
ATOM     17  C   UNL     1      -6.135  13.362  23.108  0.00  0.00    +0.000 C 
ATOM     18  O   UNL     1      -7.227  12.525  22.720  0.00  0.00    +0.000 OA
ATOM     19  H   UNL     1      -1.972  12.266  15.851  0.00  0.00    +0.000 HD
ENDROOT
BRANCH  15  20
ATOM     20  C   UNL     1      -2.229  12.641  20.354  0.00  0.00    +0.000 A 
ATOM     21  C   UNL     1      -1.655  11.893  21.399  0.00  0.00    +0.000 A 
ATOM     22  C   UNL     1      -0.366  12.183  21.897  0.00  0.00    +0.000 A 
ATOM     23  C   UNL     1       0.365  13.183  21.295  0.00  0.00    +0.000 A 
ATOM     24  C   UNL     1      -0.189  13.959  20.319  0.00  0.00    +0.000 A 
ATOM     25  C   UNL     1      -1.493  13.775  19.912  0.00  0.00    +0.000 A 
ATOM     26  O   UNL     1       0.692  14.843  19.777  0.00  0.00    +0.000 OA
ATOM     27  C   UNL     1       1.886  14.511  20.514  0.00  0.00    +0.000 C 
ATOM     28  O   UNL     1       1.666  13.503  21.529  0.00  0.00    +0.000 OA
ENDBRANCH  15  20
TORSDOF 1
ENDMDL
MODEL 5
REMARK VINA RESULT:      -7.6      8.562     11.107
REMARK  Name = 
REMARK  1 active torsions:
REMARK  status: ('A' for Active; 'I' for Inactive)
REMARK    1  A    between atoms: C_15  and  C_16
REMARK                            x       y       z     vdW  Elec       q    Type
REMARK                         _______ _______ _______ _____ _____    ______ ____
ROOT
ATOM      1  O   UNL     1      -7.916  13.209  24.224  0.00  0.00    +0.000 OA
ATOM      2  C   UNL     1      -6.751  13.122  23.870  0.00  0.00    +0.000 C 
ATOM      3  N   UNL     1      -5.633  13.303  24.625  0.00  0.00    +0.000 N 
ATOM      4  C   UNL     1      -4.637  13.608  23.744  0.00  0.00    +0.000 C 
ATOM      5  O   UNL     1      -3.769  14.435  23.934  0.00  0.00    +0.000 OA
ATOM      6  C   UNL     1      -4.960  12.987  22.445  0.00  0.00    +0.000 A 
ATOM      7  C   UNL     1      -6.320  12.824  22.513  0.00  0.00    +0.000 A 
ATOM      8  C   UNL     1      -7.057  12.453  21.428  0.00  0.00    +0.000 A 
ATOM      9  C   UNL     1      -6.392  12.240  20.227  0.00  0.00    +0.000 A 
ATOM     10  C   UNL     1      -7.248  12.010  19.137  0.00  0.00    +0.000 A 
ATOM     11  C   UNL     1      -6.762  11.862  17.854  0.00  0.00    +0.000 A 
ATOM     12  C   UNL     1      -5.402  11.814  17.719  0.00  0.00    +0.000 A 
ATOM     13  C   UNL     1      -4.517  11.940  18.787  0.00  0.00    +0.000 A 
ATOM     14  C   UNL     1      -4.941  12.277  20.115  0.00  0.00    +0.000 A 
ATOM     15  C   UNL     1      -4.178  12.638  21.321  0.00  0.00    +0.000 A 
ATOM     16  O   UNL     1      -3.243  11.690  18.337  0.00  0.00    +0.000 OA
ATOM     17  C   UNL     1      -3.494  11.235  16.981  0.00  0.00    +0.000 C 
ATOM     18  O   UNL     1      -4.796  11.603  16.518  0.00  0.00    +0.000 OA
ATOM     19  H   UNL     1      -5.418  12.441  25.108  0.00  0.00    +0.000 HD
ENDROOT
BRANCH  15  20
ATOM     20  C   UNL     1      -2.689  12.724  21.508  0.00  0.00    +0.000 A 
ATOM     21  C   UNL     1      -1.936  11.775  22.223  0.00  0.00    +0.000 A 
ATOM     22  C   UNL     1      -0.530  11.706  22.110  0.00  0.00    +0.000 A 
ATOM     23  C   UNL     1       0.104  12.552  21.228  0.00  0.00    +0.000 A 
ATOM     24  C   UNL     1      -0.595  13.519  20.566  0.00  0.00    +0.000 A 
ATOM     25  C   UNL     1      -1.949  13.685  20.764  0.00  0.00    +0.000 A 
ATOM     26  O   UNL     1       0.166  14.211  19.676  0.00  0.00    +0.000 OA
ATOM     27  C   UNL     1       1.434  13.542  19.836  0.00  0.00    +0.000 C 
ATOM     28  O   UNL     1       1.416  12.532  20.871  0.00  0.00    +0.000 OA
ENDBRANCH  15  20
TORSDOF 1
ENDMDL
MODEL 6
REMARK VINA RESULT:      -7.4      5.233      8.525
REMARK  Name = 
REMARK  1 active torsions:
REMARK  status: ('A' for Active; 'I' for Inactive)
REMARK    1  A    between atoms: C_15  and  C_16
REMARK                            x       y       z     vdW  Elec       q    Type
REMARK                         _______ _______ _______ _____ _____    ______ ____
ROOT
ATOM      1  O   UNL     1      -4.037  14.216  23.194  0.00  0.00    +0.000 OA
ATOM      2  C   UNL     1      -3.208  13.455  22.723  0.00  0.00    +0.000 C 
ATOM      3  N   UNL     1      -2.053  13.018  23.297  0.00  0.00    +0.000 N 
ATOM      4  C   UNL     1      -1.248  12.637  22.264  0.00  0.00    +0.000 C 
ATOM      5  O   UNL     1      -0.051  12.831  22.206  0.00  0.00    +0.000 OA
ATOM      6  C   UNL     1      -2.105  12.221  21.136  0.00  0.00    +0.000 A 
ATOM      7  C   UNL     1      -3.286  12.869  21.394  0.00  0.00    +0.000 A 
ATOM      8  C   UNL     1      -4.299  12.910  20.483  0.00  0.00    +0.000 A 
ATOM      9  C   UNL     1      -4.110  12.271  19.263  0.00  0.00    +0.000 A 
ATOM     10  C   UNL     1      -5.143  12.495  18.339  0.00  0.00    +0.000 A 
ATOM     11  C   UNL     1      -5.079  12.005  17.050  0.00  0.00    +0.000 A 
ATOM     12  C   UNL     1      -4.027  11.180  16.762  0.00  0.00    +0.000 A 
ATOM     13  C   UNL     1      -3.032  10.853  17.680  0.00  0.00    +0.000 A 
ATOM     14  C   UNL     1      -2.933  11.466  18.974  0.00  0.00    +0.000 A 
ATOM     15  C   UNL     1      -1.880  11.411  20.001  0.00  0.00    +0.000 A 
ATOM     16  O   UNL     1      -2.222   9.890  17.129  0.00  0.00    +0.000 OA
ATOM     17  C   UNL     1      -2.940   9.565  15.909  0.00  0.00    +0.000 C 
ATOM     18  O   UNL     1      -3.885  10.577  15.550  0.00  0.00    +0.000 OA
ATOM     19  H   UNL     1      -2.259  12.225  23.889  0.00  0.00    +0.000 HD
ENDROOT
BRANCH  15  20
ATOM     20  C   UNL     1      -0.587  10.644  19.990  0.00  0.00    +0.000 A 
ATOM     21  C   UNL     1      -0.278   9.620  20.906  0.00  0.00    +0.000 A 
ATOM     22  C   UNL     1       0.782   8.716  20.678  0.00  0.00    +0.000 A 
ATOM     23  C   UNL     1       1.485   8.807  19.497  0.00  0.00    +0.000 A 
ATOM     24  C   UNL     1       1.245   9.824  18.620  0.00  0.00    +0.000 A 
ATOM     25  C   UNL     1       0.301  10.793  18.889  0.00  0.00    +0.000 A 
ATOM     26  O   UNL     1       1.966   9.719  17.472  0.00  0.00    +0.000 OA
ATOM     27  C   UNL     1       2.678   8.489  17.720  0.00  0.00    +0.000 C 
ATOM     28  O   UNL     1       2.426   7.942  19.035  0.00  0.00    +0.000 OA
ENDBRANCH  15  20
TORSDOF 1
ENDMDL
MODEL 7
REMARK VINA RESULT:      -7.3      7.788     11.628
REMARK  Name = 
REMARK  1 active torsions:
REMARK  status: ('A' for Active; 'I' for Inactive)
REMARK    1  A    between atoms: C_15  and  C_16
REMARK                            x       y       z     vdW  Elec       q    Type
REMARK                         _______ _______ _______ _____ _____    ______ ____
ROOT
ATOM      1  O   UNL     1      -2.667  10.112  14.789  0.00  0.00    +0.000 OA
ATOM      2  C   UNL     1      -3.335  10.535  15.719  0.00  0.00    +0.000 C 
ATOM      3  N   UNL     1      -4.677  10.761  15.750  0.00  0.00    +0.000 N 
ATOM      4  C   UNL     1      -4.877  11.671  16.746  0.00  0.00    +0.000 C 
ATOM      5  O   UNL     1      -5.665  12.594  16.698  0.00  0.00    +0.000 OA
ATOM      6  C   UNL     1      -3.797  11.517  17.740  0.00  0.00    +0.000 A 
ATOM      7  C   UNL     1      -2.796  10.921  17.014  0.00  0.00    +0.000 A 
ATOM      8  C   UNL     1      -1.536  10.774  17.511  0.00  0.00    +0.000 A 
ATOM      9  C   UNL     1      -1.276  11.249  18.791  0.00  0.00    +0.000 A 
ATOM     10  C   UNL     1       0.079  11.189  19.154  0.00  0.00    +0.000 A 
ATOM     11  C   UNL     1       0.528  11.695  20.357  0.00  0.00    +0.000 A 
ATOM     12  C   UNL     1      -0.429  12.132  21.231  0.00  0.00    +0.000 A 
ATOM     13  C   UNL     1      -1.793  12.118  20.949  0.00  0.00    +0.000 A 
ATOM     14  C   UNL     1      -2.318  11.780  19.657  0.00  0.00    +0.000 A 
ATOM     15  C   UNL     1      -3.677  11.881  19.099  0.00  0.00    +0.000 A 
ATOM     16  O   UNL     1      -2.483  12.470  22.084  0.00  0.00    +0.000 OA
ATOM     17  C   UNL     1      -1.422  12.504  23.074  0.00  0.00    +0.000 C 
ATOM     18  O   UNL     1      -0.125  12.590  22.476  0.00  0.00    +0.000 OA
ATOM     19  H   UNL     1      -5.152   9.896  15.969  0.00  0.00    +0.000 HD
ENDROOT
BRANCH  15  20
ATOM     20  C   UNL     1      -4.940  12.354  19.764  0.00  0.00    +0.000 A 
ATOM     21  C   UNL     1      -5.989  11.498  20.145  0.00  0.00    +0.000 A 
ATOM     22  C   UNL     1      -6.999  11.914  21.039  0.00  0.00    +0.000 A 
ATOM     23  C   UNL     1      -6.910  13.171  21.597  0.00  0.00    +0.000 A 
ATOM     24  C   UNL     1      -5.936  14.040  21.202  0.00  0.00    +0.000 A 
ATOM     25  C   UNL     1      -5.019  13.696  20.232  0.00  0.00    +0.000 A 
ATOM     26  O   UNL     1      -5.942  15.202  21.908  0.00  0.00    +0.000 OA
ATOM     27  C   UNL     1      -7.028  14.950  22.822  0.00  0.00    +0.000 C 
ATOM     28  O   UNL     1      -7.691  13.687  22.583  0.00  0.00    +0.000 OA
ENDBRANCH  15  20
TORSDOF 1
ENDMDL
MODEL 8
REMARK VINA RESULT:      -7.1      1.060      1.577
REMARK  Name = 
REMARK  1 active torsions:
REMARK  status: ('A' for Active; 'I' for Inactive)
REMARK    1  A    between atoms: C_15  and  C_16
REMARK                            x       y       z     vdW  Elec       q    Type
REMARK                         _______ _______ _______ _____ _____    ______ ____
ROOT
ATOM      1  O   UNL     1       1.582   2.223  22.473  0.00  0.00    +0.000 OA
ATOM      2  C   UNL     1       2.217   2.533  21.477  0.00  0.00    +0.000 C 
ATOM      3  N   UNL     1       3.052   1.748  20.742  0.00  0.00    +0.000 N 
ATOM      4  C   UNL     1       3.887   2.607  20.089  0.00  0.00    +0.000 C 
ATOM      5  O   UNL     1       5.074   2.424  19.913  0.00  0.00    +0.000 OA
ATOM      6  C   UNL     1       3.179   3.887  19.897  0.00  0.00    +0.000 A 
ATOM      7  C   UNL     1       2.223   3.859  20.880  0.00  0.00    +0.000 A 
ATOM      8  C   UNL     1       1.465   4.951  21.180  0.00  0.00    +0.000 A 
ATOM      9  C   UNL     1       1.682   6.118  20.457  0.00  0.00    +0.000 A 
ATOM     10  C   UNL     1       0.963   7.225  20.937  0.00  0.00    +0.000 A 
ATOM     11  C   UNL     1       1.123   8.482  20.391  0.00  0.00    +0.000 A 
ATOM     12  C   UNL     1       1.910   8.569  19.276  0.00  0.00    +0.000 A 
ATOM     13  C   UNL     1       2.564   7.477  18.710  0.00  0.00    +0.000 A 
ATOM     14  C   UNL     1       2.593   6.181  19.324  0.00  0.00    +0.000 A 
ATOM     15  C   UNL     1       3.361   4.967  19.004  0.00  0.00    +0.000 A 
ATOM     16  O   UNL     1       3.135   7.871  17.523  0.00  0.00    +0.000 OA
ATOM     17  C   UNL     1       2.601   9.213  17.372  0.00  0.00    +0.000 C 
ATOM     18  O   UNL     1       2.094   9.737  18.602  0.00  0.00    +0.000 OA
ATOM     19  H   UNL     1       2.506   1.220  20.075  0.00  0.00    +0.000 HD
ENDROOT
BRANCH  15  20
ATOM     20  C   UNL     1       4.339   4.732  17.886  0.00  0.00    +0.000 A 
ATOM     21  C   UNL     1       4.003   4.096  16.677  0.00  0.00    +0.000 A 
ATOM     22  C   UNL     1       4.836   4.177  15.540  0.00  0.00    +0.000 A 
ATOM     23  C   UNL     1       5.972   4.953  15.607  0.00  0.00    +0.000 A 
ATOM     24  C   UNL     1       6.349   5.534  16.782  0.00  0.00    +0.000 A 
ATOM     25  C   UNL     1       5.616   5.357  17.936  0.00  0.00    +0.000 A 
ATOM     26  O   UNL     1       7.445   6.330  16.655  0.00  0.00    +0.000 OA
ATOM     27  C   UNL     1       7.700   6.203  15.241  0.00  0.00    +0.000 C 
ATOM     28  O   UNL     1       6.807   5.274  14.584  0.00  0.00    +0.000 OA
ENDBRANCH  15  20
TORSDOF 1
ENDMDL
MODEL 9
REMARK VINA RESULT:      -7.0      6.863     11.109
REMARK  Name = 
REMARK  1 active torsions:
REMARK  status: ('A' for Active; 'I' for Inactive)
REMARK    1  A    between atoms: C_15  and  C_16
REMARK                            x       y       z     vdW  Elec       q    Type
REMARK                         _______ _______ _______ _____ _____    ______ ____
ROOT
ATOM      1  O   UNL     1       1.317  10.377  19.081  0.00  0.00    +0.000 OA
ATOM      2  C   UNL     1       0.588  11.009  19.829  0.00  0.00    +0.000 C 
ATOM      3  N   UNL     1       0.891  11.523  21.053  0.00  0.00    +0.000 N 
ATOM      4  C   UNL     1      -0.302  11.673  21.696  0.00  0.00    +0.000 C 
ATOM      5  O   UNL     1      -0.492  11.442  22.873  0.00  0.00    +0.000 OA
ATOM      6  C   UNL     1      -1.354  11.878  20.682  0.00  0.00    +0.000 A 
ATOM      7  C   UNL     1      -0.805  11.322  19.554  0.00  0.00    +0.000 A 
ATOM      8  C   UNL     1      -1.533  11.127  18.419  0.00  0.00    +0.000 A 
ATOM      9  C   UNL     1      -2.870  11.507  18.424  0.00  0.00    +0.000 A 
ATOM     10  C   UNL     1      -3.572  11.130  17.268  0.00  0.00    +0.000 A 
ATOM     11  C   UNL     1      -4.928  11.353  17.140  0.00  0.00    +0.000 A 
ATOM     12  C   UNL     1      -5.523  12.079  18.134  0.00  0.00    +0.000 A 
ATOM     13  C   UNL     1      -4.843  12.557  19.252  0.00  0.00    +0.000 A 
ATOM     14  C   UNL     1      -3.481  12.210  19.542  0.00  0.00    +0.000 A 
ATOM     15  C   UNL     1      -2.648  12.442  20.734  0.00  0.00    +0.000 A 
ATOM     16  O   UNL     1      -5.686  13.373  19.967  0.00  0.00    +0.000 OA
ATOM     17  C   UNL     1      -6.829  13.467  19.077  0.00  0.00    +0.000 C 
ATOM     18  O   UNL     1      -6.839  12.427  18.095  0.00  0.00    +0.000 OA
ATOM     19  H   UNL     1       1.336  12.422  20.932  0.00  0.00    +0.000 HD
ENDROOT
BRANCH  15  20
ATOM     20  C   UNL     1      -2.999  13.160  22.008  0.00  0.00    +0.000 A 
ATOM     21  C   UNL     1      -3.741  12.578  23.052  0.00  0.00    +0.000 A 
ATOM     22  C   UNL     1      -3.778  13.149  24.343  0.00  0.00    +0.000 A 
ATOM     23  C   UNL     1      -3.013  14.266  24.593  0.00  0.00    +0.000 A 
ATOM     24  C   UNL     1      -2.329  14.882  23.586  0.00  0.00    +0.000 A 
ATOM     25  C   UNL     1      -2.388  14.414  22.290  0.00  0.00    +0.000 A 
ATOM     26  O   UNL     1      -1.563  15.919  24.019  0.00  0.00    +0.000 OA
ATOM     27  C   UNL     1      -1.825  15.867  25.436  0.00  0.00    +0.000 C 
ATOM     28  O   UNL     1      -2.800  14.861  25.797  0.00  0.00    +0.000 OA
ENDBRANCH  15  20
TORSDOF 1
ENDMDL
