MODEL 1
REMARK VINA RESULT:      -9.4      0.000      0.000
REMARK  Name = 
REMARK  9 active torsions:
REMARK  status: ('A' for Active; 'I' for Inactive)
REMARK    1  A    between atoms: C_1  and  N_2
REMARK    2  A    between atoms: N_2  and  C_3
REMARK    3  A    between atoms: N_2  and  C_4
REMARK    4  A    between atoms: C_4  and  C_5
REMARK    5  A    between atoms: C_5  and  N_6
REMARK    6  A    between atoms: C_8  and  C_9
REMARK    7  A    between atoms: C_13  and  N_14
REMARK    8  A    between atoms: N_14  and  C_15
REMARK    9  A    between atoms: C_19  and  C_20
REMARK                            x       y       z     vdW  Elec       q    Type
REMARK                         _______ _______ _______ _____ _____    ______ ____
ROOT
ATOM      1  C   UNL     1      -0.558  11.195  21.925  0.00  0.00    +0.000 A 
ATOM      2  C   UNL     1      -0.227  10.097  22.718  0.00  0.00    +0.000 A 
ATOM      3  C   UNL     1       0.505   9.037  22.176  0.00  0.00    +0.000 A 
ATOM      4  C   UNL     1       0.922   9.054  20.827  0.00  0.00    +0.000 A 
ATOM      5  C   UNL     1       1.650   8.000  20.218  0.00  0.00    +0.000 A 
ATOM      6  C   UNL     1       2.039   8.129  18.884  0.00  0.00    +0.000 A 
ATOM      7  C   UNL     1       1.718   9.289  18.213  0.00  0.00    +0.000 A 
ATOM      8  N   UNL     1       1.011  10.300  18.757  0.00  0.00    +0.000 NA
ATOM      9  C   UNL     1       0.622  10.183  20.036  0.00  0.00    +0.000 A 
ATOM     10  C   UNL     1      -0.122  11.214  20.591  0.00  0.00    +0.000 A 
ENDROOT
BRANCH   1  13
ATOM     11  N   UNL     1      -3.065  13.526  23.061  0.00  0.00    +0.000 N 
ATOM     12  C   UNL     1      -2.724  12.360  22.436  0.00  0.00    +0.000 A 
ATOM     13  C   UNL     1      -1.348  12.287  22.468  0.00  0.00    +0.000 A 
ATOM     14  C   UNL     1      -0.961  13.476  23.130  0.00  0.00    +0.000 A 
ATOM     15  N   UNL     1      -2.004  14.230  23.494  0.00  0.00    +0.000 NA
BRANCH  11  16
ATOM     16  C   UNL     1      -4.414  14.017  23.288  0.00  0.00    +0.000 C 
BRANCH  16  17
ATOM     17  C   UNL     1      -5.291  12.975  23.993  0.00  0.00    +0.000 C 
BRANCH  17  19
ATOM     18  C   UNL     1      -7.680  12.800  23.771  0.00  0.00    +0.000 C 
ATOM     19  N   UNL     1      -6.394  12.440  23.163  0.00  0.00    +0.000 NA
ATOM     20  C   UNL     1      -6.348  12.929  21.785  0.00  0.00    +0.000 C 
ENDBRANCH  17  19
ENDBRANCH  16  17
ENDBRANCH  11  16
ENDBRANCH   1  13
BRANCH   5  21
ATOM     21  N   UNL     1       1.821   6.762  20.905  0.00  0.00    +0.000 N 
ATOM     22  H   UNL     1       0.969   6.568  21.429  0.00  0.00    +0.000 HD
BRANCH  21  23
ATOM     23  C   UNL     1       2.395   5.579  20.382  0.00  0.00    +0.000 A 
ATOM     24  C   UNL     1       2.107   4.347  20.962  0.00  0.00    +0.000 A 
ATOM     25  C   UNL     1       2.764   3.226  20.489  0.00  0.00    +0.000 A 
ATOM     26  N   UNL     1       3.690   3.254  19.509  0.00  0.00    +0.000 NA
ATOM     27  C   UNL     1       3.988   4.457  18.949  0.00  0.00    +0.000 A 
ATOM     28  C   UNL     1       3.355   5.626  19.366  0.00  0.00    +0.000 A 
BRANCH  27  29
ATOM     29  C   UNL     1       5.065   4.439  17.940  0.00  0.00    +0.000 A 
ATOM     30  C   UNL     1       4.797   4.031  16.618  0.00  0.00    +0.000 A 
ATOM     31  C   UNL     1       5.802   3.979  15.646  0.00  0.00    +0.000 A 
ATOM     32  C   UNL     1       7.106   4.339  15.974  0.00  0.00    +0.000 A 
ATOM     33  C   UNL     1       7.398   4.754  17.270  0.00  0.00    +0.000 A 
ATOM     34  C   UNL     1       6.388   4.804  18.233  0.00  0.00    +0.000 A 
ATOM     35  F   UNL     1       6.726   5.231  19.460  0.00  0.00    +0.000 F 
ENDBRANCH  27  29
ENDBRANCH  21  23
ENDBRANCH   5  21
TORSDOF 7
ENDMDL
MODEL 2
REMARK VINA RESULT:      -9.3      3.570     11.436
REMARK  Name = 
REMARK  9 active torsions:
REMARK  status: ('A' for Active; 'I' for Inactive)
REMARK    1  A    between atoms: C_1  and  N_2
REMARK    2  A    between atoms: N_2  and  C_3
REMARK    3  A    between atoms: N_2  and  C_4
REMARK    4  A    between atoms: C_4  and  C_5
REMARK    5  A    between atoms: C_5  and  N_6
REMARK    6  A    between atoms: C_8  and  C_9
REMARK    7  A    between atoms: C_13  and  N_14
REMARK    8  A    between atoms: N_14  and  C_15
REMARK    9  A    between atoms: C_19  and  C_20
REMARK                            x       y       z     vdW  Elec       q    Type
REMARK                         _______ _______ _______ _____ _____    ______ ____
ROOT
ATOM      1  C   UNL     1       2.289   7.544  19.020  0.00  0.00    +0.000 A 
ATOM      2  C   UNL     1       1.910   8.203  17.851  0.00  0.00    +0.000 A 
ATOM      3  C   UNL     1       1.089   9.332  17.919  0.00  0.00    +0.000 A 
ATOM      4  C   UNL     1       0.630   9.825  19.159  0.00  0.00    +0.000 A 
ATOM      5  C   UNL     1      -0.220  10.954  19.287  0.00  0.00    +0.000 A 
ATOM      6  C   UNL     1      -0.594  11.378  20.563  0.00  0.00    +0.000 A 
ATOM      7  C   UNL     1      -0.104  10.694  21.655  0.00  0.00    +0.000 A 
ATOM      8  N   UNL     1       0.689   9.608  21.566  0.00  0.00    +0.000 NA
ATOM      9  C   UNL     1       1.047   9.183  20.344  0.00  0.00    +0.000 A 
ATOM     10  C   UNL     1       1.846   8.054  20.251  0.00  0.00    +0.000 A 
ENDROOT
BRANCH   1  13
ATOM     11  N   UNL     1       4.635   4.894  18.321  0.00  0.00    +0.000 N 
ATOM     12  C   UNL     1       4.089   6.108  18.015  0.00  0.00    +0.000 A 
ATOM     13  C   UNL     1       3.115   6.350  18.960  0.00  0.00    +0.000 A 
ATOM     14  C   UNL     1       3.153   5.201  19.786  0.00  0.00    +0.000 A 
ATOM     15  N   UNL     1       4.078   4.316  19.401  0.00  0.00    +0.000 NA
BRANCH  11  16
ATOM     16  C   UNL     1       5.718   4.235  17.612  0.00  0.00    +0.000 C 
BRANCH  16  17
ATOM     17  C   UNL     1       5.304   3.816  16.196  0.00  0.00    +0.000 C 
BRANCH  17  19
ATOM     18  C   UNL     1       7.102   5.289  15.575  0.00  0.00    +0.000 C 
ATOM     19  N   UNL     1       5.851   4.673  15.119  0.00  0.00    +0.000 NA
ATOM     20  C   UNL     1       6.090   3.932  13.880  0.00  0.00    +0.000 C 
ENDBRANCH  17  19
ENDBRANCH  16  17
ENDBRANCH  11  16
ENDBRANCH   1  13
BRANCH   5  21
ATOM     21  N   UNL     1      -0.822  11.529  18.129  0.00  0.00    +0.000 N 
ATOM     22  H   UNL     1      -0.174  11.426  17.349  0.00  0.00    +0.000 HD
BRANCH  21  23
ATOM     23  C   UNL     1      -2.167  11.382  17.715  0.00  0.00    +0.000 A 
ATOM     24  C   UNL     1      -2.464  11.133  16.379  0.00  0.00    +0.000 A 
ATOM     25  C   UNL     1      -3.792  11.095  15.994  0.00  0.00    +0.000 A 
ATOM     26  N   UNL     1      -4.824  11.309  16.835  0.00  0.00    +0.000 NA
ATOM     27  C   UNL     1      -4.541  11.569  18.139  0.00  0.00    +0.000 A 
ATOM     28  C   UNL     1      -3.226  11.609  18.600  0.00  0.00    +0.000 A 
BRANCH  27  29
ATOM     29  C   UNL     1      -5.705  11.875  18.993  0.00  0.00    +0.000 A 
ATOM     30  C   UNL     1      -5.967  13.201  19.392  0.00  0.00    +0.000 A 
ATOM     31  C   UNL     1      -7.048  13.519  20.222  0.00  0.00    +0.000 A 
ATOM     32  C   UNL     1      -7.899  12.514  20.672  0.00  0.00    +0.000 A 
ATOM     33  C   UNL     1      -7.670  11.197  20.287  0.00  0.00    +0.000 A 
ATOM     34  C   UNL     1      -6.589  10.889  19.457  0.00  0.00    +0.000 A 
ATOM     35  F   UNL     1      -6.429   9.603  19.103  0.00  0.00    +0.000 F 
ENDBRANCH  27  29
ENDBRANCH  21  23
ENDBRANCH   5  21
TORSDOF 7
ENDMDL
MODEL 3
REMARK VINA RESULT:      -9.3      1.556      2.581
REMARK  Name = 
REMARK  9 active torsions:
REMARK  status: ('A' for Active; 'I' for Inactive)
REMARK    1  A    between atoms: C_1  and  N_2
REMARK    2  A    between atoms: N_2  and  C_3
REMARK    3  A    between atoms: N_2  and  C_4
REMARK    4  A    between atoms: C_4  and  C_5
REMARK    5  A    between atoms: C_5  and  N_6
REMARK    6  A    between atoms: C_8  and  C_9
REMARK    7  A    between atoms: C_13  and  N_14
REMARK    8  A    between atoms: N_14  and  C_15
REMARK    9  A    between atoms: C_19  and  C_20
REMARK                            x       y       z     vdW  Elec       q    Type
REMARK                         _______ _______ _______ _____ _____    ______ ____
ROOT
ATOM      1  C   UNL     1      -0.765  11.079  22.317  0.00  0.00    +0.000 A 
ATOM      2  C   UNL     1      -0.281   9.988  23.037  0.00  0.00    +0.000 A 
ATOM      3  C   UNL     1       0.495   9.016  22.398  0.00  0.00    +0.000 A 
ATOM      4  C   UNL     1       0.802   9.117  21.025  0.00  0.00    +0.000 A 
ATOM      5  C   UNL     1       1.567   8.153  20.320  0.00  0.00    +0.000 A 
ATOM      6  C   UNL     1       1.839   8.361  18.967  0.00  0.00    +0.000 A 
ATOM      7  C   UNL     1       1.370   9.511  18.370  0.00  0.00    +0.000 A 
ATOM      8  N   UNL     1       0.624  10.436  19.007  0.00  0.00    +0.000 NA
ATOM      9  C   UNL     1       0.347  10.242  20.305  0.00  0.00    +0.000 A 
ATOM     10  C   UNL     1      -0.436  11.183  20.956  0.00  0.00    +0.000 A 
ENDROOT
BRANCH   1  13
ATOM     11  N   UNL     1      -2.307  13.992  23.783  0.00  0.00    +0.000 N 
ATOM     12  C   UNL     1      -1.245  13.395  23.165  0.00  0.00    +0.000 A 
ATOM     13  C   UNL     1      -1.600  12.079  22.963  0.00  0.00    +0.000 A 
ATOM     14  C   UNL     1      -2.900  11.990  23.513  0.00  0.00    +0.000 A 
ATOM     15  N   UNL     1      -3.333  13.153  24.010  0.00  0.00    +0.000 NA
BRANCH  11  16
ATOM     16  C   UNL     1      -2.399  15.389  24.173  0.00  0.00    +0.000 C 
BRANCH  16  17
ATOM     17  C   UNL     1      -2.114  15.586  25.666  0.00  0.00    +0.000 C 
BRANCH  17  19
ATOM     18  C   UNL     1      -0.230  17.078  25.546  0.00  0.00    +0.000 C 
ATOM     19  N   UNL     1      -1.610  16.933  26.022  0.00  0.00    +0.000 NA
ATOM     20  C   UNL     1      -2.437  18.005  25.468  0.00  0.00    +0.000 C 
ENDBRANCH  17  19
ENDBRANCH  16  17
ENDBRANCH  11  16
ENDBRANCH   1  13
BRANCH   5  21
ATOM     21  N   UNL     1       1.895   6.911  20.940  0.00  0.00    +0.000 N 
ATOM     22  H   UNL     1       1.193   6.715  21.652  0.00  0.00    +0.000 HD
BRANCH  21  23
ATOM     23  C   UNL     1       2.325   5.730  20.290  0.00  0.00    +0.000 A 
ATOM     24  C   UNL     1       1.840   4.491  20.697  0.00  0.00    +0.000 A 
ATOM     25  C   UNL     1       2.357   3.353  20.107  0.00  0.00    +0.000 A 
ATOM     26  N   UNL     1       3.327   3.367  19.170  0.00  0.00    +0.000 NA
ATOM     27  C   UNL     1       3.818   4.573  18.779  0.00  0.00    +0.000 A 
ATOM     28  C   UNL     1       3.334   5.761  19.321  0.00  0.00    +0.000 A 
BRANCH  27  29
ATOM     29  C   UNL     1       4.932   4.522  17.812  0.00  0.00    +0.000 A 
ATOM     30  C   UNL     1       4.694   4.180  16.467  0.00  0.00    +0.000 A 
ATOM     31  C   UNL     1       5.733   4.098  15.533  0.00  0.00    +0.000 A 
ATOM     32  C   UNL     1       7.042   4.363  15.924  0.00  0.00    +0.000 A 
ATOM     33  C   UNL     1       7.306   4.713  17.245  0.00  0.00    +0.000 A 
ATOM     34  C   UNL     1       6.263   4.792  18.169  0.00  0.00    +0.000 A 
ATOM     35  F   UNL     1       6.575   5.153  19.425  0.00  0.00    +0.000 F 
ENDBRANCH  27  29
ENDBRANCH  21  23
ENDBRANCH   5  21
TORSDOF 7
ENDMDL
MODEL 4
REMARK VINA RESULT:      -9.1      1.004      1.360
REMARK  Name = 
REMARK  9 active torsions:
REMARK  status: ('A' for Active; 'I' for Inactive)
REMARK    1  A    between atoms: C_1  and  N_2
REMARK    2  A    between atoms: N_2  and  C_3
REMARK    3  A    between atoms: N_2  and  C_4
REMARK    4  A    between atoms: C_4  and  C_5
REMARK    5  A    between atoms: C_5  and  N_6
REMARK    6  A    between atoms: C_8  and  C_9
REMARK    7  A    between atoms: C_13  and  N_14
REMARK    8  A    between atoms: N_14  and  C_15
REMARK    9  A    between atoms: C_19  and  C_20
REMARK                            x       y       z     vdW  Elec       q    Type
REMARK                         _______ _______ _______ _____ _____    ______ ____
ROOT
ATOM      1  C   UNL     1      -0.790  11.102  21.725  0.00  0.00    +0.000 A 
ATOM      2  C   UNL     1      -0.403  10.061  22.567  0.00  0.00    +0.000 A 
ATOM      3  C   UNL     1       0.412   9.034  22.082  0.00  0.00    +0.000 A 
ATOM      4  C   UNL     1       0.857   9.028  20.743  0.00  0.00    +0.000 A 
ATOM      5  C   UNL     1       1.668   8.004  20.191  0.00  0.00    +0.000 A 
ATOM      6  C   UNL     1       2.078   8.108  18.861  0.00  0.00    +0.000 A 
ATOM      7  C   UNL     1       1.694   9.217  18.137  0.00  0.00    +0.000 A 
ATOM      8  N   UNL     1       0.908  10.197  18.627  0.00  0.00    +0.000 NA
ATOM      9  C   UNL     1       0.499  10.103  19.901  0.00  0.00    +0.000 A 
ATOM     10  C   UNL     1      -0.326  11.100  20.400  0.00  0.00    +0.000 A 
ENDROOT
BRANCH   1  13
ATOM     11  N   UNL     1      -3.371  13.532  22.394  0.00  0.00    +0.000 N 
ATOM     12  C   UNL     1      -2.861  12.521  21.629  0.00  0.00    +0.000 A 
ATOM     13  C   UNL     1      -1.665  12.157  22.209  0.00  0.00    +0.000 A 
ATOM     14  C   UNL     1      -1.546  13.028  23.318  0.00  0.00    +0.000 A 
ATOM     15  N   UNL     1      -2.584  13.863  23.434  0.00  0.00    +0.000 NA
BRANCH  11  16
ATOM     16  C   UNL     1      -4.634  14.217  22.181  0.00  0.00    +0.000 C 
BRANCH  16  17
ATOM     17  C   UNL     1      -5.584  13.404  21.294  0.00  0.00    +0.000 C 
BRANCH  17  19
ATOM     18  C   UNL     1      -7.074  12.901  23.115  0.00  0.00    +0.000 C 
ATOM     19  N   UNL     1      -6.310  12.325  22.003  0.00  0.00    +0.000 NA
ATOM     20  C   UNL     1      -7.209  11.581  21.121  0.00  0.00    +0.000 C 
ENDBRANCH  17  19
ENDBRANCH  16  17
ENDBRANCH  11  16
ENDBRANCH   1  13
BRANCH   5  21
ATOM     21  N   UNL     1       1.907   6.808  20.929  0.00  0.00    +0.000 N 
ATOM     22  H   UNL     1       1.097   6.631  21.521  0.00  0.00    +0.000 HD
BRANCH  21  23
ATOM     23  C   UNL     1       2.463   5.606  20.432  0.00  0.00    +0.000 A 
ATOM     24  C   UNL     1       2.190   4.395  21.062  0.00  0.00    +0.000 A 
ATOM     25  C   UNL     1       2.830   3.256  20.609  0.00  0.00    +0.000 A 
ATOM     26  N   UNL     1       3.727   3.248  19.603  0.00  0.00    +0.000 NA
ATOM     27  C   UNL     1       4.012   4.429  18.993  0.00  0.00    +0.000 A 
ATOM     28  C   UNL     1       3.394   5.614  19.388  0.00  0.00    +0.000 A 
BRANCH  27  29
ATOM     29  C   UNL     1       5.059   4.372  17.955  0.00  0.00    +0.000 A 
ATOM     30  C   UNL     1       6.392   4.703  18.269  0.00  0.00    +0.000 A 
ATOM     31  C   UNL     1       7.403   4.684  17.301  0.00  0.00    +0.000 A 
ATOM     32  C   UNL     1       7.103   4.325  15.990  0.00  0.00    +0.000 A 
ATOM     33  C   UNL     1       5.797   3.985  15.653  0.00  0.00    +0.000 A 
ATOM     34  C   UNL     1       4.795   4.007  16.626  0.00  0.00    +0.000 A 
ATOM     35  F   UNL     1       3.557   3.650  16.247  0.00  0.00    +0.000 F 
ENDBRANCH  27  29
ENDBRANCH  21  23
ENDBRANCH   5  21
TORSDOF 7
ENDMDL
MODEL 5
REMARK VINA RESULT:      -8.9      3.699     10.984
REMARK  Name = 
REMARK  9 active torsions:
REMARK  status: ('A' for Active; 'I' for Inactive)
REMARK    1  A    between atoms: C_1  and  N_2
REMARK    2  A    between atoms: N_2  and  C_3
REMARK    3  A    between atoms: N_2  and  C_4
REMARK    4  A    between atoms: C_4  and  C_5
REMARK    5  A    between atoms: C_5  and  N_6
REMARK    6  A    between atoms: C_8  and  C_9
REMARK    7  A    between atoms: C_13  and  N_14
REMARK    8  A    between atoms: N_14  and  C_15
REMARK    9  A    between atoms: C_19  and  C_20
REMARK                            x       y       z     vdW  Elec       q    Type
REMARK                         _______ _______ _______ _____ _____    ______ ____
ROOT
ATOM      1  C   UNL     1       2.304   7.556  19.150  0.00  0.00    +0.000 A 
ATOM      2  C   UNL     1       1.939   8.153  17.945  0.00  0.00    +0.000 A 
ATOM      3  C   UNL     1       1.118   9.285  17.945  0.00  0.00    +0.000 A 
ATOM      4  C   UNL     1       0.647   9.843  19.152  0.00  0.00    +0.000 A 
ATOM      5  C   UNL     1      -0.202  10.978  19.213  0.00  0.00    +0.000 A 
ATOM      6  C   UNL     1      -0.588  11.468  20.460  0.00  0.00    +0.000 A 
ATOM      7  C   UNL     1      -0.111  10.842  21.592  0.00  0.00    +0.000 A 
ATOM      8  N   UNL     1       0.681   9.751  21.568  0.00  0.00    +0.000 NA
ATOM      9  C   UNL     1       1.051   9.263  20.374  0.00  0.00    +0.000 A 
ATOM     10  C   UNL     1       1.849   8.130  20.348  0.00  0.00    +0.000 A 
ENDROOT
BRANCH   1  13
ATOM     11  N   UNL     1       3.860   4.333  19.606  0.00  0.00    +0.000 N 
ATOM     12  C   UNL     1       2.857   5.218  19.885  0.00  0.00    +0.000 A 
ATOM     13  C   UNL     1       3.129   6.359  19.161  0.00  0.00    +0.000 A 
ATOM     14  C   UNL     1       4.334   6.053  18.487  0.00  0.00    +0.000 A 
ATOM     15  N   UNL     1       4.779   4.821  18.754  0.00  0.00    +0.000 NA
BRANCH  11  16
ATOM     16  C   UNL     1       3.983   2.982  20.125  0.00  0.00    +0.000 C 
BRANCH  16  17
ATOM     17  C   UNL     1       3.950   1.934  19.007  0.00  0.00    +0.000 C 
BRANCH  17  19
ATOM     18  C   UNL     1       1.573   1.954  19.376  0.00  0.00    +0.000 C 
ATOM     19  N   UNL     1       2.624   1.757  18.372  0.00  0.00    +0.000 NA
ATOM     20  C   UNL     1       2.412   2.674  17.251  0.00  0.00    +0.000 C 
ENDBRANCH  17  19
ENDBRANCH  16  17
ENDBRANCH  11  16
ENDBRANCH   1  13
BRANCH   5  21
ATOM     21  N   UNL     1      -0.790  11.492  18.020  0.00  0.00    +0.000 N 
ATOM     22  H   UNL     1      -0.151  11.313  17.246  0.00  0.00    +0.000 HD
BRANCH  21  23
ATOM     23  C   UNL     1      -2.142  11.363  17.622  0.00  0.00    +0.000 A 
ATOM     24  C   UNL     1      -2.458  11.102  16.292  0.00  0.00    +0.000 A 
ATOM     25  C   UNL     1      -3.790  11.082  15.921  0.00  0.00    +0.000 A 
ATOM     26  N   UNL     1      -4.810  11.325  16.770  0.00  0.00    +0.000 NA
ATOM     27  C   UNL     1      -4.508  11.597  18.068  0.00  0.00    +0.000 A 
ATOM     28  C   UNL     1      -3.188  11.620  18.514  0.00  0.00    +0.000 A 
BRANCH  27  29
ATOM     29  C   UNL     1      -5.658  11.934  18.930  0.00  0.00    +0.000 A 
ATOM     30  C   UNL     1      -5.882  13.266  19.329  0.00  0.00    +0.000 A 
ATOM     31  C   UNL     1      -6.948  13.613  20.167  0.00  0.00    +0.000 A 
ATOM     32  C   UNL     1      -7.823  12.631  20.623  0.00  0.00    +0.000 A 
ATOM     33  C   UNL     1      -7.631  11.308  20.237  0.00  0.00    +0.000 A 
ATOM     34  C   UNL     1      -6.564  10.972  19.401  0.00  0.00    +0.000 A 
ATOM     35  F   UNL     1      -6.441   9.682  19.046  0.00  0.00    +0.000 F 
ENDBRANCH  27  29
ENDBRANCH  21  23
ENDBRANCH   5  21
TORSDOF 7
ENDMDL
MODEL 6
REMARK VINA RESULT:      -8.9      1.462      2.020
REMARK  Name = 
REMARK  9 active torsions:
REMARK  status: ('A' for Active; 'I' for Inactive)
REMARK    1  A    between atoms: C_1  and  N_2
REMARK    2  A    between atoms: N_2  and  C_3
REMARK    3  A    between atoms: N_2  and  C_4
REMARK    4  A    between atoms: C_4  and  C_5
REMARK    5  A    between atoms: C_5  and  N_6
REMARK    6  A    between atoms: C_8  and  C_9
REMARK    7  A    between atoms: C_13  and  N_14
REMARK    8  A    between atoms: N_14  and  C_15
REMARK    9  A    between atoms: C_19  and  C_20
REMARK                            x       y       z     vdW  Elec       q    Type
REMARK                         _______ _______ _______ _____ _____    ______ ____
ROOT
ATOM      1  C   UNL     1      -0.496  10.994  22.149  0.00  0.00    +0.000 A 
ATOM      2  C   UNL     1      -0.123   9.880  22.900  0.00  0.00    +0.000 A 
ATOM      3  C   UNL     1       0.606   8.847  22.305  0.00  0.00    +0.000 A 
ATOM      4  C   UNL     1       0.977   8.907  20.944  0.00  0.00    +0.000 A 
ATOM      5  C   UNL     1       1.699   7.881  20.283  0.00  0.00    +0.000 A 
ATOM      6  C   UNL     1       2.042   8.051  18.941  0.00  0.00    +0.000 A 
ATOM      7  C   UNL     1       1.682   9.224  18.313  0.00  0.00    +0.000 A 
ATOM      8  N   UNL     1       0.980  10.209  18.908  0.00  0.00    +0.000 NA
ATOM      9  C   UNL     1       0.635  10.052  20.195  0.00  0.00    +0.000 A 
ATOM     10  C   UNL     1      -0.104  11.056  20.802  0.00  0.00    +0.000 A 
ENDROOT
BRANCH   1  13
ATOM     11  N   UNL     1      -1.907  14.043  23.464  0.00  0.00    +0.000 N 
ATOM     12  C   UNL     1      -0.880  13.372  22.862  0.00  0.00    +0.000 A 
ATOM     13  C   UNL     1      -1.283  12.059  22.749  0.00  0.00    +0.000 A 
ATOM     14  C   UNL     1      -2.573  12.049  23.329  0.00  0.00    +0.000 A 
ATOM     15  N   UNL     1      -2.955  13.255  23.762  0.00  0.00    +0.000 NA
BRANCH  11  16
ATOM     16  C   UNL     1      -1.944  15.463  23.769  0.00  0.00    +0.000 C 
BRANCH  16  17
ATOM     17  C   UNL     1      -3.030  16.191  22.969  0.00  0.00    +0.000 C 
BRANCH  17  19
ATOM     18  C   UNL     1      -4.576  16.485  24.788  0.00  0.00    +0.000 C 
ATOM     19  N   UNL     1      -3.807  17.180  23.750  0.00  0.00    +0.000 NA
ATOM     20  C   UNL     1      -2.959  18.200  24.366  0.00  0.00    +0.000 C 
ENDBRANCH  17  19
ENDBRANCH  16  17
ENDBRANCH  11  16
ENDBRANCH   1  13
BRANCH   5  21
ATOM     21  N   UNL     1       1.910   6.627  20.929  0.00  0.00    +0.000 N 
ATOM     22  H   UNL     1       1.086   6.414  21.488  0.00  0.00    +0.000 HD
BRANCH  21  23
ATOM     23  C   UNL     1       2.464   5.462  20.349  0.00  0.00    +0.000 A 
ATOM     24  C   UNL     1       2.192   4.211  20.896  0.00  0.00    +0.000 A 
ATOM     25  C   UNL     1       2.830   3.105  20.365  0.00  0.00    +0.000 A 
ATOM     26  N   UNL     1       3.726   3.165  19.358  0.00  0.00    +0.000 NA
ATOM     27  C   UNL     1       4.009   4.386  18.830  0.00  0.00    +0.000 A 
ATOM     28  C   UNL     1       3.393   5.541  19.306  0.00  0.00    +0.000 A 
BRANCH  27  29
ATOM     29  C   UNL     1       5.054   4.399  17.788  0.00  0.00    +0.000 A 
ATOM     30  C   UNL     1       4.734   4.086  16.452  0.00  0.00    +0.000 A 
ATOM     31  C   UNL     1       5.707   4.066  15.448  0.00  0.00    +0.000 A 
ATOM     32  C   UNL     1       7.032   4.365  15.755  0.00  0.00    +0.000 A 
ATOM     33  C   UNL     1       7.376   4.687  17.065  0.00  0.00    +0.000 A 
ATOM     34  C   UNL     1       6.397   4.705  18.061  0.00  0.00    +0.000 A 
ATOM     35  F   UNL     1       6.785   5.042  19.301  0.00  0.00    +0.000 F 
ENDBRANCH  27  29
ENDBRANCH  21  23
ENDBRANCH   5  21
TORSDOF 7
ENDMDL
MODEL 7
REMARK VINA RESULT:      -8.9      1.642      2.741
REMARK  Name = 
REMARK  9 active torsions:
REMARK  status: ('A' for Active; 'I' for Inactive)
REMARK    1  A    between atoms: C_1  and  N_2
REMARK    2  A    between atoms: N_2  and  C_3
REMARK    3  A    between atoms: N_2  and  C_4
REMARK    4  A    between atoms: C_4  and  C_5
REMARK    5  A    between atoms: C_5  and  N_6
REMARK    6  A    between atoms: C_8  and  C_9
REMARK    7  A    between atoms: C_13  and  N_14
REMARK    8  A    between atoms: N_14  and  C_15
REMARK    9  A    between atoms: C_19  and  C_20
REMARK                            x       y       z     vdW  Elec       q    Type
REMARK                         _______ _______ _______ _____ _____    ______ ____
ROOT
ATOM      1  C   UNL     1      -0.750  11.166  22.306  0.00  0.00    +0.000 A 
ATOM      2  C   UNL     1      -0.335  10.054  23.038  0.00  0.00    +0.000 A 
ATOM      3  C   UNL     1       0.419   9.051  22.420  0.00  0.00    +0.000 A 
ATOM      4  C   UNL     1       0.774   9.142  21.057  0.00  0.00    +0.000 A 
ATOM      5  C   UNL     1       1.520   8.148  20.374  0.00  0.00    +0.000 A 
ATOM      6  C   UNL     1       1.843   8.347  19.031  0.00  0.00    +0.000 A 
ATOM      7  C   UNL     1       1.440   9.517  18.423  0.00  0.00    +0.000 A 
ATOM      8  N   UNL     1       0.714  10.472  19.039  0.00  0.00    +0.000 NA
ATOM      9  C   UNL     1       0.388  10.287  20.327  0.00  0.00    +0.000 A 
ATOM     10  C   UNL     1      -0.375  11.258  20.956  0.00  0.00    +0.000 A 
ENDROOT
BRANCH   1  13
ATOM     11  N   UNL     1      -2.212  14.136  23.738  0.00  0.00    +0.000 N 
ATOM     12  C   UNL     1      -1.157  13.495  23.155  0.00  0.00    +0.000 A 
ATOM     13  C   UNL     1      -1.563  12.197  22.929  0.00  0.00    +0.000 A 
ATOM     14  C   UNL     1      -2.886  12.164  23.429  0.00  0.00    +0.000 A 
ATOM     15  N   UNL     1      -3.284  13.343  23.919  0.00  0.00    +0.000 NA
BRANCH  11  16
ATOM     16  C   UNL     1      -2.256  15.532  24.137  0.00  0.00    +0.000 C 
BRANCH  16  17
ATOM     17  C   UNL     1      -2.727  16.439  22.993  0.00  0.00    +0.000 C 
BRANCH  17  19
ATOM     18  C   UNL     1      -1.347  18.209  23.858  0.00  0.00    +0.000 C 
ATOM     19  N   UNL     1      -1.778  17.519  22.638  0.00  0.00    +0.000 NA
ATOM     20  C   UNL     1      -0.609  17.023  21.913  0.00  0.00    +0.000 C 
ENDBRANCH  17  19
ENDBRANCH  16  17
ENDBRANCH  11  16
ENDBRANCH   1  13
BRANCH   5  21
ATOM     21  N   UNL     1       1.776   6.892  21.000  0.00  0.00    +0.000 N 
ATOM     22  H   UNL     1       1.015   6.699  21.650  0.00  0.00    +0.000 HD
BRANCH  21  23
ATOM     23  C   UNL     1       2.239   5.713  20.369  0.00  0.00    +0.000 A 
ATOM     24  C   UNL     1       1.702   4.478  20.717  0.00  0.00    +0.000 A 
ATOM     25  C   UNL     1       2.247   3.339  20.154  0.00  0.00    +0.000 A 
ATOM     26  N   UNL     1       3.290   3.349  19.299  0.00  0.00    +0.000 NA
ATOM     27  C   UNL     1       3.831   4.551  18.967  0.00  0.00    +0.000 A 
ATOM     28  C   UNL     1       3.323   5.740  19.486  0.00  0.00    +0.000 A 
BRANCH  27  29
ATOM     29  C   UNL     1       5.019   4.494  18.094  0.00  0.00    +0.000 A 
ATOM     30  C   UNL     1       6.289   4.842  18.595  0.00  0.00    +0.000 A 
ATOM     31  C   UNL     1       7.430   4.823  17.786  0.00  0.00    +0.000 A 
ATOM     32  C   UNL     1       7.329   4.448  16.449  0.00  0.00    +0.000 A 
ATOM     33  C   UNL     1       6.088   4.090  15.929  0.00  0.00    +0.000 A 
ATOM     34  C   UNL     1       4.955   4.113  16.745  0.00  0.00    +0.000 A 
ATOM     35  F   UNL     1       3.789   3.739  16.193  0.00  0.00    +0.000 F 
ENDBRANCH  27  29
ENDBRANCH  21  23
ENDBRANCH   5  21
TORSDOF 7
ENDMDL
MODEL 8
REMARK VINA RESULT:      -8.9      4.098     10.408
REMARK  Name = 
REMARK  9 active torsions:
REMARK  status: ('A' for Active; 'I' for Inactive)
REMARK    1  A    between atoms: C_1  and  N_2
REMARK    2  A    between atoms: N_2  and  C_3
REMARK    3  A    between atoms: N_2  and  C_4
REMARK    4  A    between atoms: C_4  and  C_5
REMARK    5  A    between atoms: C_5  and  N_6
REMARK    6  A    between atoms: C_8  and  C_9
REMARK    7  A    between atoms: C_13  and  N_14
REMARK    8  A    between atoms: N_14  and  C_15
REMARK    9  A    between atoms: C_19  and  C_20
REMARK                            x       y       z     vdW  Elec       q    Type
REMARK                         _______ _______ _______ _____ _____    ______ ____
ROOT
ATOM      1  C   UNL     1       2.194   7.568  18.767  0.00  0.00    +0.000 A 
ATOM      2  C   UNL     1       1.991   8.687  17.961  0.00  0.00    +0.000 A 
ATOM      3  C   UNL     1       1.368   9.824  18.486  0.00  0.00    +0.000 A 
ATOM      4  C   UNL     1       0.937   9.863  19.829  0.00  0.00    +0.000 A 
ATOM      5  C   UNL     1       0.283  10.980  20.410  0.00  0.00    +0.000 A 
ATOM      6  C   UNL     1      -0.078  10.928  21.756  0.00  0.00    +0.000 A 
ATOM      7  C   UNL     1       0.233   9.797  22.479  0.00  0.00    +0.000 A 
ATOM      8  N   UNL     1       0.836   8.712  21.952  0.00  0.00    +0.000 NA
ATOM      9  C   UNL     1       1.179   8.745  20.656  0.00  0.00    +0.000 A 
ATOM     10  C   UNL     1       1.781   7.623  20.108  0.00  0.00    +0.000 A 
ENDROOT
BRANCH   1  13
ATOM     11  N   UNL     1       4.185   5.036  17.143  0.00  0.00    +0.000 N 
ATOM     12  C   UNL     1       3.928   6.349  17.419  0.00  0.00    +0.000 A 
ATOM     13  C   UNL     1       2.809   6.368  18.224  0.00  0.00    +0.000 A 
ATOM     14  C   UNL     1       2.466   5.002  18.360  0.00  0.00    +0.000 A 
ATOM     15  N   UNL     1       3.303   4.190  17.706  0.00  0.00    +0.000 NA
BRANCH  11  16
ATOM     16  C   UNL     1       5.286   4.525  16.346  0.00  0.00    +0.000 C 
BRANCH  16  17
ATOM     17  C   UNL     1       6.252   5.638  15.924  0.00  0.00    +0.000 C 
BRANCH  17  19
ATOM     18  C   UNL     1       7.459   7.005  17.494  0.00  0.00    +0.000 C 
ATOM     19  N   UNL     1       7.474   5.737  16.755  0.00  0.00    +0.000 NA
ATOM     20  C   UNL     1       7.606   4.622  17.693  0.00  0.00    +0.000 C 
ENDBRANCH  17  19
ENDBRANCH  16  17
ENDBRANCH  11  16
ENDBRANCH   1  13
BRANCH   5  21
ATOM     21  N   UNL     1      -0.154  12.059  19.585  0.00  0.00    +0.000 N 
ATOM     22  H   UNL     1      -1.165  12.142  19.679  0.00  0.00    +0.000 HD
BRANCH  21  23
ATOM     23  C   UNL     1       0.466  13.323  19.451  0.00  0.00    +0.000 A 
ATOM     24  C   UNL     1      -0.283  14.432  19.066  0.00  0.00    +0.000 A 
ATOM     25  C   UNL     1       0.374  15.629  18.848  0.00  0.00    +0.000 A 
ATOM     26  N   UNL     1       1.709  15.786  18.964  0.00  0.00    +0.000 NA
ATOM     27  C   UNL     1       2.449  14.703  19.324  0.00  0.00    +0.000 A 
ATOM     28  C   UNL     1       1.852  13.469  19.573  0.00  0.00    +0.000 A 
BRANCH  27  29
ATOM     29  C   UNL     1       3.909  14.914  19.355  0.00  0.00    +0.000 A 
ATOM     30  C   UNL     1       4.612  14.855  20.574  0.00  0.00    +0.000 A 
ATOM     31  C   UNL     1       5.992  15.076  20.639  0.00  0.00    +0.000 A 
ATOM     32  C   UNL     1       6.707  15.357  19.478  0.00  0.00    +0.000 A 
ATOM     33  C   UNL     1       6.040  15.413  18.258  0.00  0.00    +0.000 A 
ATOM     34  C   UNL     1       4.663  15.191  18.204  0.00  0.00    +0.000 A 
ATOM     35  F   UNL     1       4.077  15.238  16.996  0.00  0.00    +0.000 F 
ENDBRANCH  27  29
ENDBRANCH  21  23
ENDBRANCH   5  21
TORSDOF 7
ENDMDL
MODEL 9
REMARK VINA RESULT:      -8.7      1.674      2.141
REMARK  Name = 
REMARK  9 active torsions:
REMARK  status: ('A' for Active; 'I' for Inactive)
REMARK    1  A    between atoms: C_1  and  N_2
REMARK    2  A    between atoms: N_2  and  C_3
REMARK    3  A    between atoms: N_2  and  C_4
REMARK    4  A    between atoms: C_4  and  C_5
REMARK    5  A    between atoms: C_5  and  N_6
REMARK    6  A    between atoms: C_8  and  C_9
REMARK    7  A    between atoms: C_13  and  N_14
REMARK    8  A    between atoms: N_14  and  C_15
REMARK    9  A    between atoms: C_19  and  C_20
REMARK                            x       y       z     vdW  Elec       q    Type
REMARK                         _______ _______ _______ _____ _____    ______ ____
ROOT
ATOM      1  C   UNL     1      -0.954  11.295  22.383  0.00  0.00    +0.000 A 
ATOM      2  C   UNL     1      -0.443  10.191  23.064  0.00  0.00    +0.000 A 
ATOM      3  C   UNL     1       0.342   9.253  22.386  0.00  0.00    +0.000 A 
ATOM      4  C   UNL     1       0.632   9.402  21.013  0.00  0.00    +0.000 A 
ATOM      5  C   UNL     1       1.405   8.474  20.270  0.00  0.00    +0.000 A 
ATOM      6  C   UNL     1       1.657   8.728  18.922  0.00  0.00    +0.000 A 
ATOM      7  C   UNL     1       1.161   9.888  18.366  0.00  0.00    +0.000 A 
ATOM      8  N   UNL     1       0.407  10.780  19.039  0.00  0.00    +0.000 NA
ATOM      9  C   UNL     1       0.148  10.541  20.334  0.00  0.00    +0.000 A 
ATOM     10  C   UNL     1      -0.644  11.447  21.023  0.00  0.00    +0.000 A 
ENDROOT
BRANCH   1  13
ATOM     11  N   UNL     1      -2.501  14.114  24.020  0.00  0.00    +0.000 N 
ATOM     12  C   UNL     1      -1.421  13.540  23.410  0.00  0.00    +0.000 A 
ATOM     13  C   UNL     1      -1.799  12.259  23.069  0.00  0.00    +0.000 A 
ATOM     14  C   UNL     1      -3.131  12.163  23.535  0.00  0.00    +0.000 A 
ATOM     15  N   UNL     1      -3.561  13.291  24.110  0.00  0.00    +0.000 NA
BRANCH  11  16
ATOM     16  C   UNL     1      -2.579  15.472  24.529  0.00  0.00    +0.000 C 
BRANCH  16  17
ATOM     17  C   UNL     1      -4.028  15.959  24.640  0.00  0.00    +0.000 C 
BRANCH  17  19
ATOM     18  C   UNL     1      -3.292  17.456  22.907  0.00  0.00    +0.000 C 
ATOM     19  N   UNL     1      -4.466  16.838  23.532  0.00  0.00    +0.000 NA
ATOM     20  C   UNL     1      -5.242  16.121  22.520  0.00  0.00    +0.000 C 
ENDBRANCH  17  19
ENDBRANCH  16  17
ENDBRANCH  11  16
ENDBRANCH   1  13
BRANCH   5  21
ATOM     21  N   UNL     1       1.762   7.219  20.848  0.00  0.00    +0.000 N 
ATOM     22  H   UNL     1       1.098   7.010  21.591  0.00  0.00    +0.000 HD
BRANCH  21  23
ATOM     23  C   UNL     1       2.155   6.051  20.153  0.00  0.00    +0.000 A 
ATOM     24  C   UNL     1       1.865   4.795  20.677  0.00  0.00    +0.000 A 
ATOM     25  C   UNL     1       2.351   3.678  20.022  0.00  0.00    +0.000 A 
ATOM     26  N   UNL     1       3.115   3.731  18.911  0.00  0.00    +0.000 NA
ATOM     27  C   UNL     1       3.415   4.956  18.403  0.00  0.00    +0.000 A 
ATOM     28  C   UNL     1       2.948   6.123  19.003  0.00  0.00    +0.000 A 
BRANCH  27  29
ATOM     29  C   UNL     1       4.319   4.955  17.236  0.00  0.00    +0.000 A 
ATOM     30  C   UNL     1       4.865   3.746  16.759  0.00  0.00    +0.000 A 
ATOM     31  C   UNL     1       5.745   3.716  15.671  0.00  0.00    +0.000 A 
ATOM     32  C   UNL     1       6.098   4.899  15.029  0.00  0.00    +0.000 A 
ATOM     33  C   UNL     1       5.568   6.106  15.473  0.00  0.00    +0.000 A 
ATOM     34  C   UNL     1       4.690   6.127  16.559  0.00  0.00    +0.000 A 
ATOM     35  F   UNL     1       4.195   7.318  16.930  0.00  0.00    +0.000 F 
ENDBRANCH  27  29
ENDBRANCH  21  23
ENDBRANCH   5  21
TORSDOF 7
ENDMDL
