MODEL 1
REMARK VINA RESULT:      -6.9      0.000      0.000
REMARK  Name = 
REMARK  7 active torsions:
REMARK  status: ('A' for Active; 'I' for Inactive)
REMARK    1  A    between atoms: C_1  and  C_2
REMARK    2  A    between atoms: C_2  and  C_3
REMARK    3  A    between atoms: C_3  and  C_4
REMARK    4  A    between atoms: C_3  and  C_5
REMARK    5  A    between atoms: C_3  and  C_6
REMARK    6  A    between atoms: N_8  and  C_9
REMARK    7  A    between atoms: C_9  and  C_10
REMARK                            x       y       z     vdW  Elec       q    Type
REMARK                         _______ _______ _______ _____ _____    ______ ____
ROOT
ATOM      1  C   UNL     1       5.651   4.558  17.998  0.00  0.00    +0.000 C 
ATOM      2  O   UNL     1       6.217   4.087  18.983  0.00  0.00    +0.000 OA
ATOM      3  N   UNL     1       4.536   3.970  17.445  0.00  0.00    +0.000 N 
ATOM      4  H   UNL     1       4.037   4.427  16.695  0.00  0.00    +0.000 HD
ENDROOT
BRANCH   1   5
ATOM      5  C   UNL     1       6.165   5.818  17.269  0.00  0.00    +0.000 C 
ATOM      6  C   UNL     1       5.019   6.839  17.133  0.00  0.00    +0.000 C 
ATOM      7  C   UNL     1       6.621   5.437  15.848  0.00  0.00    +0.000 C 
BRANCH   5   9
ATOM      8  C   UNL     1       7.730   7.859  17.608  0.00  0.00    +0.000 C 
ATOM      9  C   UNL     1       7.359   6.442  18.036  0.00  0.00    +0.000 C 
ENDBRANCH   5   9
ENDBRANCH   1   5
BRANCH   3  10
ATOM     10  C   UNL     1       3.971   2.745  17.966  0.00  0.00    +0.000 C 
BRANCH  10  11
ATOM     11  C   UNL     1       3.039   2.994  19.123  0.00  0.00    +0.000 A 
ATOM     12  C   UNL     1       3.396   2.514  20.395  0.00  0.00    +0.000 A 
ATOM     13  C   UNL     1       2.557   2.693  21.496  0.00  0.00    +0.000 A 
ATOM     14  C   UNL     1       1.350   3.368  21.346  0.00  0.00    +0.000 A 
ATOM     15  C   UNL     1       0.989   3.874  20.097  0.00  0.00    +0.000 A 
ATOM     16  C   UNL     1       1.829   3.695  18.994  0.00  0.00    +0.000 A 
ATOM     17 CL   UNL     1       1.324   4.370  17.486  0.00  0.00    +0.000 Cl
ENDBRANCH  10  11
ENDBRANCH   3  10
TORSDOF 4
ENDMDL
MODEL 2
REMARK VINA RESULT:      -6.8      0.596      1.664
REMARK  Name = 
REMARK  7 active torsions:
REMARK  status: ('A' for Active; 'I' for Inactive)
REMARK    1  A    between atoms: C_1  and  C_2
REMARK    2  A    between atoms: C_2  and  C_3
REMARK    3  A    between atoms: C_3  and  C_4
REMARK    4  A    between atoms: C_3  and  C_5
REMARK    5  A    between atoms: C_3  and  C_6
REMARK    6  A    between atoms: N_8  and  C_9
REMARK    7  A    between atoms: C_9  and  C_10
REMARK                            x       y       z     vdW  Elec       q    Type
REMARK                         _______ _______ _______ _____ _____    ______ ____
ROOT
ATOM      1  C   UNL     1       5.461   4.645  17.628  0.00  0.00    +0.000 C 
ATOM      2  O   UNL     1       6.250   4.258  18.488  0.00  0.00    +0.000 OA
ATOM      3  N   UNL     1       4.303   3.961  17.336  0.00  0.00    +0.000 N 
ATOM      4  H   UNL     1       3.629   4.350  16.693  0.00  0.00    +0.000 HD
ENDROOT
BRANCH   1   5
ATOM      5  C   UNL     1       5.722   5.901  16.768  0.00  0.00    +0.000 C 
ATOM      6  C   UNL     1       7.078   6.520  17.156  0.00  0.00    +0.000 C 
ATOM      7  C   UNL     1       4.631   6.951  17.052  0.00  0.00    +0.000 C 
BRANCH   5   9
ATOM      8  C   UNL     1       6.732   4.501  14.832  0.00  0.00    +0.000 C 
ATOM      9  C   UNL     1       5.701   5.542  15.260  0.00  0.00    +0.000 C 
ENDBRANCH   5   9
ENDBRANCH   1   5
BRANCH   3  10
ATOM     10  C   UNL     1       3.947   2.728  18.003  0.00  0.00    +0.000 C 
BRANCH  10  11
ATOM     11  C   UNL     1       3.019   2.956  19.167  0.00  0.00    +0.000 A 
ATOM     12  C   UNL     1       3.400   2.491  20.438  0.00  0.00    +0.000 A 
ATOM     13  C   UNL     1       2.566   2.652  21.545  0.00  0.00    +0.000 A 
ATOM     14  C   UNL     1       1.339   3.292  21.403  0.00  0.00    +0.000 A 
ATOM     15  C   UNL     1       0.952   3.781  20.155  0.00  0.00    +0.000 A 
ATOM     16  C   UNL     1       1.788   3.621  19.045  0.00  0.00    +0.000 A 
ATOM     17 CL   UNL     1       1.251   4.275  17.539  0.00  0.00    +0.000 Cl
ENDBRANCH  10  11
ENDBRANCH   3  10
TORSDOF 4
ENDMDL
MODEL 3
REMARK VINA RESULT:      -6.8      1.734      2.477
REMARK  Name = 
REMARK  7 active torsions:
REMARK  status: ('A' for Active; 'I' for Inactive)
REMARK    1  A    between atoms: C_1  and  C_2
REMARK    2  A    between atoms: C_2  and  C_3
REMARK    3  A    between atoms: C_3  and  C_4
REMARK    4  A    between atoms: C_3  and  C_5
REMARK    5  A    between atoms: C_3  and  C_6
REMARK    6  A    between atoms: N_8  and  C_9
REMARK    7  A    between atoms: C_9  and  C_10
REMARK                            x       y       z     vdW  Elec       q    Type
REMARK                         _______ _______ _______ _____ _____    ______ ____
ROOT
ATOM      1  C   UNL     1       5.532   5.764  18.538  0.00  0.00    +0.000 C 
ATOM      2  O   UNL     1       5.271   5.490  19.708  0.00  0.00    +0.000 OA
ATOM      3  N   UNL     1       4.550   6.067  17.622  0.00  0.00    +0.000 N 
ATOM      4  H   UNL     1       4.797   6.379  16.693  0.00  0.00    +0.000 HD
ENDROOT
BRANCH   1   5
ATOM      5  C   UNL     1       6.972   5.746  17.981  0.00  0.00    +0.000 C 
ATOM      6  C   UNL     1       7.188   4.467  17.149  0.00  0.00    +0.000 C 
ATOM      7  C   UNL     1       7.973   5.715  19.152  0.00  0.00    +0.000 C 
BRANCH   5   9
ATOM      8  C   UNL     1       7.943   8.148  17.844  0.00  0.00    +0.000 C 
ATOM      9  C   UNL     1       7.238   7.005  17.118  0.00  0.00    +0.000 C 
ENDBRANCH   5   9
ENDBRANCH   1   5
BRANCH   3  10
ATOM     10  C   UNL     1       3.146   6.059  17.966  0.00  0.00    +0.000 C 
BRANCH  10  11
ATOM     11  C   UNL     1       2.645   4.676  18.291  0.00  0.00    +0.000 A 
ATOM     12  C   UNL     1       2.897   3.634  17.381  0.00  0.00    +0.000 A 
ATOM     13  C   UNL     1       2.432   2.340  17.621  0.00  0.00    +0.000 A 
ATOM     14  C   UNL     1       1.718   2.062  18.781  0.00  0.00    +0.000 A 
ATOM     15  C   UNL     1       1.479   3.077  19.708  0.00  0.00    +0.000 A 
ATOM     16  C   UNL     1       1.944   4.374  19.470  0.00  0.00    +0.000 A 
ATOM     17 CL   UNL     1       1.629   5.571  20.675  0.00  0.00    +0.000 Cl
ENDBRANCH  10  11
ENDBRANCH   3  10
TORSDOF 4
ENDMDL
MODEL 4
REMARK VINA RESULT:      -6.8      1.503      2.271
REMARK  Name = 
REMARK  7 active torsions:
REMARK  status: ('A' for Active; 'I' for Inactive)
REMARK    1  A    between atoms: C_1  and  C_2
REMARK    2  A    between atoms: C_2  and  C_3
REMARK    3  A    between atoms: C_3  and  C_4
REMARK    4  A    between atoms: C_3  and  C_5
REMARK    5  A    between atoms: C_3  and  C_6
REMARK    6  A    between atoms: N_8  and  C_9
REMARK    7  A    between atoms: C_9  and  C_10
REMARK                            x       y       z     vdW  Elec       q    Type
REMARK                         _______ _______ _______ _____ _____    ______ ____
ROOT
ATOM      1  C   UNL     1       6.458   5.039  18.060  0.00  0.00    +0.000 C 
ATOM      2  O   UNL     1       7.425   4.508  18.601  0.00  0.00    +0.000 OA
ATOM      3  N   UNL     1       5.165   4.779  18.456  0.00  0.00    +0.000 N 
ATOM      4  H   UNL     1       4.395   5.298  18.058  0.00  0.00    +0.000 HD
ENDROOT
BRANCH   1   5
ATOM      5  C   UNL     1       6.601   6.004  16.863  0.00  0.00    +0.000 C 
ATOM      6  C   UNL     1       7.526   7.173  17.251  0.00  0.00    +0.000 C 
ATOM      7  C   UNL     1       5.222   6.596  16.515  0.00  0.00    +0.000 C 
BRANCH   5   9
ATOM      8  C   UNL     1       6.250   4.170  15.063  0.00  0.00    +0.000 C 
ATOM      9  C   UNL     1       7.161   5.256  15.626  0.00  0.00    +0.000 C 
ENDBRANCH   5   9
ENDBRANCH   1   5
BRANCH   3  10
ATOM     10  C   UNL     1       4.856   3.845  19.515  0.00  0.00    +0.000 C 
BRANCH  10  11
ATOM     11  C   UNL     1       3.376   3.600  19.647  0.00  0.00    +0.000 A 
ATOM     12  C   UNL     1       2.601   4.517  20.380  0.00  0.00    +0.000 A 
ATOM     13  C   UNL     1       1.230   4.324  20.555  0.00  0.00    +0.000 A 
ATOM     14  C   UNL     1       0.606   3.216  19.991  0.00  0.00    +0.000 A 
ATOM     15  C   UNL     1       1.353   2.307  19.240  0.00  0.00    +0.000 A 
ATOM     16  C   UNL     1       2.727   2.500  19.063  0.00  0.00    +0.000 A 
ATOM     17 CL   UNL     1       3.579   1.345  18.101  0.00  0.00    +0.000 Cl
ENDBRANCH  10  11
ENDBRANCH   3  10
TORSDOF 4
ENDMDL
MODEL 5
REMARK VINA RESULT:      -6.8      1.702      2.741
REMARK  Name = 
REMARK  7 active torsions:
REMARK  status: ('A' for Active; 'I' for Inactive)
REMARK    1  A    between atoms: C_1  and  C_2
REMARK    2  A    between atoms: C_2  and  C_3
REMARK    3  A    between atoms: C_3  and  C_4
REMARK    4  A    between atoms: C_3  and  C_5
REMARK    5  A    between atoms: C_3  and  C_6
REMARK    6  A    between atoms: N_8  and  C_9
REMARK    7  A    between atoms: C_9  and  C_10
REMARK                            x       y       z     vdW  Elec       q    Type
REMARK                         _______ _______ _______ _____ _____    ______ ____
ROOT
ATOM      1  C   UNL     1       5.420   5.769  18.105  0.00  0.00    +0.000 C 
ATOM      2  O   UNL     1       5.447   5.511  19.307  0.00  0.00    +0.000 OA
ATOM      3  N   UNL     1       4.252   6.093  17.453  0.00  0.00    +0.000 N 
ATOM      4  H   UNL     1       4.272   6.390  16.488  0.00  0.00    +0.000 HD
ENDROOT
BRANCH   1   5
ATOM      5  C   UNL     1       6.679   5.705  17.213  0.00  0.00    +0.000 C 
ATOM      6  C   UNL     1       7.626   4.607  17.733  0.00  0.00    +0.000 C 
ATOM      7  C   UNL     1       7.432   7.047  17.294  0.00  0.00    +0.000 C 
BRANCH   5   9
ATOM      8  C   UNL     1       6.100   3.957  15.386  0.00  0.00    +0.000 C 
ATOM      9  C   UNL     1       6.288   5.430  15.739  0.00  0.00    +0.000 C 
ENDBRANCH   5   9
ENDBRANCH   1   5
BRANCH   3  10
ATOM     10  C   UNL     1       2.975   6.127  18.130  0.00  0.00    +0.000 C 
BRANCH  10  11
ATOM     11  C   UNL     1       2.449   4.747  18.427  0.00  0.00    +0.000 A 
ATOM     12  C   UNL     1       2.678   3.720  17.495  0.00  0.00    +0.000 A 
ATOM     13  C   UNL     1       2.189   2.430  17.708  0.00  0.00    +0.000 A 
ATOM     14  C   UNL     1       1.472   2.141  18.865  0.00  0.00    +0.000 A 
ATOM     15  C   UNL     1       1.255   3.141  19.814  0.00  0.00    +0.000 A 
ATOM     16  C   UNL     1       1.745   4.434  19.601  0.00  0.00    +0.000 A 
ATOM     17 CL   UNL     1       1.455   5.611  20.832  0.00  0.00    +0.000 Cl
ENDBRANCH  10  11
ENDBRANCH   3  10
TORSDOF 4
ENDMDL
MODEL 6
REMARK VINA RESULT:      -6.8      1.512      2.456
REMARK  Name = 
REMARK  7 active torsions:
REMARK  status: ('A' for Active; 'I' for Inactive)
REMARK    1  A    between atoms: C_1  and  C_2
REMARK    2  A    between atoms: C_2  and  C_3
REMARK    3  A    between atoms: C_3  and  C_4
REMARK    4  A    between atoms: C_3  and  C_5
REMARK    5  A    between atoms: C_3  and  C_6
REMARK    6  A    between atoms: N_8  and  C_9
REMARK    7  A    between atoms: C_9  and  C_10
REMARK                            x       y       z     vdW  Elec       q    Type
REMARK                         _______ _______ _______ _____ _____    ______ ____
ROOT
ATOM      1  C   UNL     1       5.374   4.553  17.591  0.00  0.00    +0.000 C 
ATOM      2  O   UNL     1       6.118   4.139  18.478  0.00  0.00    +0.000 OA
ATOM      3  N   UNL     1       4.236   3.874  17.216  0.00  0.00    +0.000 N 
ATOM      4  H   UNL     1       3.594   4.283  16.552  0.00  0.00    +0.000 HD
ENDROOT
BRANCH   1   5
ATOM      5  C   UNL     1       5.672   5.838  16.790  0.00  0.00    +0.000 C 
ATOM      6  C   UNL     1       7.077   6.357  17.149  0.00  0.00    +0.000 C 
ATOM      7  C   UNL     1       4.658   6.931  17.179  0.00  0.00    +0.000 C 
BRANCH   5   9
ATOM      8  C   UNL     1       6.791   4.899  14.646  0.00  0.00    +0.000 C 
ATOM      9  C   UNL     1       5.567   5.566  15.267  0.00  0.00    +0.000 C 
ENDBRANCH   5   9
ENDBRANCH   1   5
BRANCH   3  10
ATOM     10  C   UNL     1       3.853   2.618  17.821  0.00  0.00    +0.000 C 
BRANCH  10  11
ATOM     11  C   UNL     1       2.964   2.810  19.021  0.00  0.00    +0.000 A 
ATOM     12  C   UNL     1       1.665   3.311  18.828  0.00  0.00    +0.000 A 
ATOM     13  C   UNL     1       0.809   3.533  19.909  0.00  0.00    +0.000 A 
ATOM     14  C   UNL     1       1.234   3.246  21.202  0.00  0.00    +0.000 A 
ATOM     15  C   UNL     1       2.512   2.725  21.412  0.00  0.00    +0.000 A 
ATOM     16  C   UNL     1       3.369   2.502  20.330  0.00  0.00    +0.000 A 
ATOM     17 CL   UNL     1       4.926   1.833  20.668  0.00  0.00    +0.000 Cl
ENDBRANCH  10  11
ENDBRANCH   3  10
TORSDOF 4
ENDMDL
MODEL 7
REMARK VINA RESULT:      -6.8      1.747      5.654
REMARK  Name = 
REMARK  7 active torsions:
REMARK  status: ('A' for Active; 'I' for Inactive)
REMARK    1  A    between atoms: C_1  and  C_2
REMARK    2  A    between atoms: C_2  and  C_3
REMARK    3  A    between atoms: C_3  and  C_4
REMARK    4  A    between atoms: C_3  and  C_5
REMARK    5  A    between atoms: C_3  and  C_6
REMARK    6  A    between atoms: N_8  and  C_9
REMARK    7  A    between atoms: C_9  and  C_10
REMARK                            x       y       z     vdW  Elec       q    Type
REMARK                         _______ _______ _______ _____ _____    ______ ____
ROOT
ATOM      1  C   UNL     1       3.508   3.527  19.465  0.00  0.00    +0.000 C 
ATOM      2  O   UNL     1       4.271   2.636  19.835  0.00  0.00    +0.000 OA
ATOM      3  N   UNL     1       3.754   4.278  18.338  0.00  0.00    +0.000 N 
ATOM      4  H   UNL     1       3.066   4.939  18.005  0.00  0.00    +0.000 HD
ENDROOT
BRANCH   1   5
ATOM      5  C   UNL     1       2.239   3.913  20.254  0.00  0.00    +0.000 C 
ATOM      6  C   UNL     1       2.295   5.408  20.623  0.00  0.00    +0.000 C 
ATOM      7  C   UNL     1       2.187   3.110  21.567  0.00  0.00    +0.000 C 
BRANCH   5   9
ATOM      8  C   UNL     1       0.865   2.177  18.902  0.00  0.00    +0.000 C 
ATOM      9  C   UNL     1       0.967   3.609  19.421  0.00  0.00    +0.000 C 
ENDBRANCH   5   9
ENDBRANCH   1   5
BRANCH   3  10
ATOM     10  C   UNL     1       4.936   4.089  17.527  0.00  0.00    +0.000 C 
BRANCH  10  11
ATOM     11  C   UNL     1       5.979   5.145  17.783  0.00  0.00    +0.000 A 
ATOM     12  C   UNL     1       6.881   4.962  18.845  0.00  0.00    +0.000 A 
ATOM     13  C   UNL     1       7.850   5.922  19.143  0.00  0.00    +0.000 A 
ATOM     14  C   UNL     1       7.941   7.079  18.375  0.00  0.00    +0.000 A 
ATOM     15  C   UNL     1       7.070   7.268  17.301  0.00  0.00    +0.000 A 
ATOM     16  C   UNL     1       6.099   6.306  17.002  0.00  0.00    +0.000 A 
ATOM     17 CL   UNL     1       5.073   6.601  15.644  0.00  0.00    +0.000 Cl
ENDBRANCH  10  11
ENDBRANCH   3  10
TORSDOF 4
ENDMDL
MODEL 8
REMARK VINA RESULT:      -6.8      1.248      1.293
REMARK  Name = 
REMARK  7 active torsions:
REMARK  status: ('A' for Active; 'I' for Inactive)
REMARK    1  A    between atoms: C_1  and  C_2
REMARK    2  A    between atoms: C_2  and  C_3
REMARK    3  A    between atoms: C_3  and  C_4
REMARK    4  A    between atoms: C_3  and  C_5
REMARK    5  A    between atoms: C_3  and  C_6
REMARK    6  A    between atoms: N_8  and  C_9
REMARK    7  A    between atoms: C_9  and  C_10
REMARK                            x       y       z     vdW  Elec       q    Type
REMARK                         _______ _______ _______ _____ _____    ______ ____
ROOT
ATOM      1  C   UNL     1       5.263   4.179  16.705  0.00  0.00    +0.000 C 
ATOM      2  O   UNL     1       4.552   4.072  15.707  0.00  0.00    +0.000 OA
ATOM      3  N   UNL     1       5.021   3.462  17.855  0.00  0.00    +0.000 N 
ATOM      4  H   UNL     1       5.673   3.498  18.626  0.00  0.00    +0.000 HD
ENDROOT
BRANCH   1   5
ATOM      5  C   UNL     1       6.456   5.156  16.775  0.00  0.00    +0.000 C 
ATOM      6  C   UNL     1       5.936   6.594  16.964  0.00  0.00    +0.000 C 
ATOM      7  C   UNL     1       7.232   5.112  15.444  0.00  0.00    +0.000 C 
BRANCH   5   9
ATOM      8  C   UNL     1       7.786   5.914  18.869  0.00  0.00    +0.000 C 
ATOM      9  C   UNL     1       7.410   4.768  17.933  0.00  0.00    +0.000 C 
ENDBRANCH   5   9
ENDBRANCH   1   5
BRANCH   3  10
ATOM     10  C   UNL     1       3.901   2.556  17.977  0.00  0.00    +0.000 C 
BRANCH  10  11
ATOM     11  C   UNL     1       3.015   2.897  19.147  0.00  0.00    +0.000 A 
ATOM     12  C   UNL     1       3.356   2.406  20.419  0.00  0.00    +0.000 A 
ATOM     13  C   UNL     1       2.555   2.670  21.532  0.00  0.00    +0.000 A 
ATOM     14  C   UNL     1       1.405   3.440  21.394  0.00  0.00    +0.000 A 
ATOM     15  C   UNL     1       1.063   3.957  20.144  0.00  0.00    +0.000 A 
ATOM     16  C   UNL     1       1.865   3.694  19.028  0.00  0.00    +0.000 A 
ATOM     17 CL   UNL     1       1.388   4.387  17.519  0.00  0.00    +0.000 Cl
ENDBRANCH  10  11
ENDBRANCH   3  10
TORSDOF 4
ENDMDL
MODEL 9
REMARK VINA RESULT:      -6.7      1.025      1.818
REMARK  Name = 
REMARK  7 active torsions:
REMARK  status: ('A' for Active; 'I' for Inactive)
REMARK    1  A    between atoms: C_1  and  C_2
REMARK    2  A    between atoms: C_2  and  C_3
REMARK    3  A    between atoms: C_3  and  C_4
REMARK    4  A    between atoms: C_3  and  C_5
REMARK    5  A    between atoms: C_3  and  C_6
REMARK    6  A    between atoms: N_8  and  C_9
REMARK    7  A    between atoms: C_9  and  C_10
REMARK                            x       y       z     vdW  Elec       q    Type
REMARK                         _______ _______ _______ _____ _____    ______ ____
ROOT
ATOM      1  C   UNL     1       6.031   4.874  18.600  0.00  0.00    +0.000 C 
ATOM      2  O   UNL     1       6.410   5.182  19.728  0.00  0.00    +0.000 OA
ATOM      3  N   UNL     1       5.230   3.778  18.372  0.00  0.00    +0.000 N 
ATOM      4  H   UNL     1       4.857   3.602  17.450  0.00  0.00    +0.000 HD
ENDROOT
BRANCH   1   5
ATOM      5  C   UNL     1       6.456   5.656  17.339  0.00  0.00    +0.000 C 
ATOM      6  C   UNL     1       7.474   6.746  17.725  0.00  0.00    +0.000 C 
ATOM      7  C   UNL     1       5.227   6.360  16.733  0.00  0.00    +0.000 C 
BRANCH   5   9
ATOM      8  C   UNL     1       6.266   4.575  14.988  0.00  0.00    +0.000 C 
ATOM      9  C   UNL     1       7.064   4.697  16.283  0.00  0.00    +0.000 C 
ENDBRANCH   5   9
ENDBRANCH   1   5
BRANCH   3  10
ATOM     10  C   UNL     1       4.801   2.901  19.438  0.00  0.00    +0.000 C 
BRANCH  10  11
ATOM     11  C   UNL     1       3.323   3.010  19.707  0.00  0.00    +0.000 A 
ATOM     12  C   UNL     1       2.872   2.964  21.038  0.00  0.00    +0.000 A 
ATOM     13  C   UNL     1       1.511   3.033  21.342  0.00  0.00    +0.000 A 
ATOM     14  C   UNL     1       0.577   3.162  20.319  0.00  0.00    +0.000 A 
ATOM     15  C   UNL     1       1.006   3.234  18.993  0.00  0.00    +0.000 A 
ATOM     16  C   UNL     1       2.369   3.165  18.688  0.00  0.00    +0.000 A 
ATOM     17 CL   UNL     1       2.824   3.284  17.025  0.00  0.00    +0.000 Cl
ENDBRANCH  10  11
ENDBRANCH   3  10
TORSDOF 4
ENDMDL
