MODEL 1
REMARK VINA RESULT:      -7.8      0.000      0.000
REMARK  Name = 
REMARK  4 active torsions:
REMARK  status: ('A' for Active; 'I' for Inactive)
REMARK    1  A    between atoms: C_1  and  C_2
REMARK    2  A    between atoms: C_2  and  C_3
REMARK    3  A    between atoms: C_3  and  C_4
REMARK    4  A    between atoms: C_10  and  C_11
REMARK                            x       y       z     vdW  Elec       q    Type
REMARK                         _______ _______ _______ _____ _____    ______ ____
ROOT
ATOM      1  C   UNL     1       5.652   4.451  14.956  0.00  0.00    +0.000 A 
ATOM      2  C   UNL     1       5.624   5.851  15.046  0.00  0.00    +0.000 A 
ATOM      3  C   UNL     1       5.014   6.485  16.133  0.00  0.00    +0.000 A 
ATOM      4  C   UNL     1       4.427   5.724  17.141  0.00  0.00    +0.000 A 
ATOM      5  O   UNL     1       3.851   6.397  18.189  0.00  0.00    +0.000 OA
ATOM      6  C   UNL     1       3.309   5.649  19.208  0.00  0.00    +0.000 A 
ATOM      7  C   UNL     1       3.247   4.311  19.269  0.00  0.00    +0.000 A 
ATOM      8  C   UNL     1       3.817   3.548  18.129  0.00  0.00    +0.000 A 
ATOM      9  O   UNL     1       3.768   2.321  18.087  0.00  0.00    +0.000 OA
ATOM     10  C   UNL     1       4.448   4.335  17.058  0.00  0.00    +0.000 A 
ATOM     11  C   UNL     1       5.062   3.694  15.978  0.00  0.00    +0.000 A 
ENDROOT
BRANCH   7  12
ATOM     12  C   UNL     1       2.664   3.668  20.384  0.00  0.00    +0.000 A 
ATOM     13  N   UNL     1       1.507   3.827  21.000  0.00  0.00    +0.000 NA
ATOM     14  N   UNL     1       1.491   2.920  22.034  0.00  0.00    +0.000 NA
ATOM     15  N   UNL     1       2.610   2.211  22.065  0.00  0.00    +0.000 NA
ATOM     16  N   UNL     1       3.341   2.673  21.041  0.00  0.00    +0.000 N 
ATOM     17  H   UNL     1       4.260   2.289  20.842  0.00  0.00    +0.000 HD
ENDBRANCH   7  12
BRANCH   1  18
ATOM     18  C   UNL     1       6.317   3.768  13.783  0.00  0.00    +0.000 C 
BRANCH  18  20
ATOM     19  C   UNL     1       5.600   2.461  11.713  0.00  0.00    +0.000 C 
ATOM     20  C   UNL     1       5.478   3.758  12.501  0.00  0.00    +0.000 C 
ENDBRANCH  18  20
ENDBRANCH   1  18
TORSDOF 3
ENDMDL
MODEL 2
REMARK VINA RESULT:      -7.6      1.443      1.789
REMARK  Name = 
REMARK  4 active torsions:
REMARK  status: ('A' for Active; 'I' for Inactive)
REMARK    1  A    between atoms: C_1  and  C_2
REMARK    2  A    between atoms: C_2  and  C_3
REMARK    3  A    between atoms: C_3  and  C_4
REMARK    4  A    between atoms: C_10  and  C_11
REMARK                            x       y       z     vdW  Elec       q    Type
REMARK                         _______ _______ _______ _____ _____    ______ ____
ROOT
ATOM      1  C   UNL     1       6.243   4.309  14.422  0.00  0.00    +0.000 A 
ATOM      2  C   UNL     1       7.354   4.814  15.115  0.00  0.00    +0.000 A 
ATOM      3  C   UNL     1       7.318   4.975  16.504  0.00  0.00    +0.000 A 
ATOM      4  C   UNL     1       6.170   4.630  17.213  0.00  0.00    +0.000 A 
ATOM      5  O   UNL     1       6.192   4.799  18.575  0.00  0.00    +0.000 OA
ATOM      6  C   UNL     1       5.076   4.418  19.284  0.00  0.00    +0.000 A 
ATOM      7  C   UNL     1       3.936   3.930  18.774  0.00  0.00    +0.000 A 
ATOM      8  C   UNL     1       3.857   3.779  17.299  0.00  0.00    +0.000 A 
ATOM      9  O   UNL     1       2.836   3.374  16.747  0.00  0.00    +0.000 OA
ATOM     10  C   UNL     1       5.062   4.131  16.533  0.00  0.00    +0.000 A 
ATOM     11  C   UNL     1       5.094   3.962  15.146  0.00  0.00    +0.000 A 
ENDROOT
BRANCH   7  12
ATOM     12  C   UNL     1       2.864   3.573  19.623  0.00  0.00    +0.000 A 
ATOM     13  N   UNL     1       2.784   2.768  20.667  0.00  0.00    +0.000 NA
ATOM     14  N   UNL     1       1.475   2.811  21.089  0.00  0.00    +0.000 NA
ATOM     15  N   UNL     1       0.755   3.622  20.329  0.00  0.00    +0.000 NA
ATOM     16  N   UNL     1       1.614   4.098  19.418  0.00  0.00    +0.000 N 
ATOM     17  H   UNL     1       1.307   4.753  18.704  0.00  0.00    +0.000 HD
ENDBRANCH   7  12
BRANCH   1  18
ATOM     18  C   UNL     1       6.287   4.131  12.922  0.00  0.00    +0.000 C 
BRANCH  18  20
ATOM     19  C   UNL     1       4.336   3.352  11.475  0.00  0.00    +0.000 C 
ATOM     20  C   UNL     1       5.471   2.942  12.404  0.00  0.00    +0.000 C 
ENDBRANCH  18  20
ENDBRANCH   1  18
TORSDOF 3
ENDMDL
MODEL 3
REMARK VINA RESULT:      -7.5      4.147      6.483
REMARK  Name = 
REMARK  4 active torsions:
REMARK  status: ('A' for Active; 'I' for Inactive)
REMARK    1  A    between atoms: C_1  and  C_2
REMARK    2  A    between atoms: C_2  and  C_3
REMARK    3  A    between atoms: C_3  and  C_4
REMARK    4  A    between atoms: C_10  and  C_11
REMARK                            x       y       z     vdW  Elec       q    Type
REMARK                         _______ _______ _______ _____ _____    ______ ____
ROOT
ATOM      1  C   UNL     1       1.710   4.388  19.690  0.00  0.00    +0.000 A 
ATOM      2  C   UNL     1       1.643   5.748  20.030  0.00  0.00    +0.000 A 
ATOM      3  C   UNL     1       2.473   6.683  19.402  0.00  0.00    +0.000 A 
ATOM      4  C   UNL     1       3.374   6.266  18.427  0.00  0.00    +0.000 A 
ATOM      5  O   UNL     1       4.157   7.226  17.836  0.00  0.00    +0.000 OA
ATOM      6  C   UNL     1       5.018   6.825  16.841  0.00  0.00    +0.000 A 
ATOM      7  C   UNL     1       5.207   5.571  16.408  0.00  0.00    +0.000 A 
ATOM      8  C   UNL     1       4.413   4.497  17.058  0.00  0.00    +0.000 A 
ATOM      9  O   UNL     1       4.552   3.316  16.747  0.00  0.00    +0.000 OA
ATOM     10  C   UNL     1       3.449   4.919  18.085  0.00  0.00    +0.000 A 
ATOM     11  C   UNL     1       2.618   3.980  18.705  0.00  0.00    +0.000 A 
ENDROOT
BRANCH   7  12
ATOM     12  C   UNL     1       6.126   5.300  15.368  0.00  0.00    +0.000 A 
ATOM     13  N   UNL     1       7.373   5.679  15.159  0.00  0.00    +0.000 NA
ATOM     14  N   UNL     1       7.758   5.106  13.970  0.00  0.00    +0.000 NA
ATOM     15  N   UNL     1       6.776   4.387  13.447  0.00  0.00    +0.000 NA
ATOM     16  N   UNL     1       5.760   4.504  14.313  0.00  0.00    +0.000 N 
ATOM     17  H   UNL     1       4.873   4.039  14.142  0.00  0.00    +0.000 HD
ENDBRANCH   7  12
BRANCH   1  18
ATOM     18  C   UNL     1       0.809   3.380  20.366  0.00  0.00    +0.000 C 
BRANCH  18  20
ATOM     19  C   UNL     1       2.775   2.318  21.595  0.00  0.00    +0.000 C 
ATOM     20  C   UNL     1       1.350   2.843  21.696  0.00  0.00    +0.000 C 
ENDBRANCH  18  20
ENDBRANCH   1  18
TORSDOF 3
ENDMDL
MODEL 4
REMARK VINA RESULT:      -7.3      4.117      7.166
REMARK  Name = 
REMARK  4 active torsions:
REMARK  status: ('A' for Active; 'I' for Inactive)
REMARK    1  A    between atoms: C_1  and  C_2
REMARK    2  A    between atoms: C_2  and  C_3
REMARK    3  A    between atoms: C_3  and  C_4
REMARK    4  A    between atoms: C_10  and  C_11
REMARK                            x       y       z     vdW  Elec       q    Type
REMARK                         _______ _______ _______ _____ _____    ______ ____
ROOT
ATOM      1  C   UNL     1       1.759   7.424  20.218  0.00  0.00    +0.000 A 
ATOM      2  C   UNL     1       1.520   6.206  20.874  0.00  0.00    +0.000 A 
ATOM      3  C   UNL     1       2.115   5.023  20.423  0.00  0.00    +0.000 A 
ATOM      4  C   UNL     1       2.956   5.048  19.314  0.00  0.00    +0.000 A 
ATOM      5  O   UNL     1       3.521   3.861  18.920  0.00  0.00    +0.000 OA
ATOM      6  C   UNL     1       4.386   3.888  17.851  0.00  0.00    +0.000 A 
ATOM      7  C   UNL     1       4.711   4.961  17.116  0.00  0.00    +0.000 A 
ATOM      8  C   UNL     1       4.081   6.255  17.481  0.00  0.00    +0.000 A 
ATOM      9  O   UNL     1       4.294   7.280  16.837  0.00  0.00    +0.000 OA
ATOM     10  C   UNL     1       3.196   6.251  18.656  0.00  0.00    +0.000 A 
ATOM     11  C   UNL     1       2.609   7.438  19.105  0.00  0.00    +0.000 A 
ENDROOT
BRANCH   7  12
ATOM     12  C   UNL     1       5.623   4.847  16.043  0.00  0.00    +0.000 A 
ATOM     13  N   UNL     1       5.690   4.023  15.013  0.00  0.00    +0.000 NA
ATOM     14  N   UNL     1       6.808   4.387  14.298  0.00  0.00    +0.000 NA
ATOM     15  N   UNL     1       7.424   5.412  14.866  0.00  0.00    +0.000 NA
ATOM     16  N   UNL     1       6.692   5.702  15.949  0.00  0.00    +0.000 N 
ATOM     17  H   UNL     1       6.955   6.463  16.568  0.00  0.00    +0.000 HD
ENDBRANCH   7  12
BRANCH   1  18
ATOM     18  C   UNL     1       1.119   8.701  20.710  0.00  0.00    +0.000 C 
BRANCH  18  20
ATOM     19  C   UNL     1      -0.092   9.379  22.851  0.00  0.00    +0.000 C 
ATOM     20  C   UNL     1      -0.099   8.488  21.616  0.00  0.00    +0.000 C 
ENDBRANCH  18  20
ENDBRANCH   1  18
TORSDOF 3
ENDMDL
MODEL 5
REMARK VINA RESULT:      -7.3      3.994      6.956
REMARK  Name = 
REMARK  4 active torsions:
REMARK  status: ('A' for Active; 'I' for Inactive)
REMARK    1  A    between atoms: C_1  and  C_2
REMARK    2  A    between atoms: C_2  and  C_3
REMARK    3  A    between atoms: C_3  and  C_4
REMARK    4  A    between atoms: C_10  and  C_11
REMARK                            x       y       z     vdW  Elec       q    Type
REMARK                         _______ _______ _______ _____ _____    ______ ____
ROOT
ATOM      1  C   UNL     1       1.805   6.252  20.357  0.00  0.00    +0.000 A 
ATOM      2  C   UNL     1       1.523   4.905  20.636  0.00  0.00    +0.000 A 
ATOM      3  C   UNL     1       2.120   3.882  19.893  0.00  0.00    +0.000 A 
ATOM      4  C   UNL     1       3.004   4.196  18.865  0.00  0.00    +0.000 A 
ATOM      5  O   UNL     1       3.569   3.152  18.173  0.00  0.00    +0.000 OA
ATOM      6  C   UNL     1       4.477   3.457  17.186  0.00  0.00    +0.000 A 
ATOM      7  C   UNL     1       4.845   4.685  16.793  0.00  0.00    +0.000 A 
ATOM      8  C   UNL     1       4.219   5.840  17.485  0.00  0.00    +0.000 A 
ATOM      9  O   UNL     1       4.472   6.998  17.162  0.00  0.00    +0.000 OA
ATOM     10  C   UNL     1       3.287   5.528  18.580  0.00  0.00    +0.000 A 
ATOM     11  C   UNL     1       2.700   6.556  19.323  0.00  0.00    +0.000 A 
ENDROOT
BRANCH   7  12
ATOM     12  C   UNL     1       5.798   4.854  15.763  0.00  0.00    +0.000 A 
ATOM     13  N   UNL     1       5.844   4.433  14.513  0.00  0.00    +0.000 NA
ATOM     14  N   UNL     1       7.025   4.903  13.988  0.00  0.00    +0.000 NA
ATOM     15  N   UNL     1       7.702   5.600  14.888  0.00  0.00    +0.000 NA
ATOM     16  N   UNL     1       6.943   5.572  15.992  0.00  0.00    +0.000 N 
ATOM     17  H   UNL     1       7.242   6.042  16.842  0.00  0.00    +0.000 HD
ENDBRANCH   7  12
BRANCH   1  18
ATOM     18  C   UNL     1       1.163   7.355  21.166  0.00  0.00    +0.000 C 
BRANCH  18  20
ATOM     19  C   UNL     1       0.129   9.680  20.984  0.00  0.00    +0.000 C 
ATOM     20  C   UNL     1       1.226   8.738  20.507  0.00  0.00    +0.000 C 
ENDBRANCH  18  20
ENDBRANCH   1  18
TORSDOF 3
ENDMDL
MODEL 6
REMARK VINA RESULT:      -7.2      4.575      7.007
REMARK  Name = 
REMARK  4 active torsions:
REMARK  status: ('A' for Active; 'I' for Inactive)
REMARK    1  A    between atoms: C_1  and  C_2
REMARK    2  A    between atoms: C_2  and  C_3
REMARK    3  A    between atoms: C_3  and  C_4
REMARK    4  A    between atoms: C_10  and  C_11
REMARK                            x       y       z     vdW  Elec       q    Type
REMARK                         _______ _______ _______ _____ _____    ______ ____
ROOT
ATOM      1  C   UNL     1       2.724   6.600  18.965  0.00  0.00    +0.000 A 
ATOM      2  C   UNL     1       2.577   5.299  19.469  0.00  0.00    +0.000 A 
ATOM      3  C   UNL     1       3.219   4.218  18.856  0.00  0.00    +0.000 A 
ATOM      4  C   UNL     1       4.015   4.430  17.734  0.00  0.00    +0.000 A 
ATOM      5  O   UNL     1       4.630   3.336  17.178  0.00  0.00    +0.000 OA
ATOM      6  C   UNL     1       5.453   3.546  16.096  0.00  0.00    +0.000 A 
ATOM      7  C   UNL     1       5.690   4.719  15.492  0.00  0.00    +0.000 A 
ATOM      8  C   UNL     1       5.004   5.919  16.035  0.00  0.00    +0.000 A 
ATOM      9  O   UNL     1       5.137   7.026  15.518  0.00  0.00    +0.000 OA
ATOM     10  C   UNL     1       4.164   5.717  17.226  0.00  0.00    +0.000 A 
ATOM     11  C   UNL     1       3.530   6.803  17.837  0.00  0.00    +0.000 A 
ENDROOT
BRANCH   7  12
ATOM     12  C   UNL     1       6.567   4.793  14.386  0.00  0.00    +0.000 A 
ATOM     13  N   UNL     1       6.553   4.220  13.197  0.00  0.00    +0.000 NA
ATOM     14  N   UNL     1       7.676   4.664  12.539  0.00  0.00    +0.000 NA
ATOM     15  N   UNL     1       8.376   5.496  13.297  0.00  0.00    +0.000 NA
ATOM     16  N   UNL     1       7.690   5.579  14.445  0.00  0.00    +0.000 N 
ATOM     17  H   UNL     1       8.020   6.163  15.208  0.00  0.00    +0.000 HD
ENDBRANCH   7  12
BRANCH   1  18
ATOM     18  C   UNL     1       2.033   7.767  19.632  0.00  0.00    +0.000 C 
BRANCH  18  20
ATOM     19  C   UNL     1       0.707   9.917  19.275  0.00  0.00    +0.000 C 
ATOM     20  C   UNL     1       1.709   8.931  18.690  0.00  0.00    +0.000 C 
ENDBRANCH  18  20
ENDBRANCH   1  18
TORSDOF 3
ENDMDL
MODEL 7
REMARK VINA RESULT:      -7.1      0.775      1.017
REMARK  Name = 
REMARK  4 active torsions:
REMARK  status: ('A' for Active; 'I' for Inactive)
REMARK    1  A    between atoms: C_1  and  C_2
REMARK    2  A    between atoms: C_2  and  C_3
REMARK    3  A    between atoms: C_3  and  C_4
REMARK    4  A    between atoms: C_10  and  C_11
REMARK                            x       y       z     vdW  Elec       q    Type
REMARK                         _______ _______ _______ _____ _____    ______ ____
ROOT
ATOM      1  C   UNL     1       5.711   4.523  15.152  0.00  0.00    +0.000 A 
ATOM      2  C   UNL     1       5.600   5.921  15.223  0.00  0.00    +0.000 A 
ATOM      3  C   UNL     1       4.900   6.530  16.269  0.00  0.00    +0.000 A 
ATOM      4  C   UNL     1       4.306   5.748  17.255  0.00  0.00    +0.000 A 
ATOM      5  O   UNL     1       3.639   6.398  18.263  0.00  0.00    +0.000 OA
ATOM      6  C   UNL     1       3.088   5.630  19.263  0.00  0.00    +0.000 A 
ATOM      7  C   UNL     1       3.098   4.292  19.337  0.00  0.00    +0.000 A 
ATOM      8  C   UNL     1       3.767   3.551  18.239  0.00  0.00    +0.000 A 
ATOM      9  O   UNL     1       3.789   2.323  18.210  0.00  0.00    +0.000 OA
ATOM     10  C   UNL     1       4.408   4.361  17.191  0.00  0.00    +0.000 A 
ATOM     11  C   UNL     1       5.112   3.745  16.152  0.00  0.00    +0.000 A 
ENDROOT
BRANCH   7  12
ATOM     12  C   UNL     1       2.494   3.628  20.430  0.00  0.00    +0.000 A 
ATOM     13  N   UNL     1       1.291   3.709  20.968  0.00  0.00    +0.000 NA
ATOM     14  N   UNL     1       1.277   2.824  22.021  0.00  0.00    +0.000 NA
ATOM     15  N   UNL     1       2.443   2.206  22.140  0.00  0.00    +0.000 NA
ATOM     16  N   UNL     1       3.201   2.702  21.153  0.00  0.00    +0.000 N 
ATOM     17  H   UNL     1       4.158   2.386  21.022  0.00  0.00    +0.000 HD
ENDBRANCH   7  12
BRANCH   1  18
ATOM     18  C   UNL     1       6.473   3.868  14.024  0.00  0.00    +0.000 C 
BRANCH  18  20
ATOM     19  C   UNL     1       8.155   5.366  12.827  0.00  0.00    +0.000 C 
ATOM     20  C   UNL     1       6.747   4.788  12.829  0.00  0.00    +0.000 C 
ENDBRANCH  18  20
ENDBRANCH   1  18
TORSDOF 3
ENDMDL
MODEL 8
REMARK VINA RESULT:      -7.1      1.447      1.820
REMARK  Name = 
REMARK  4 active torsions:
REMARK  status: ('A' for Active; 'I' for Inactive)
REMARK    1  A    between atoms: C_1  and  C_2
REMARK    2  A    between atoms: C_2  and  C_3
REMARK    3  A    between atoms: C_3  and  C_4
REMARK    4  A    between atoms: C_10  and  C_11
REMARK                            x       y       z     vdW  Elec       q    Type
REMARK                         _______ _______ _______ _____ _____    ______ ____
ROOT
ATOM      1  C   UNL     1       5.834   4.080  14.684  0.00  0.00    +0.000 A 
ATOM      2  C   UNL     1       7.001   4.626  15.240  0.00  0.00    +0.000 A 
ATOM      3  C   UNL     1       7.120   4.799  16.623  0.00  0.00    +0.000 A 
ATOM      4  C   UNL     1       6.074   4.425  17.462  0.00  0.00    +0.000 A 
ATOM      5  O   UNL     1       6.249   4.608  18.811  0.00  0.00    +0.000 OA
ATOM      6  C   UNL     1       5.235   4.199  19.647  0.00  0.00    +0.000 A 
ATOM      7  C   UNL     1       4.061   3.671  19.276  0.00  0.00    +0.000 A 
ATOM      8  C   UNL     1       3.816   3.503  17.822  0.00  0.00    +0.000 A 
ATOM      9  O   UNL     1       2.751   3.061  17.395  0.00  0.00    +0.000 OA
ATOM     10  C   UNL     1       4.912   3.885  16.919  0.00  0.00    +0.000 A 
ATOM     11  C   UNL     1       4.789   3.703  15.538  0.00  0.00    +0.000 A 
ENDROOT
BRANCH   7  12
ATOM     12  C   UNL     1       3.107   3.288  20.247  0.00  0.00    +0.000 A 
ATOM     13  N   UNL     1       3.211   2.644  21.394  0.00  0.00    +0.000 NA
ATOM     14  N   UNL     1       1.937   2.554  21.906  0.00  0.00    +0.000 NA
ATOM     15  N   UNL     1       1.058   3.128  21.099  0.00  0.00    +0.000 NA
ATOM     16  N   UNL     1       1.780   3.585  20.067  0.00  0.00    +0.000 N 
ATOM     17  H   UNL     1       1.335   4.075  19.296  0.00  0.00    +0.000 HD
ENDBRANCH   7  12
BRANCH   1  18
ATOM     18  C   UNL     1       5.709   3.889  13.190  0.00  0.00    +0.000 C 
BRANCH  18  20
ATOM     19  C   UNL     1       7.578   5.149  11.996  0.00  0.00    +0.000 C 
ATOM     20  C   UNL     1       7.049   3.796  12.452  0.00  0.00    +0.000 C 
ENDBRANCH  18  20
ENDBRANCH   1  18
TORSDOF 3
ENDMDL
MODEL 9
REMARK VINA RESULT:      -7.1      4.194      6.420
REMARK  Name = 
REMARK  4 active torsions:
REMARK  status: ('A' for Active; 'I' for Inactive)
REMARK    1  A    between atoms: C_1  and  C_2
REMARK    2  A    between atoms: C_2  and  C_3
REMARK    3  A    between atoms: C_3  and  C_4
REMARK    4  A    between atoms: C_10  and  C_11
REMARK                            x       y       z     vdW  Elec       q    Type
REMARK                         _______ _______ _______ _____ _____    ______ ____
ROOT
ATOM      1  C   UNL     1       2.532   4.781  20.604  0.00  0.00    +0.000 A 
ATOM      2  C   UNL     1       2.034   6.091  20.518  0.00  0.00    +0.000 A 
ATOM      3  C   UNL     1       2.438   6.942  19.485  0.00  0.00    +0.000 A 
ATOM      4  C   UNL     1       3.342   6.491  18.527  0.00  0.00    +0.000 A 
ATOM      5  O   UNL     1       3.697   7.364  17.529  0.00  0.00    +0.000 OA
ATOM      6  C   UNL     1       4.556   6.908  16.556  0.00  0.00    +0.000 A 
ATOM      7  C   UNL     1       5.124   5.695  16.500  0.00  0.00    +0.000 A 
ATOM      8  C   UNL     1       4.802   4.738  17.589  0.00  0.00    +0.000 A 
ATOM      9  O   UNL     1       5.308   3.619  17.633  0.00  0.00    +0.000 OA
ATOM     10  C   UNL     1       3.842   5.194  18.606  0.00  0.00    +0.000 A 
ATOM     11  C   UNL     1       3.438   4.336  19.633  0.00  0.00    +0.000 A 
ENDROOT
BRANCH   7  12
ATOM     12  C   UNL     1       5.988   5.355  15.434  0.00  0.00    +0.000 A 
ATOM     13  N   UNL     1       5.800   4.683  14.314  0.00  0.00    +0.000 NA
ATOM     14  N   UNL     1       7.013   4.665  13.664  0.00  0.00    +0.000 NA
ATOM     15  N   UNL     1       7.936   5.311  14.361  0.00  0.00    +0.000 NA
ATOM     16  N   UNL     1       7.303   5.741  15.460  0.00  0.00    +0.000 N 
ATOM     17  H   UNL     1       7.797   6.274  16.171  0.00  0.00    +0.000 HD
ENDBRANCH   7  12
BRANCH   1  18
ATOM     18  C   UNL     1       2.089   3.861  21.719  0.00  0.00    +0.000 C 
BRANCH  18  20
ATOM     19  C   UNL     1       0.732   2.682  19.910  0.00  0.00    +0.000 C 
ATOM     20  C   UNL     1       1.459   2.549  21.240  0.00  0.00    +0.000 C 
ENDBRANCH  18  20
ENDBRANCH   1  18
TORSDOF 3
ENDMDL
