MODEL 1
REMARK VINA RESULT:      -8.1      0.000      0.000
REMARK  Name = 
REMARK  4 active torsions:
REMARK  status: ('A' for Active; 'I' for Inactive)
REMARK    1  A    between atoms: C_2  and  C_10
REMARK    2  A    between atoms: N_3  and  C_4
REMARK    3  A    between atoms: C_4  and  C_5
REMARK    4  A    between atoms: N_17  and  C_18
REMARK                            x       y       z     vdW  Elec       q    Type
REMARK                         _______ _______ _______ _____ _____    ______ ____
ROOT
ATOM      1  C   UNL     1       5.914   4.341  17.102  0.00  0.00    +0.000 C 
ATOM      2  C   UNL     1       7.175   5.192  16.903  0.00  0.00    +0.000 C 
ATOM      3  C   UNL     1       6.992   6.654  17.321  0.00  0.00    +0.000 C 
ATOM      4  C   UNL     1       5.719   7.277  16.749  0.00  0.00    +0.000 C 
ATOM      5  N   UNL     1       4.555   6.413  16.962  0.00  0.00    +0.000 N 
ATOM      6  C   UNL     1       3.369   6.716  17.619  0.00  0.00    +0.000 C 
ATOM      7  O   UNL     1       2.508   5.848  17.753  0.00  0.00    +0.000 OA
ATOM      8  N   UNL     1       3.220   8.010  18.062  0.00  0.00    +0.000 N 
ATOM      9  C   UNL     1       4.712   5.041  16.468  0.00  0.00    +0.000 C 
ATOM     10  H   UNL     1       3.813   8.707  17.648  0.00  0.00    +0.000 HD
ENDROOT
BRANCH   8  11
ATOM     11  C   UNL     1       2.109   8.500  18.792  0.00  0.00    +0.000 A 
ATOM     12  C   UNL     1       1.224   9.463  18.290  0.00  0.00    +0.000 A 
ATOM     13  C   UNL     1       0.204   9.986  19.085  0.00  0.00    +0.000 A 
ATOM     14  C   UNL     1       0.045   9.523  20.382  0.00  0.00    +0.000 A 
ATOM     15  F   UNL     1      -0.915  10.044  21.156  0.00  0.00    +0.000 F 
ATOM     16  C   UNL     1       0.872   8.526  20.886  0.00  0.00    +0.000 A 
ATOM     17  C   UNL     1       1.899   8.006  20.088  0.00  0.00    +0.000 A 
ENDBRANCH   8  11
BRANCH   1  19
ATOM     18  O   UNL     1       6.058   4.709  19.499  0.00  0.00    +0.000 OA
ATOM     19  C   UNL     1       5.660   4.005  18.574  0.00  0.00    +0.000 C 
ATOM     20  N   UNL     1       4.959   2.839  18.781  0.00  0.00    +0.000 N 
ATOM     21  H   UNL     1       4.679   2.263  18.001  0.00  0.00    +0.000 HD
BRANCH  20  22
ATOM     22  C   UNL     1       4.623   2.372  20.109  0.00  0.00    +0.000 C 
BRANCH  22  23
ATOM     23  C   UNL     1       3.159   2.585  20.346  0.00  0.00    +0.000 A 
ATOM     24  C   UNL     1       2.508   2.789  21.549  0.00  0.00    +0.000 A 
ATOM     25  C   UNL     1       1.109   3.004  21.384  0.00  0.00    +0.000 A 
ATOM     26  C   UNL     1       0.734   2.952  20.060  0.00  0.00    +0.000 A 
ATOM     27  S   UNL     1       2.062   2.639  19.028  0.00  0.00    +0.000 S 
ENDBRANCH  22  23
ENDBRANCH  20  22
ENDBRANCH   1  19
TORSDOF 4
ENDMDL
MODEL 2
REMARK VINA RESULT:      -7.7      3.429      6.951
REMARK  Name = 
REMARK  4 active torsions:
REMARK  status: ('A' for Active; 'I' for Inactive)
REMARK    1  A    between atoms: C_2  and  C_10
REMARK    2  A    between atoms: N_3  and  C_4
REMARK    3  A    between atoms: C_4  and  C_5
REMARK    4  A    between atoms: N_17  and  C_18
REMARK                            x       y       z     vdW  Elec       q    Type
REMARK                         _______ _______ _______ _____ _____    ______ ____
ROOT
ATOM      1  C   UNL     1       1.164   4.206  20.388  0.00  0.00    +0.000 C 
ATOM      2  C   UNL     1       1.624   3.168  21.420  0.00  0.00    +0.000 C 
ATOM      3  C   UNL     1       3.005   2.580  21.114  0.00  0.00    +0.000 C 
ATOM      4  C   UNL     1       3.144   2.124  19.662  0.00  0.00    +0.000 C 
ATOM      5  N   UNL     1       2.680   3.153  18.728  0.00  0.00    +0.000 N 
ATOM      6  C   UNL     1       3.385   3.757  17.695  0.00  0.00    +0.000 C 
ATOM      7  O   UNL     1       2.855   4.648  17.034  0.00  0.00    +0.000 OA
ATOM      8  N   UNL     1       4.655   3.285  17.454  0.00  0.00    +0.000 N 
ATOM      9  C   UNL     1       1.318   3.636  18.978  0.00  0.00    +0.000 C 
ATOM     10  H   UNL     1       4.884   2.377  17.819  0.00  0.00    +0.000 HD
ENDROOT
BRANCH   8  11
ATOM     11  C   UNL     1       5.547   3.800  16.481  0.00  0.00    +0.000 A 
ATOM     12  C   UNL     1       6.579   4.699  16.784  0.00  0.00    +0.000 A 
ATOM     13  C   UNL     1       7.367   5.253  15.775  0.00  0.00    +0.000 A 
ATOM     14  C   UNL     1       7.146   4.887  14.458  0.00  0.00    +0.000 A 
ATOM     15  F   UNL     1       7.882   5.440  13.485  0.00  0.00    +0.000 F 
ATOM     16  C   UNL     1       6.168   3.954  14.135  0.00  0.00    +0.000 A 
ATOM     17  C   UNL     1       5.374   3.401  15.148  0.00  0.00    +0.000 A 
ENDBRANCH   8  11
BRANCH   1  19
ATOM     18  O   UNL     1       3.083   5.691  20.278  0.00  0.00    +0.000 OA
ATOM     19  C   UNL     1       1.892   5.545  20.538  0.00  0.00    +0.000 C 
ATOM     20  N   UNL     1       1.105   6.574  21.001  0.00  0.00    +0.000 N 
ATOM     21  H   UNL     1       0.137   6.413  21.242  0.00  0.00    +0.000 HD
BRANCH  20  22
ATOM     22  C   UNL     1       1.625   7.910  21.196  0.00  0.00    +0.000 C 
BRANCH  22  23
ATOM     23  C   UNL     1       1.253   8.756  20.017  0.00  0.00    +0.000 A 
ATOM     24  C   UNL     1       1.780   8.721  18.739  0.00  0.00    +0.000 A 
ATOM     25  C   UNL     1       1.144   9.646  17.860  0.00  0.00    +0.000 A 
ATOM     26  C   UNL     1       0.155  10.361  18.496  0.00  0.00    +0.000 A 
ATOM     27  S   UNL     1       0.003   9.924  20.142  0.00  0.00    +0.000 S 
ENDBRANCH  22  23
ENDBRANCH  20  22
ENDBRANCH   1  19
TORSDOF 4
ENDMDL
MODEL 3
REMARK VINA RESULT:      -7.7      3.125      6.049
REMARK  Name = 
REMARK  4 active torsions:
REMARK  status: ('A' for Active; 'I' for Inactive)
REMARK    1  A    between atoms: C_2  and  C_10
REMARK    2  A    between atoms: N_3  and  C_4
REMARK    3  A    between atoms: C_4  and  C_5
REMARK    4  A    between atoms: N_17  and  C_18
REMARK                            x       y       z     vdW  Elec       q    Type
REMARK                         _______ _______ _______ _____ _____    ______ ____
ROOT
ATOM      1  C   UNL     1       1.101   3.412  18.806  0.00  0.00    +0.000 C 
ATOM      2  C   UNL     1       1.492   1.935  18.942  0.00  0.00    +0.000 C 
ATOM      3  C   UNL     1       3.006   1.706  18.932  0.00  0.00    +0.000 C 
ATOM      4  C   UNL     1       3.707   2.437  17.787  0.00  0.00    +0.000 C 
ATOM      5  N   UNL     1       3.284   3.837  17.705  0.00  0.00    +0.000 N 
ATOM      6  C   UNL     1       4.075   4.978  17.761  0.00  0.00    +0.000 C 
ATOM      7  O   UNL     1       3.546   6.088  17.728  0.00  0.00    +0.000 OA
ATOM      8  N   UNL     1       5.436   4.785  17.823  0.00  0.00    +0.000 N 
ATOM      9  C   UNL     1       1.833   4.034  17.618  0.00  0.00    +0.000 C 
ATOM     10  H   UNL     1       5.785   3.888  17.537  0.00  0.00    +0.000 HD
ENDROOT
BRANCH   8  11
ATOM     11  C   UNL     1       6.402   5.816  17.935  0.00  0.00    +0.000 A 
ATOM     12  C   UNL     1       7.437   5.799  18.880  0.00  0.00    +0.000 A 
ATOM     13  C   UNL     1       8.303   6.884  19.015  0.00  0.00    +0.000 A 
ATOM     14  C   UNL     1       8.157   7.982  18.182  0.00  0.00    +0.000 A 
ATOM     15  F   UNL     1       8.969   9.036  18.330  0.00  0.00    +0.000 F 
ATOM     16  C   UNL     1       7.176   8.000  17.198  0.00  0.00    +0.000 A 
ATOM     17  C   UNL     1       6.304   6.912  17.066  0.00  0.00    +0.000 A 
ENDBRANCH   8  11
BRANCH   1  19
ATOM     18  O   UNL     1       1.349   3.684  21.207  0.00  0.00    +0.000 OA
ATOM     19  C   UNL     1       1.342   4.204  20.095  0.00  0.00    +0.000 C 
ATOM     20  N   UNL     1       1.538   5.553  19.908  0.00  0.00    +0.000 N 
ATOM     21  H   UNL     1       1.489   5.957  18.984  0.00  0.00    +0.000 HD
BRANCH  20  22
ATOM     22  C   UNL     1       1.787   6.453  21.015  0.00  0.00    +0.000 C 
BRANCH  22  23
ATOM     23  C   UNL     1       1.468   7.853  20.587  0.00  0.00    +0.000 A 
ATOM     24  C   UNL     1       1.624   8.422  19.337  0.00  0.00    +0.000 A 
ATOM     25  C   UNL     1       1.167   9.771  19.290  0.00  0.00    +0.000 A 
ATOM     26  C   UNL     1       0.682  10.192  20.508  0.00  0.00    +0.000 A 
ATOM     27  S   UNL     1       0.785   8.968  21.698  0.00  0.00    +0.000 S 
ENDBRANCH  22  23
ENDBRANCH  20  22
ENDBRANCH   1  19
TORSDOF 4
ENDMDL
MODEL 4
REMARK VINA RESULT:      -7.5      3.417      6.795
REMARK  Name = 
REMARK  4 active torsions:
REMARK  status: ('A' for Active; 'I' for Inactive)
REMARK    1  A    between atoms: C_2  and  C_10
REMARK    2  A    between atoms: N_3  and  C_4
REMARK    3  A    between atoms: C_4  and  C_5
REMARK    4  A    between atoms: N_17  and  C_18
REMARK                            x       y       z     vdW  Elec       q    Type
REMARK                         _______ _______ _______ _____ _____    ______ ____
ROOT
ATOM      1  C   UNL     1       1.115   3.843  20.380  0.00  0.00    +0.000 C 
ATOM      2  C   UNL     1       1.614   2.716  21.293  0.00  0.00    +0.000 C 
ATOM      3  C   UNL     1       2.984   2.166  20.883  0.00  0.00    +0.000 C 
ATOM      4  C   UNL     1       3.069   1.847  19.391  0.00  0.00    +0.000 C 
ATOM      5  N   UNL     1       2.569   2.956  18.574  0.00  0.00    +0.000 N 
ATOM      6  C   UNL     1       3.235   3.657  17.576  0.00  0.00    +0.000 C 
ATOM      7  O   UNL     1       2.679   4.603  17.022  0.00  0.00    +0.000 OA
ATOM      8  N   UNL     1       4.495   3.216  17.246  0.00  0.00    +0.000 N 
ATOM      9  C   UNL     1       1.217   3.408  18.918  0.00  0.00    +0.000 C 
ATOM     10  H   UNL     1       4.739   2.279  17.516  0.00  0.00    +0.000 HD
ENDROOT
BRANCH   8  11
ATOM     11  C   UNL     1       5.350   3.824  16.293  0.00  0.00    +0.000 A 
ATOM     12  C   UNL     1       5.219   3.631  14.911  0.00  0.00    +0.000 A 
ATOM     13  C   UNL     1       6.146   4.173  14.020  0.00  0.00    +0.000 A 
ATOM     14  C   UNL     1       7.194   4.938  14.507  0.00  0.00    +0.000 A 
ATOM     15  F   UNL     1       8.101   5.434  13.656  0.00  0.00    +0.000 F 
ATOM     16  C   UNL     1       7.314   5.193  15.868  0.00  0.00    +0.000 A 
ATOM     17  C   UNL     1       6.386   4.644  16.762  0.00  0.00    +0.000 A 
ENDBRANCH   8  11
BRANCH   1  19
ATOM     18  O   UNL     1       2.480   5.398  21.653  0.00  0.00    +0.000 OA
ATOM     19  C   UNL     1       1.846   5.166  20.627  0.00  0.00    +0.000 C 
ATOM     20  N   UNL     1       1.724   6.084  19.610  0.00  0.00    +0.000 N 
ATOM     21  H   UNL     1       1.164   5.878  18.795  0.00  0.00    +0.000 HD
BRANCH  20  22
ATOM     22  C   UNL     1       2.356   7.385  19.671  0.00  0.00    +0.000 C 
BRANCH  22  23
ATOM     23  C   UNL     1       1.349   8.396  20.128  0.00  0.00    +0.000 A 
ATOM     24  C   UNL     1       0.687   8.457  21.340  0.00  0.00    +0.000 A 
ATOM     25  C   UNL     1      -0.169   9.593  21.439  0.00  0.00    +0.000 A 
ATOM     26  C   UNL     1      -0.136  10.361  20.298  0.00  0.00    +0.000 A 
ATOM     27  S   UNL     1       0.912   9.710  19.114  0.00  0.00    +0.000 S 
ENDBRANCH  22  23
ENDBRANCH  20  22
ENDBRANCH   1  19
TORSDOF 4
ENDMDL
MODEL 5
REMARK VINA RESULT:      -7.4      3.642      7.050
REMARK  Name = 
REMARK  4 active torsions:
REMARK  status: ('A' for Active; 'I' for Inactive)
REMARK    1  A    between atoms: C_2  and  C_10
REMARK    2  A    between atoms: N_3  and  C_4
REMARK    3  A    between atoms: C_4  and  C_5
REMARK    4  A    between atoms: N_17  and  C_18
REMARK                            x       y       z     vdW  Elec       q    Type
REMARK                         _______ _______ _______ _____ _____    ______ ____
ROOT
ATOM      1  C   UNL     1       1.239   4.488  20.400  0.00  0.00    +0.000 C 
ATOM      2  C   UNL     1       1.680   3.454  21.443  0.00  0.00    +0.000 C 
ATOM      3  C   UNL     1       3.028   2.804  21.118  0.00  0.00    +0.000 C 
ATOM      4  C   UNL     1       3.115   2.313  19.674  0.00  0.00    +0.000 C 
ATOM      5  N   UNL     1       2.672   3.342  18.729  0.00  0.00    +0.000 N 
ATOM      6  C   UNL     1       3.377   3.896  17.668  0.00  0.00    +0.000 C 
ATOM      7  O   UNL     1       2.868   4.795  17.001  0.00  0.00    +0.000 OA
ATOM      8  N   UNL     1       4.621   3.367  17.409  0.00  0.00    +0.000 N 
ATOM      9  C   UNL     1       1.336   3.885  18.999  0.00  0.00    +0.000 C 
ATOM     10  H   UNL     1       4.821   2.459  17.788  0.00  0.00    +0.000 HD
ENDROOT
BRANCH   8  11
ATOM     11  C   UNL     1       5.511   3.827  16.406  0.00  0.00    +0.000 A 
ATOM     12  C   UNL     1       6.665   4.570  16.685  0.00  0.00    +0.000 A 
ATOM     13  C   UNL     1       7.455   5.083  15.655  0.00  0.00    +0.000 A 
ATOM     14  C   UNL     1       7.109   4.828  14.338  0.00  0.00    +0.000 A 
ATOM     15  F   UNL     1       7.849   5.343  13.349  0.00  0.00    +0.000 F 
ATOM     16  C   UNL     1       6.002   4.044  14.034  0.00  0.00    +0.000 A 
ATOM     17  C   UNL     1       5.207   3.534  15.068  0.00  0.00    +0.000 A 
ENDBRANCH   8  11
BRANCH   1  19
ATOM     18  O   UNL     1       3.217   5.888  20.230  0.00  0.00    +0.000 OA
ATOM     19  C   UNL     1       2.023   5.799  20.506  0.00  0.00    +0.000 C 
ATOM     20  N   UNL     1       1.285   6.873  20.949  0.00  0.00    +0.000 N 
ATOM     21  H   UNL     1       0.314   6.759  21.204  0.00  0.00    +0.000 HD
BRANCH  20  22
ATOM     22  C   UNL     1       1.863   8.191  21.102  0.00  0.00    +0.000 C 
BRANCH  22  23
ATOM     23  C   UNL     1       0.831   9.113  21.677  0.00  0.00    +0.000 A 
ATOM     24  C   UNL     1      -0.043   8.874  22.721  0.00  0.00    +0.000 A 
ATOM     25  C   UNL     1      -0.853  10.006  23.025  0.00  0.00    +0.000 A 
ATOM     26  C   UNL     1      -0.576  11.073  22.200  0.00  0.00    +0.000 A 
ATOM     27  S   UNL     1       0.647  10.704  21.063  0.00  0.00    +0.000 S 
ENDBRANCH  22  23
ENDBRANCH  20  22
ENDBRANCH   1  19
TORSDOF 4
ENDMDL
MODEL 6
REMARK VINA RESULT:      -7.4      3.603      6.989
REMARK  Name = 
REMARK  4 active torsions:
REMARK  status: ('A' for Active; 'I' for Inactive)
REMARK    1  A    between atoms: C_2  and  C_10
REMARK    2  A    between atoms: N_3  and  C_4
REMARK    3  A    between atoms: C_4  and  C_5
REMARK    4  A    between atoms: N_17  and  C_18
REMARK                            x       y       z     vdW  Elec       q    Type
REMARK                         _______ _______ _______ _____ _____    ______ ____
ROOT
ATOM      1  C   UNL     1       1.205   4.393  20.492  0.00  0.00    +0.000 C 
ATOM      2  C   UNL     1       1.693   3.324  21.478  0.00  0.00    +0.000 C 
ATOM      3  C   UNL     1       3.035   2.702  21.081  0.00  0.00    +0.000 C 
ATOM      4  C   UNL     1       3.075   2.268  19.617  0.00  0.00    +0.000 C 
ATOM      5  N   UNL     1       2.588   3.327  18.729  0.00  0.00    +0.000 N 
ATOM      6  C   UNL     1       3.250   3.928  17.665  0.00  0.00    +0.000 C 
ATOM      7  O   UNL     1       2.709   4.846  17.052  0.00  0.00    +0.000 OA
ATOM      8  N   UNL     1       4.488   3.424  17.343  0.00  0.00    +0.000 N 
ATOM      9  C   UNL     1       1.258   3.845  19.066  0.00  0.00    +0.000 C 
ATOM     10  H   UNL     1       4.711   2.503  17.679  0.00  0.00    +0.000 HD
ENDROOT
BRANCH   8  11
ATOM     11  C   UNL     1       5.337   3.930  16.327  0.00  0.00    +0.000 A 
ATOM     12  C   UNL     1       5.182   3.617  14.970  0.00  0.00    +0.000 A 
ATOM     13  C   UNL     1       6.104   4.062  14.021  0.00  0.00    +0.000 A 
ATOM     14  C   UNL     1       7.170   4.850  14.423  0.00  0.00    +0.000 A 
ATOM     15  F   UNL     1       8.071   5.254  13.518  0.00  0.00    +0.000 F 
ATOM     16  C   UNL     1       7.314   5.224  15.753  0.00  0.00    +0.000 A 
ATOM     17  C   UNL     1       6.392   4.773  16.706  0.00  0.00    +0.000 A 
ENDBRANCH   8  11
BRANCH   1  19
ATOM     18  O   UNL     1       3.175   5.808  20.355  0.00  0.00    +0.000 OA
ATOM     19  C   UNL     1       1.980   5.708  20.620  0.00  0.00    +0.000 C 
ATOM     20  N   UNL     1       1.232   6.771  21.072  0.00  0.00    +0.000 N 
ATOM     21  H   UNL     1       0.260   6.648  21.317  0.00  0.00    +0.000 HD
BRANCH  20  22
ATOM     22  C   UNL     1       1.800   8.090  21.245  0.00  0.00    +0.000 C 
BRANCH  22  23
ATOM     23  C   UNL     1       0.723   9.031  21.693  0.00  0.00    +0.000 A 
ATOM     24  C   UNL     1       0.243   9.235  22.974  0.00  0.00    +0.000 A 
ATOM     25  C   UNL     1      -0.757  10.249  23.027  0.00  0.00    +0.000 A 
ATOM     26  C   UNL     1      -1.013  10.784  21.785  0.00  0.00    +0.000 A 
ATOM     27  S   UNL     1      -0.058  10.060  20.564  0.00  0.00    +0.000 S 
ENDBRANCH  22  23
ENDBRANCH  20  22
ENDBRANCH   1  19
TORSDOF 4
ENDMDL
MODEL 7
REMARK VINA RESULT:      -7.3      0.788      1.333
REMARK  Name = 
REMARK  4 active torsions:
REMARK  status: ('A' for Active; 'I' for Inactive)
REMARK    1  A    between atoms: C_2  and  C_10
REMARK    2  A    between atoms: N_3  and  C_4
REMARK    3  A    between atoms: C_4  and  C_5
REMARK    4  A    between atoms: N_17  and  C_18
REMARK                            x       y       z     vdW  Elec       q    Type
REMARK                         _______ _______ _______ _____ _____    ______ ____
ROOT
ATOM      1  C   UNL     1       6.142   4.404  17.306  0.00  0.00    +0.000 C 
ATOM      2  C   UNL     1       7.455   5.198  17.316  0.00  0.00    +0.000 C 
ATOM      3  C   UNL     1       7.278   6.656  17.750  0.00  0.00    +0.000 C 
ATOM      4  C   UNL     1       6.129   7.354  17.023  0.00  0.00    +0.000 C 
ATOM      5  N   UNL     1       4.909   6.542  17.041  0.00  0.00    +0.000 N 
ATOM      6  C   UNL     1       3.656   6.885  17.532  0.00  0.00    +0.000 C 
ATOM      7  O   UNL     1       2.747   6.056  17.515  0.00  0.00    +0.000 OA
ATOM      8  N   UNL     1       3.502   8.173  17.991  0.00  0.00    +0.000 N 
ATOM      9  C   UNL     1       5.076   5.177  16.531  0.00  0.00    +0.000 C 
ATOM     10  H   UNL     1       4.179   8.851  17.688  0.00  0.00    +0.000 HD
ENDROOT
BRANCH   8  11
ATOM     11  C   UNL     1       2.320   8.697  18.572  0.00  0.00    +0.000 A 
ATOM     12  C   UNL     1       1.890   8.370  19.864  0.00  0.00    +0.000 A 
ATOM     13  C   UNL     1       0.668   8.836  20.353  0.00  0.00    +0.000 A 
ATOM     14  C   UNL     1      -0.115   9.658  19.559  0.00  0.00    +0.000 A 
ATOM     15  F   UNL     1      -1.301  10.082  20.015  0.00  0.00    +0.000 F 
ATOM     16  C   UNL     1       0.316  10.045  18.296  0.00  0.00    +0.000 A 
ATOM     17  C   UNL     1       1.539   9.573  17.804  0.00  0.00    +0.000 A 
ENDBRANCH   8  11
BRANCH   1  19
ATOM     18  O   UNL     1       5.901   4.739  19.700  0.00  0.00    +0.000 OA
ATOM     19  C   UNL     1       5.665   4.043  18.716  0.00  0.00    +0.000 C 
ATOM     20  N   UNL     1       4.958   2.865  18.795  0.00  0.00    +0.000 N 
ATOM     21  H   UNL     1       4.812   2.297  17.974  0.00  0.00    +0.000 HD
BRANCH  20  22
ATOM     22  C   UNL     1       4.424   2.374  20.048  0.00  0.00    +0.000 C 
BRANCH  22  23
ATOM     23  C   UNL     1       2.968   2.717  20.127  0.00  0.00    +0.000 A 
ATOM     24  C   UNL     1       1.926   2.198  19.379  0.00  0.00    +0.000 A 
ATOM     25  C   UNL     1       0.660   2.730  19.765  0.00  0.00    +0.000 A 
ATOM     26  C   UNL     1       0.777   3.640  20.791  0.00  0.00    +0.000 A 
ATOM     27  S   UNL     1       2.402   3.856  21.277  0.00  0.00    +0.000 S 
ENDBRANCH  22  23
ENDBRANCH  20  22
ENDBRANCH   1  19
TORSDOF 4
ENDMDL
MODEL 8
REMARK VINA RESULT:      -7.1      2.215      4.816
REMARK  Name = 
REMARK  4 active torsions:
REMARK  status: ('A' for Active; 'I' for Inactive)
REMARK    1  A    between atoms: C_2  and  C_10
REMARK    2  A    between atoms: N_3  and  C_4
REMARK    3  A    between atoms: C_4  and  C_5
REMARK    4  A    between atoms: N_17  and  C_18
REMARK                            x       y       z     vdW  Elec       q    Type
REMARK                         _______ _______ _______ _____ _____    ______ ____
ROOT
ATOM      1  C   UNL     1       3.177   2.261  19.284  0.00  0.00    +0.000 C 
ATOM      2  C   UNL     1       1.804   1.581  19.359  0.00  0.00    +0.000 C 
ATOM      3  C   UNL     1       0.636   2.572  19.336  0.00  0.00    +0.000 C 
ATOM      4  C   UNL     1       0.819   3.724  20.322  0.00  0.00    +0.000 C 
ATOM      5  N   UNL     1       2.151   4.324  20.208  0.00  0.00    +0.000 N 
ATOM      6  C   UNL     1       2.477   5.647  19.941  0.00  0.00    +0.000 C 
ATOM      7  O   UNL     1       3.658   5.973  19.827  0.00  0.00    +0.000 OA
ATOM      8  N   UNL     1       1.431   6.536  19.848  0.00  0.00    +0.000 N 
ATOM      9  C   UNL     1       3.262   3.373  20.329  0.00  0.00    +0.000 C 
ATOM     10  H   UNL     1       0.555   6.256  20.252  0.00  0.00    +0.000 HD
ENDROOT
BRANCH   8  11
ATOM     11  C   UNL     1       1.555   7.913  19.536  0.00  0.00    +0.000 A 
ATOM     12  C   UNL     1       1.177   8.937  20.415  0.00  0.00    +0.000 A 
ATOM     13  C   UNL     1       1.226  10.275  20.022  0.00  0.00    +0.000 A 
ATOM     14  C   UNL     1       1.683  10.597  18.755  0.00  0.00    +0.000 A 
ATOM     15  F   UNL     1       1.704  11.878  18.365  0.00  0.00    +0.000 F 
ATOM     16  C   UNL     1       2.119   9.605  17.883  0.00  0.00    +0.000 A 
ATOM     17  C   UNL     1       2.064   8.262  18.277  0.00  0.00    +0.000 A 
ENDBRANCH   8  11
BRANCH   1  19
ATOM     18  O   UNL     1       2.738   2.641  16.925  0.00  0.00    +0.000 OA
ATOM     19  C   UNL     1       3.499   2.781  17.880  0.00  0.00    +0.000 C 
ATOM     20  N   UNL     1       4.719   3.407  17.767  0.00  0.00    +0.000 N 
ATOM     21  H   UNL     1       5.338   3.472  18.562  0.00  0.00    +0.000 HD
BRANCH  20  22
ATOM     22  C   UNL     1       5.183   3.965  16.515  0.00  0.00    +0.000 C 
BRANCH  22  23
ATOM     23  C   UNL     1       5.896   5.254  16.789  0.00  0.00    +0.000 A 
ATOM     24  C   UNL     1       5.482   6.540  16.495  0.00  0.00    +0.000 A 
ATOM     25  C   UNL     1       6.405   7.527  16.948  0.00  0.00    +0.000 A 
ATOM     26  C   UNL     1       7.496   6.964  17.571  0.00  0.00    +0.000 A 
ATOM     27  S   UNL     1       7.409   5.256  17.598  0.00  0.00    +0.000 S 
ENDBRANCH  22  23
ENDBRANCH  20  22
ENDBRANCH   1  19
TORSDOF 4
ENDMDL
MODEL 9
REMARK VINA RESULT:      -6.8      3.729      6.646
REMARK  Name = 
REMARK  4 active torsions:
REMARK  status: ('A' for Active; 'I' for Inactive)
REMARK    1  A    between atoms: C_2  and  C_10
REMARK    2  A    between atoms: N_3  and  C_4
REMARK    3  A    between atoms: C_4  and  C_5
REMARK    4  A    between atoms: N_17  and  C_18
REMARK                            x       y       z     vdW  Elec       q    Type
REMARK                         _______ _______ _______ _____ _____    ______ ____
ROOT
ATOM      1  C   UNL     1       1.238   9.333  22.113  0.00  0.00    +0.000 C 
ATOM      2  C   UNL     1       0.410   9.690  23.353  0.00  0.00    +0.000 C 
ATOM      3  C   UNL     1      -1.016  10.140  23.020  0.00  0.00    +0.000 C 
ATOM      4  C   UNL     1      -1.059  11.193  21.914  0.00  0.00    +0.000 C 
ATOM      5  N   UNL     1      -0.242  10.799  20.764  0.00  0.00    +0.000 N 
ATOM      6  C   UNL     1      -0.636  10.648  19.440  0.00  0.00    +0.000 C 
ATOM      7  O   UNL     1       0.175  10.256  18.603  0.00  0.00    +0.000 OA
ATOM      8  N   UNL     1      -1.936  10.983  19.140  0.00  0.00    +0.000 N 
ATOM      9  C   UNL     1       1.149  10.463  21.088  0.00  0.00    +0.000 C 
ATOM     10  H   UNL     1      -2.421  11.571  19.795  0.00  0.00    +0.000 HD
ENDROOT
BRANCH   8  11
ATOM     11  C   UNL     1      -2.540  10.854  17.864  0.00  0.00    +0.000 A 
ATOM     12  C   UNL     1      -3.705  11.537  17.493  0.00  0.00    +0.000 A 
ATOM     13  C   UNL     1      -4.314  11.300  16.260  0.00  0.00    +0.000 A 
ATOM     14  C   UNL     1      -3.742  10.398  15.379  0.00  0.00    +0.000 A 
ATOM     15  F   UNL     1      -4.340  10.147  14.208  0.00  0.00    +0.000 F 
ATOM     16  C   UNL     1      -2.554   9.749  15.698  0.00  0.00    +0.000 A 
ATOM     17  C   UNL     1      -1.946   9.984  16.937  0.00  0.00    +0.000 A 
ENDBRANCH   8  11
BRANCH   1  19
ATOM     18  O   UNL     1      -0.332   7.609  21.431  0.00  0.00    +0.000 OA
ATOM     19  C   UNL     1       0.835   7.986  21.505  0.00  0.00    +0.000 C 
ATOM     20  N   UNL     1       1.888   7.222  21.058  0.00  0.00    +0.000 N 
ATOM     21  H   UNL     1       2.839   7.544  21.167  0.00  0.00    +0.000 HD
BRANCH  20  22
ATOM     22  C   UNL     1       1.691   5.924  20.448  0.00  0.00    +0.000 C 
BRANCH  22  23
ATOM     23  C   UNL     1       2.565   5.816  19.236  0.00  0.00    +0.000 A 
ATOM     24  C   UNL     1       3.101   6.838  18.475  0.00  0.00    +0.000 A 
ATOM     25  C   UNL     1       3.928   6.355  17.418  0.00  0.00    +0.000 A 
ATOM     26  C   UNL     1       3.992   4.980  17.404  0.00  0.00    +0.000 A 
ATOM     27  S   UNL     1       3.055   4.280  18.651  0.00  0.00    +0.000 S 
ENDBRANCH  22  23
ENDBRANCH  20  22
ENDBRANCH   1  19
TORSDOF 4
ENDMDL
