MODEL 1
REMARK VINA RESULT:      -7.5      0.000      0.000
REMARK  Name = 
REMARK  11 active torsions:
REMARK  status: ('A' for Active; 'I' for Inactive)
REMARK    1  A    between atoms: C_1  and  C_2
REMARK    2  A    between atoms: C_2  and  O_3
REMARK    3  A    between atoms: O_3  and  C_4
REMARK    4  A    between atoms: C_4  and  C_6
REMARK    5  A    between atoms: C_8  and  N_9
REMARK    6  A    between atoms: C_11  and  C_12
REMARK    7  A    between atoms: C_16  and  C_18
REMARK    8  A    between atoms: C_27  and  C_28
REMARK    9  A    between atoms: C_28  and  O_30
REMARK   10  A    between atoms: O_30  and  C_31
REMARK   11  A    between atoms: C_31  and  C_32
REMARK                            x       y       z     vdW  Elec       q    Type
REMARK                         _______ _______ _______ _____ _____    ______ ____
ROOT
ATOM      1  N   UNL     1       2.082   8.064  18.763  0.00  0.00    +0.000 N 
ATOM      2  C   UNL     1       1.690   7.696  20.030  0.00  0.00    +0.000 A 
ATOM      3  C   UNL     1       1.247   8.581  20.921  0.00  0.00    +0.000 A 
ATOM      4  C   UNL     1       0.822   8.234  22.315  0.00  0.00    +0.000 C 
ATOM      5  C   UNL     1       1.208  10.010  20.537  0.00  0.00    +0.000 A 
ATOM      6  O   UNL     1       0.968  10.833  21.425  0.00  0.00    +0.000 OA
ATOM      7  N   UNL     1       1.461  10.314  19.212  0.00  0.00    +0.000 N 
ATOM      8  C   UNL     1       1.375  11.635  18.767  0.00  0.00    +0.000 C 
ATOM      9  O   UNL     1       2.266  12.211  18.141  0.00  0.00    +0.000 OA
ATOM     10  C   UNL     1       1.963   9.389  18.311  0.00  0.00    +0.000 A 
ATOM     11  O   UNL     1       2.240   9.670  17.147  0.00  0.00    +0.000 OA
ENDROOT
BRANCH   8  12
ATOM     12  C   UNL     1       0.229  12.470  19.242  0.00  0.00    +0.000 A 
ATOM     13  C   UNL     1       0.507  13.679  19.897  0.00  0.00    +0.000 A 
ATOM     14  C   UNL     1      -0.526  14.404  20.490  0.00  0.00    +0.000 A 
ATOM     15  C   UNL     1      -1.836  13.937  20.423  0.00  0.00    +0.000 A 
ATOM     16  C   UNL     1      -2.126  12.771  19.714  0.00  0.00    +0.000 A 
ATOM     17  C   UNL     1      -1.100  12.052  19.098  0.00  0.00    +0.000 A 
ENDBRANCH   8  12
BRANCH   1  20
ATOM     18  C   UNL     1       2.688   4.687  18.654  0.00  0.00    +0.000 C 
ATOM     19  C   UNL     1       1.805   5.698  17.912  0.00  0.00    +0.000 C 
ATOM     20  C   UNL     1       2.607   7.006  17.866  0.00  0.00    +0.000 C 
ATOM     21  C   UNL     1       4.065   6.617  18.146  0.00  0.00    +0.000 C 
ATOM     22  C   UNL     1       4.097   5.083  18.232  0.00  0.00    +0.000 C 
BRANCH  18  23
ATOM     23  C   UNL     1       2.335   3.275  18.250  0.00  0.00    +0.000 C 
ATOM     24  O   UNL     1       2.172   2.897  17.098  0.00  0.00    +0.000 OA
BRANCH  23  25
ATOM     25  O   UNL     1       2.155   2.514  19.362  0.00  0.00    +0.000 OA
BRANCH  25  27
ATOM     26  C   UNL     1       1.708   2.777  21.688  0.00  0.00    +0.000 C 
ATOM     27  C   UNL     1       1.160   2.970  20.285  0.00  0.00    +0.000 C 
ENDBRANCH  25  27
ENDBRANCH  23  25
ENDBRANCH  18  23
BRANCH  22  28
ATOM     28  C   UNL     1       5.241   4.668  19.124  0.00  0.00    +0.000 C 
ATOM     29  O   UNL     1       5.276   3.559  19.661  0.00  0.00    +0.000 OA
BRANCH  28  30
ATOM     30  O   UNL     1       6.133   5.658  19.352  0.00  0.00    +0.000 OA
BRANCH  30  31
ATOM     31  C   UNL     1       7.393   5.508  18.685  0.00  0.00    +0.000 C 
ATOM     32  C   UNL     1       7.844   6.895  18.261  0.00  0.00    +0.000 C 
ENDBRANCH  30  31
ENDBRANCH  28  30
ENDBRANCH  22  28
ENDBRANCH   1  20
TORSDOF 8
ENDMDL
MODEL 2
REMARK VINA RESULT:      -7.4      1.123      1.543
REMARK  Name = 
REMARK  11 active torsions:
REMARK  status: ('A' for Active; 'I' for Inactive)
REMARK    1  A    between atoms: C_1  and  C_2
REMARK    2  A    between atoms: C_2  and  O_3
REMARK    3  A    between atoms: O_3  and  C_4
REMARK    4  A    between atoms: C_4  and  C_6
REMARK    5  A    between atoms: C_8  and  N_9
REMARK    6  A    between atoms: C_11  and  C_12
REMARK    7  A    between atoms: C_16  and  C_18
REMARK    8  A    between atoms: C_27  and  C_28
REMARK    9  A    between atoms: C_28  and  O_30
REMARK   10  A    between atoms: O_30  and  C_31
REMARK   11  A    between atoms: C_31  and  C_32
REMARK                            x       y       z     vdW  Elec       q    Type
REMARK                         _______ _______ _______ _____ _____    ______ ____
ROOT
ATOM      1  N   UNL     1       1.925   8.062  19.225  0.00  0.00    +0.000 N 
ATOM      2  C   UNL     1       1.553   7.930  20.543  0.00  0.00    +0.000 A 
ATOM      3  C   UNL     1       1.208   8.977  21.291  0.00  0.00    +0.000 A 
ATOM      4  C   UNL     1       0.810   8.889  22.732  0.00  0.00    +0.000 C 
ATOM      5  C   UNL     1       1.259  10.326  20.683  0.00  0.00    +0.000 A 
ATOM      6  O   UNL     1       1.111  11.295  21.434  0.00  0.00    +0.000 OA
ATOM      7  N   UNL     1       1.485  10.396  19.321  0.00  0.00    +0.000 N 
ATOM      8  C   UNL     1       1.479  11.632  18.672  0.00  0.00    +0.000 C 
ATOM      9  O   UNL     1       2.387  12.031  17.940  0.00  0.00    +0.000 OA
ATOM     10  C   UNL     1       1.886   9.304  18.569  0.00  0.00    +0.000 A 
ATOM     11  O   UNL     1       2.140   9.375  17.368  0.00  0.00    +0.000 OA
ENDROOT
BRANCH   8  12
ATOM     12  C   UNL     1       0.414  12.617  19.034  0.00  0.00    +0.000 A 
ATOM     13  C   UNL     1       0.799  13.920  19.386  0.00  0.00    +0.000 A 
ATOM     14  C   UNL     1      -0.148  14.818  19.879  0.00  0.00    +0.000 A 
ATOM     15  C   UNL     1      -1.478  14.427  20.011  0.00  0.00    +0.000 A 
ATOM     16  C   UNL     1      -1.878  13.156  19.599  0.00  0.00    +0.000 A 
ATOM     17  C   UNL     1      -0.939  12.260  19.082  0.00  0.00    +0.000 A 
ENDBRANCH   8  12
BRANCH   1  20
ATOM     18  C   UNL     1       3.520   5.060  19.700  0.00  0.00    +0.000 C 
ATOM     19  C   UNL     1       2.123   5.541  19.288  0.00  0.00    +0.000 C 
ATOM     20  C   UNL     1       2.340   6.838  18.496  0.00  0.00    +0.000 C 
ATOM     21  C   UNL     1       3.815   6.833  18.073  0.00  0.00    +0.000 C 
ATOM     22  C   UNL     1       4.393   5.483  18.525  0.00  0.00    +0.000 C 
BRANCH  18  23
ATOM     23  C   UNL     1       3.525   3.566  19.920  0.00  0.00    +0.000 C 
ATOM     24  O   UNL     1       3.120   3.006  20.930  0.00  0.00    +0.000 OA
BRANCH  23  25
ATOM     25  O   UNL     1       4.113   2.949  18.860  0.00  0.00    +0.000 OA
BRANCH  25  27
ATOM     26  C   UNL     1       2.385   2.316  17.346  0.00  0.00    +0.000 C 
ATOM     27  C   UNL     1       3.425   1.811  18.331  0.00  0.00    +0.000 C 
ENDBRANCH  25  27
ENDBRANCH  23  25
ENDBRANCH  18  23
BRANCH  22  28
ATOM     28  C   UNL     1       5.873   5.643  18.771  0.00  0.00    +0.000 C 
ATOM     29  O   UNL     1       6.399   5.278  19.824  0.00  0.00    +0.000 OA
BRANCH  28  30
ATOM     30  O   UNL     1       6.513   6.313  17.786  0.00  0.00    +0.000 OA
BRANCH  30  31
ATOM     31  C   UNL     1       7.813   6.809  18.133  0.00  0.00    +0.000 C 
ATOM     32  C   UNL     1       7.886   8.248  17.649  0.00  0.00    +0.000 C 
ENDBRANCH  30  31
ENDBRANCH  28  30
ENDBRANCH  22  28
ENDBRANCH   1  20
TORSDOF 8
ENDMDL
MODEL 3
REMARK VINA RESULT:      -7.1      0.696      1.139
REMARK  Name = 
REMARK  11 active torsions:
REMARK  status: ('A' for Active; 'I' for Inactive)
REMARK    1  A    between atoms: C_1  and  C_2
REMARK    2  A    between atoms: C_2  and  O_3
REMARK    3  A    between atoms: O_3  and  C_4
REMARK    4  A    between atoms: C_4  and  C_6
REMARK    5  A    between atoms: C_8  and  N_9
REMARK    6  A    between atoms: C_11  and  C_12
REMARK    7  A    between atoms: C_16  and  C_18
REMARK    8  A    between atoms: C_27  and  C_28
REMARK    9  A    between atoms: C_28  and  O_30
REMARK   10  A    between atoms: O_30  and  C_31
REMARK   11  A    between atoms: C_31  and  C_32
REMARK                            x       y       z     vdW  Elec       q    Type
REMARK                         _______ _______ _______ _____ _____    ______ ____
ROOT
ATOM      1  N   UNL     1       1.830   8.532  18.814  0.00  0.00    +0.000 N 
ATOM      2  C   UNL     1       1.566   8.086  20.088  0.00  0.00    +0.000 A 
ATOM      3  C   UNL     1       1.196   8.910  21.067  0.00  0.00    +0.000 A 
ATOM      4  C   UNL     1       0.911   8.477  22.472  0.00  0.00    +0.000 C 
ATOM      5  C   UNL     1       1.097  10.357  20.771  0.00  0.00    +0.000 A 
ATOM      6  O   UNL     1       0.929  11.124  21.724  0.00  0.00    +0.000 OA
ATOM      7  N   UNL     1       1.218  10.740  19.448  0.00  0.00    +0.000 N 
ATOM      8  C   UNL     1       1.069  12.081  19.090  0.00  0.00    +0.000 C 
ATOM      9  O   UNL     1       1.887  12.710  18.417  0.00  0.00    +0.000 OA
ATOM     10  C   UNL     1       1.647   9.878  18.452  0.00  0.00    +0.000 A 
ATOM     11  O   UNL     1       1.807  10.229  17.285  0.00  0.00    +0.000 OA
ENDROOT
BRANCH   8  12
ATOM     12  C   UNL     1      -0.041  12.863  19.717  0.00  0.00    +0.000 A 
ATOM     13  C   UNL     1      -1.347  12.357  19.635  0.00  0.00    +0.000 A 
ATOM     14  C   UNL     1      -2.423  13.131  20.068  0.00  0.00    +0.000 A 
ATOM     15  C   UNL     1      -2.203  14.401  20.594  0.00  0.00    +0.000 A 
ATOM     16  C   UNL     1      -0.902  14.881  20.741  0.00  0.00    +0.000 A 
ATOM     17  C   UNL     1       0.182  14.102  20.331  0.00  0.00    +0.000 A 
ENDBRANCH   8  12
BRANCH   1  20
ATOM     18  C   UNL     1       2.769   5.244  18.524  0.00  0.00    +0.000 C 
ATOM     19  C   UNL     1       1.654   6.149  17.986  0.00  0.00    +0.000 C 
ATOM     20  C   UNL     1       2.284   7.537  17.812  0.00  0.00    +0.000 C 
ATOM     21  C   UNL     1       3.802   7.314  17.799  0.00  0.00    +0.000 C 
ATOM     22  C   UNL     1       4.018   5.793  17.847  0.00  0.00    +0.000 C 
BRANCH  18  23
ATOM     23  C   UNL     1       2.501   3.801  18.168  0.00  0.00    +0.000 C 
ATOM     24  O   UNL     1       2.197   3.400  17.053  0.00  0.00    +0.000 OA
BRANCH  23  25
ATOM     25  O   UNL     1       2.578   3.032  19.287  0.00  0.00    +0.000 OA
BRANCH  25  27
ATOM     26  C   UNL     1       1.889   3.086  21.568  0.00  0.00    +0.000 C 
ATOM     27  C   UNL     1       1.417   3.022  20.126  0.00  0.00    +0.000 C 
ENDBRANCH  25  27
ENDBRANCH  23  25
ENDBRANCH  18  23
BRANCH  22  28
ATOM     28  C   UNL     1       5.351   5.509  18.494  0.00  0.00    +0.000 C 
ATOM     29  O   UNL     1       5.457   5.322  19.708  0.00  0.00    +0.000 OA
BRANCH  28  30
ATOM     30  O   UNL     1       6.394   5.594  17.638  0.00  0.00    +0.000 OA
BRANCH  30  31
ATOM     31  C   UNL     1       7.574   6.209  18.175  0.00  0.00    +0.000 C 
ATOM     32  C   UNL     1       7.626   7.627  17.634  0.00  0.00    +0.000 C 
ENDBRANCH  30  31
ENDBRANCH  28  30
ENDBRANCH  22  28
ENDBRANCH   1  20
TORSDOF 8
ENDMDL
MODEL 4
REMARK VINA RESULT:      -7.1      1.468      2.175
REMARK  Name = 
REMARK  11 active torsions:
REMARK  status: ('A' for Active; 'I' for Inactive)
REMARK    1  A    between atoms: C_1  and  C_2
REMARK    2  A    between atoms: C_2  and  O_3
REMARK    3  A    between atoms: O_3  and  C_4
REMARK    4  A    between atoms: C_4  and  C_6
REMARK    5  A    between atoms: C_8  and  N_9
REMARK    6  A    between atoms: C_11  and  C_12
REMARK    7  A    between atoms: C_16  and  C_18
REMARK    8  A    between atoms: C_27  and  C_28
REMARK    9  A    between atoms: C_28  and  O_30
REMARK   10  A    between atoms: O_30  and  C_31
REMARK   11  A    between atoms: C_31  and  C_32
REMARK                            x       y       z     vdW  Elec       q    Type
REMARK                         _______ _______ _______ _____ _____    ______ ____
ROOT
ATOM      1  N   UNL     1       1.825   8.267  19.195  0.00  0.00    +0.000 N 
ATOM      2  C   UNL     1       1.518   8.112  20.527  0.00  0.00    +0.000 A 
ATOM      3  C   UNL     1       1.229   9.147  21.315  0.00  0.00    +0.000 A 
ATOM      4  C   UNL     1       0.904   9.033  22.772  0.00  0.00    +0.000 C 
ATOM      5  C   UNL     1       1.272  10.508  20.735  0.00  0.00    +0.000 A 
ATOM      6  O   UNL     1       1.179  11.462  21.512  0.00  0.00    +0.000 OA
ATOM      7  N   UNL     1       1.429  10.606  19.365  0.00  0.00    +0.000 N 
ATOM      8  C   UNL     1       1.410  11.856  18.744  0.00  0.00    +0.000 C 
ATOM      9  O   UNL     1       2.286  12.257  17.975  0.00  0.00    +0.000 OA
ATOM     10  C   UNL     1       1.772   9.525  18.569  0.00  0.00    +0.000 A 
ATOM     11  O   UNL     1       1.966   9.619  17.359  0.00  0.00    +0.000 OA
ENDROOT
BRANCH   8  12
ATOM     12  C   UNL     1       0.382  12.849  19.181  0.00  0.00    +0.000 A 
ATOM     13  C   UNL     1       0.806  14.137  19.543  0.00  0.00    +0.000 A 
ATOM     14  C   UNL     1      -0.099  15.037  20.103  0.00  0.00    +0.000 A 
ATOM     15  C   UNL     1      -1.427  14.665  20.293  0.00  0.00    +0.000 A 
ATOM     16  C   UNL     1      -1.869  13.411  19.872  0.00  0.00    +0.000 A 
ATOM     17  C   UNL     1      -0.973  12.513  19.289  0.00  0.00    +0.000 A 
ENDBRANCH   8  12
BRANCH   1  20
ATOM     18  C   UNL     1       4.206   5.803  19.001  0.00  0.00    +0.000 C 
ATOM     19  C   UNL     1       2.701   5.896  19.283  0.00  0.00    +0.000 C 
ATOM     20  C   UNL     1       2.181   7.053  18.420  0.00  0.00    +0.000 C 
ATOM     21  C   UNL     1       3.249   7.291  17.344  0.00  0.00    +0.000 C 
ATOM     22  C   UNL     1       4.308   6.195  17.533  0.00  0.00    +0.000 C 
BRANCH  18  23
ATOM     23  C   UNL     1       4.711   4.405  19.267  0.00  0.00    +0.000 C 
ATOM     24  O   UNL     1       5.887   4.068  19.233  0.00  0.00    +0.000 OA
BRANCH  23  25
ATOM     25  O   UNL     1       3.658   3.570  19.476  0.00  0.00    +0.000 OA
BRANCH  25  27
ATOM     26  C   UNL     1       2.639   2.649  17.529  0.00  0.00    +0.000 C 
ATOM     27  C   UNL     1       3.616   2.392  18.663  0.00  0.00    +0.000 C 
ENDBRANCH  25  27
ENDBRANCH  23  25
ENDBRANCH  18  23
BRANCH  22  28
ATOM     28  C   UNL     1       5.636   6.706  17.033  0.00  0.00    +0.000 C 
ATOM     29  O   UNL     1       6.338   7.460  17.710  0.00  0.00    +0.000 OA
BRANCH  28  30
ATOM     30  O   UNL     1       5.905   6.349  15.757  0.00  0.00    +0.000 OA
BRANCH  30  31
ATOM     31  C   UNL     1       6.632   5.122  15.608  0.00  0.00    +0.000 C 
ATOM     32  C   UNL     1       5.900   4.291  14.568  0.00  0.00    +0.000 C 
ENDBRANCH  30  31
ENDBRANCH  28  30
ENDBRANCH  22  28
ENDBRANCH   1  20
TORSDOF 8
ENDMDL
MODEL 5
REMARK VINA RESULT:      -7.1      1.372      1.986
REMARK  Name = 
REMARK  11 active torsions:
REMARK  status: ('A' for Active; 'I' for Inactive)
REMARK    1  A    between atoms: C_1  and  C_2
REMARK    2  A    between atoms: C_2  and  O_3
REMARK    3  A    between atoms: O_3  and  C_4
REMARK    4  A    between atoms: C_4  and  C_6
REMARK    5  A    between atoms: C_8  and  N_9
REMARK    6  A    between atoms: C_11  and  C_12
REMARK    7  A    between atoms: C_16  and  C_18
REMARK    8  A    between atoms: C_27  and  C_28
REMARK    9  A    between atoms: C_28  and  O_30
REMARK   10  A    between atoms: O_30  and  C_31
REMARK   11  A    between atoms: C_31  and  C_32
REMARK                            x       y       z     vdW  Elec       q    Type
REMARK                         _______ _______ _______ _____ _____    ______ ____
ROOT
ATOM      1  N   UNL     1       1.769   8.259  19.298  0.00  0.00    +0.000 N 
ATOM      2  C   UNL     1       1.458   8.138  20.633  0.00  0.00    +0.000 A 
ATOM      3  C   UNL     1       1.188   9.195  21.397  0.00  0.00    +0.000 A 
ATOM      4  C   UNL     1       0.859   9.119  22.856  0.00  0.00    +0.000 C 
ATOM      5  C   UNL     1       1.258  10.542  20.789  0.00  0.00    +0.000 A 
ATOM      6  O   UNL     1       1.182  11.515  21.545  0.00  0.00    +0.000 OA
ATOM      7  N   UNL     1       1.419  10.608  19.417  0.00  0.00    +0.000 N 
ATOM      8  C   UNL     1       1.426  11.844  18.769  0.00  0.00    +0.000 C 
ATOM      9  O   UNL     1       2.310  12.211  17.993  0.00  0.00    +0.000 OA
ATOM     10  C   UNL     1       1.742   9.503  18.645  0.00  0.00    +0.000 A 
ATOM     11  O   UNL     1       1.940   9.568  17.433  0.00  0.00    +0.000 OA
ENDROOT
BRANCH   8  12
ATOM     12  C   UNL     1       0.416  12.867  19.183  0.00  0.00    +0.000 A 
ATOM     13  C   UNL     1       0.865  14.153  19.519  0.00  0.00    +0.000 A 
ATOM     14  C   UNL     1      -0.023  15.083  20.059  0.00  0.00    +0.000 A 
ATOM     15  C   UNL     1      -1.359  14.741  20.253  0.00  0.00    +0.000 A 
ATOM     16  C   UNL     1      -1.824  13.487  19.858  0.00  0.00    +0.000 A 
ATOM     17  C   UNL     1      -0.945  12.559  19.295  0.00  0.00    +0.000 A 
ENDBRANCH   8  12
BRANCH   1  20
ATOM     18  C   UNL     1       4.223   5.879  18.994  0.00  0.00    +0.000 C 
ATOM     19  C   UNL     1       2.749   5.930  19.412  0.00  0.00    +0.000 C 
ATOM     20  C   UNL     1       2.102   7.022  18.550  0.00  0.00    +0.000 C 
ATOM     21  C   UNL     1       3.055   7.246  17.368  0.00  0.00    +0.000 C 
ATOM     22  C   UNL     1       4.173   6.200  17.506  0.00  0.00    +0.000 C 
BRANCH  18  23
ATOM     23  C   UNL     1       4.809   4.516  19.275  0.00  0.00    +0.000 C 
ATOM     24  O   UNL     1       5.982   4.210  19.106  0.00  0.00    +0.000 OA
BRANCH  23  25
ATOM     25  O   UNL     1       3.824   3.667  19.673  0.00  0.00    +0.000 OA
BRANCH  25  27
ATOM     26  C   UNL     1       3.291   2.023  18.032  0.00  0.00    +0.000 C 
ATOM     27  C   UNL     1       4.010   2.286  19.344  0.00  0.00    +0.000 C 
ENDBRANCH  25  27
ENDBRANCH  23  25
ENDBRANCH  18  23
BRANCH  22  28
ATOM     28  C   UNL     1       5.426   6.736  16.859  0.00  0.00    +0.000 C 
ATOM     29  O   UNL     1       5.779   6.380  15.734  0.00  0.00    +0.000 OA
BRANCH  28  30
ATOM     30  O   UNL     1       6.153   7.534  17.674  0.00  0.00    +0.000 OA
BRANCH  30  31
ATOM     31  C   UNL     1       7.576   7.408  17.538  0.00  0.00    +0.000 C 
ATOM     32  C   UNL     1       8.185   8.731  17.970  0.00  0.00    +0.000 C 
ENDBRANCH  30  31
ENDBRANCH  28  30
ENDBRANCH  22  28
ENDBRANCH   1  20
TORSDOF 8
ENDMDL
MODEL 6
REMARK VINA RESULT:      -6.9      1.978      4.307
REMARK  Name = 
REMARK  11 active torsions:
REMARK  status: ('A' for Active; 'I' for Inactive)
REMARK    1  A    between atoms: C_1  and  C_2
REMARK    2  A    between atoms: C_2  and  O_3
REMARK    3  A    between atoms: O_3  and  C_4
REMARK    4  A    between atoms: C_4  and  C_6
REMARK    5  A    between atoms: C_8  and  N_9
REMARK    6  A    between atoms: C_11  and  C_12
REMARK    7  A    between atoms: C_16  and  C_18
REMARK    8  A    between atoms: C_27  and  C_28
REMARK    9  A    between atoms: C_28  and  O_30
REMARK   10  A    between atoms: O_30  and  C_31
REMARK   11  A    between atoms: C_31  and  C_32
REMARK                            x       y       z     vdW  Elec       q    Type
REMARK                         _______ _______ _______ _____ _____    ______ ____
ROOT
ATOM      1  N   UNL     1       1.245   8.585  20.171  0.00  0.00    +0.000 N 
ATOM      2  C   UNL     1       0.711   8.922  18.948  0.00  0.00    +0.000 A 
ATOM      3  C   UNL     1      -0.220   9.865  18.817  0.00  0.00    +0.000 A 
ATOM      4  C   UNL     1      -0.843  10.260  17.513  0.00  0.00    +0.000 C 
ATOM      5  C   UNL     1      -0.713  10.546  20.035  0.00  0.00    +0.000 A 
ATOM      6  O   UNL     1      -1.696  11.283  19.919  0.00  0.00    +0.000 OA
ATOM      7  N   UNL     1      -0.042  10.289  21.217  0.00  0.00    +0.000 N 
ATOM      8  C   UNL     1      -0.411  10.947  22.391  0.00  0.00    +0.000 C 
ATOM      9  O   UNL     1      -0.665  10.374  23.452  0.00  0.00    +0.000 OA
ATOM     10  C   UNL     1       0.893   9.274  21.344  0.00  0.00    +0.000 A 
ATOM     11  O   UNL     1       1.452   9.008  22.406  0.00  0.00    +0.000 OA
ENDROOT
BRANCH   8  12
ATOM     12  C   UNL     1      -0.712  12.410  22.318  0.00  0.00    +0.000 A 
ATOM     13  C   UNL     1      -1.955  12.862  22.788  0.00  0.00    +0.000 A 
ATOM     14  C   UNL     1      -2.333  14.190  22.594  0.00  0.00    +0.000 A 
ATOM     15  C   UNL     1      -1.474  15.073  21.944  0.00  0.00    +0.000 A 
ATOM     16  C   UNL     1      -0.211  14.646  21.536  0.00  0.00    +0.000 A 
ATOM     17  C   UNL     1       0.184  13.323  21.749  0.00  0.00    +0.000 A 
ENDBRANCH   8  12
BRANCH   1  20
ATOM     18  C   UNL     1       2.790   6.279  18.152  0.00  0.00    +0.000 C 
ATOM     19  C   UNL     1       3.204   7.476  19.018  0.00  0.00    +0.000 C 
ATOM     20  C   UNL     1       2.241   7.486  20.212  0.00  0.00    +0.000 C 
ATOM     21  C   UNL     1       1.620   6.084  20.266  0.00  0.00    +0.000 C 
ATOM     22  C   UNL     1       2.320   5.256  19.177  0.00  0.00    +0.000 C 
BRANCH  18  23
ATOM     23  C   UNL     1       3.959   5.787  17.332  0.00  0.00    +0.000 C 
ATOM     24  O   UNL     1       4.054   4.665  16.852  0.00  0.00    +0.000 OA
BRANCH  23  25
ATOM     25  O   UNL     1       4.915   6.752  17.273  0.00  0.00    +0.000 OA
BRANCH  25  27
ATOM     26  C   UNL     1       7.269   7.044  17.508  0.00  0.00    +0.000 C 
ATOM     27  C   UNL     1       6.172   6.361  16.710  0.00  0.00    +0.000 C 
ENDBRANCH  25  27
ENDBRANCH  23  25
ENDBRANCH  18  23
BRANCH  22  28
ATOM     28  C   UNL     1       1.382   4.171  18.708  0.00  0.00    +0.000 C 
ATOM     29  O   UNL     1       1.073   4.048  17.522  0.00  0.00    +0.000 OA
BRANCH  28  30
ATOM     30  O   UNL     1       0.847   3.448  19.718  0.00  0.00    +0.000 OA
BRANCH  30  31
ATOM     31  C   UNL     1       1.694   2.416  20.242  0.00  0.00    +0.000 C 
ATOM     32  C   UNL     1       1.757   2.609  21.748  0.00  0.00    +0.000 C 
ENDBRANCH  30  31
ENDBRANCH  28  30
ENDBRANCH  22  28
ENDBRANCH   1  20
TORSDOF 8
ENDMDL
MODEL 7
REMARK VINA RESULT:      -6.8      1.928      4.072
REMARK  Name = 
REMARK  11 active torsions:
REMARK  status: ('A' for Active; 'I' for Inactive)
REMARK    1  A    between atoms: C_1  and  C_2
REMARK    2  A    between atoms: C_2  and  O_3
REMARK    3  A    between atoms: O_3  and  C_4
REMARK    4  A    between atoms: C_4  and  C_6
REMARK    5  A    between atoms: C_8  and  N_9
REMARK    6  A    between atoms: C_11  and  C_12
REMARK    7  A    between atoms: C_16  and  C_18
REMARK    8  A    between atoms: C_27  and  C_28
REMARK    9  A    between atoms: C_28  and  O_30
REMARK   10  A    between atoms: O_30  and  C_31
REMARK   11  A    between atoms: C_31  and  C_32
REMARK                            x       y       z     vdW  Elec       q    Type
REMARK                         _______ _______ _______ _____ _____    ______ ____
ROOT
ATOM      1  N   UNL     1       1.231   8.533  20.199  0.00  0.00    +0.000 N 
ATOM      2  C   UNL     1       0.709   8.861  18.968  0.00  0.00    +0.000 A 
ATOM      3  C   UNL     1      -0.209   9.815  18.818  0.00  0.00    +0.000 A 
ATOM      4  C   UNL     1      -0.818  10.199  17.505  0.00  0.00    +0.000 C 
ATOM      5  C   UNL     1      -0.699  10.519  20.024  0.00  0.00    +0.000 A 
ATOM      6  O   UNL     1      -1.671  11.269  19.891  0.00  0.00    +0.000 OA
ATOM      7  N   UNL     1      -0.038  10.270  21.212  0.00  0.00    +0.000 N 
ATOM      8  C   UNL     1      -0.405  10.950  22.375  0.00  0.00    +0.000 C 
ATOM      9  O   UNL     1      -0.673  10.396  23.443  0.00  0.00    +0.000 OA
ATOM     10  C   UNL     1       0.881   9.244  21.360  0.00  0.00    +0.000 A 
ATOM     11  O   UNL     1       1.430   8.985  22.429  0.00  0.00    +0.000 OA
ENDROOT
BRANCH   8  12
ATOM     12  C   UNL     1      -0.685  12.416  22.280  0.00  0.00    +0.000 A 
ATOM     13  C   UNL     1       0.302  13.252  21.736  0.00  0.00    +0.000 A 
ATOM     14  C   UNL     1       0.141  14.637  21.775  0.00  0.00    +0.000 A 
ATOM     15  C   UNL     1      -1.003  15.191  22.343  0.00  0.00    +0.000 A 
ATOM     16  C   UNL     1      -2.017  14.363  22.823  0.00  0.00    +0.000 A 
ATOM     17  C   UNL     1      -1.874  12.975  22.765  0.00  0.00    +0.000 A 
ENDBRANCH   8  12
BRANCH   1  20
ATOM     18  C   UNL     1       2.867   6.274  18.198  0.00  0.00    +0.000 C 
ATOM     19  C   UNL     1       3.242   7.437  19.126  0.00  0.00    +0.000 C 
ATOM     20  C   UNL     1       2.210   7.421  20.262  0.00  0.00    +0.000 C 
ATOM     21  C   UNL     1       1.572   6.026  20.233  0.00  0.00    +0.000 C 
ATOM     22  C   UNL     1       2.326   5.224  19.160  0.00  0.00    +0.000 C 
BRANCH  18  23
ATOM     23  C   UNL     1       4.076   5.794  17.432  0.00  0.00    +0.000 C 
ATOM     24  O   UNL     1       4.461   6.261  16.368  0.00  0.00    +0.000 OA
BRANCH  23  25
ATOM     25  O   UNL     1       4.622   4.722  18.065  0.00  0.00    +0.000 OA
BRANCH  25  27
ATOM     26  C   UNL     1       6.563   5.438  19.248  0.00  0.00    +0.000 C 
ATOM     27  C   UNL     1       6.052   4.646  18.057  0.00  0.00    +0.000 C 
ENDBRANCH  25  27
ENDBRANCH  23  25
ENDBRANCH  18  23
BRANCH  22  28
ATOM     28  C   UNL     1       1.406   4.167  18.602  0.00  0.00    +0.000 C 
ATOM     29  O   UNL     1       1.139   4.108  17.401  0.00  0.00    +0.000 OA
BRANCH  28  30
ATOM     30  O   UNL     1       0.837   3.393  19.553  0.00  0.00    +0.000 OA
BRANCH  30  31
ATOM     31  C   UNL     1       1.708   2.422  20.149  0.00  0.00    +0.000 C 
ATOM     32  C   UNL     1       1.646   2.627  21.653  0.00  0.00    +0.000 C 
ENDBRANCH  30  31
ENDBRANCH  28  30
ENDBRANCH  22  28
ENDBRANCH   1  20
TORSDOF 8
ENDMDL
MODEL 8
REMARK VINA RESULT:      -6.8      3.914     10.210
REMARK  Name = 
REMARK  11 active torsions:
REMARK  status: ('A' for Active; 'I' for Inactive)
REMARK    1  A    between atoms: C_1  and  C_2
REMARK    2  A    between atoms: C_2  and  O_3
REMARK    3  A    between atoms: O_3  and  C_4
REMARK    4  A    between atoms: C_4  and  C_6
REMARK    5  A    between atoms: C_8  and  N_9
REMARK    6  A    between atoms: C_11  and  C_12
REMARK    7  A    between atoms: C_16  and  C_18
REMARK    8  A    between atoms: C_27  and  C_28
REMARK    9  A    between atoms: C_28  and  O_30
REMARK   10  A    between atoms: O_30  and  C_31
REMARK   11  A    between atoms: C_31  and  C_32
REMARK                            x       y       z     vdW  Elec       q    Type
REMARK                         _______ _______ _______ _____ _____    ______ ____
ROOT
ATOM      1  N   UNL     1      -2.153  12.244  19.808  0.00  0.00    +0.000 N 
ATOM      2  C   UNL     1      -2.998  11.488  19.028  0.00  0.00    +0.000 A 
ATOM      3  C   UNL     1      -2.547  10.550  18.197  0.00  0.00    +0.000 A 
ATOM      4  C   UNL     1      -3.422   9.711  17.316  0.00  0.00    +0.000 C 
ATOM      5  C   UNL     1      -1.085  10.341  18.094  0.00  0.00    +0.000 A 
ATOM      6  O   UNL     1      -0.676   9.599  17.196  0.00  0.00    +0.000 OA
ATOM      7  N   UNL     1      -0.287  11.009  19.005  0.00  0.00    +0.000 N 
ATOM      8  C   UNL     1       1.094  10.806  19.008  0.00  0.00    +0.000 C 
ATOM      9  O   UNL     1       1.924  11.716  18.964  0.00  0.00    +0.000 OA
ATOM     10  C   UNL     1      -0.767  12.012  19.830  0.00  0.00    +0.000 A 
ATOM     11  O   UNL     1      -0.049  12.645  20.602  0.00  0.00    +0.000 OA
ENDROOT
BRANCH   8  12
ATOM     12  C   UNL     1       1.606   9.410  18.853  0.00  0.00    +0.000 A 
ATOM     13  C   UNL     1       1.449   8.517  19.924  0.00  0.00    +0.000 A 
ATOM     14  C   UNL     1       2.050   7.259  19.877  0.00  0.00    +0.000 A 
ATOM     15  C   UNL     1       2.797   6.883  18.764  0.00  0.00    +0.000 A 
ATOM     16  C   UNL     1       2.900   7.741  17.668  0.00  0.00    +0.000 A 
ATOM     17  C   UNL     1       2.280   8.992  17.699  0.00  0.00    +0.000 A 
ENDBRANCH   8  12
BRANCH   1  20
ATOM     18  C   UNL     1      -3.842  12.667  22.766  0.00  0.00    +0.000 C 
ATOM     19  C   UNL     1      -2.500  13.100  22.162  0.00  0.00    +0.000 C 
ATOM     20  C   UNL     1      -2.756  13.297  20.662  0.00  0.00    +0.000 C 
ATOM     21  C   UNL     1      -4.277  13.431  20.506  0.00  0.00    +0.000 C 
ATOM     22  C   UNL     1      -4.861  13.428  21.927  0.00  0.00    +0.000 C 
BRANCH  18  23
ATOM     23  C   UNL     1      -3.908  13.028  24.231  0.00  0.00    +0.000 C 
ATOM     24  O   UNL     1      -4.639  12.491  25.052  0.00  0.00    +0.000 OA
BRANCH  23  25
ATOM     25  O   UNL     1      -3.089  14.085  24.478  0.00  0.00    +0.000 OA
BRANCH  25  27
ATOM     26  C   UNL     1      -3.347  16.357  23.808  0.00  0.00    +0.000 C 
ATOM     27  C   UNL     1      -3.733  15.312  24.839  0.00  0.00    +0.000 C 
ENDBRANCH  25  27
ENDBRANCH  23  25
ENDBRANCH  18  23
BRANCH  22  28
ATOM     28  C   UNL     1      -6.270  12.891  21.875  0.00  0.00    +0.000 C 
ATOM     29  O   UNL     1      -6.507  11.716  21.591  0.00  0.00    +0.000 OA
BRANCH  28  30
ATOM     30  O   UNL     1      -7.215  13.841  22.057  0.00  0.00    +0.000 OA
BRANCH  30  31
ATOM     31  C   UNL     1      -7.064  14.631  23.244  0.00  0.00    +0.000 C 
ATOM     32  C   UNL     1      -7.829  13.926  24.351  0.00  0.00    +0.000 C 
ENDBRANCH  30  31
ENDBRANCH  28  30
ENDBRANCH  22  28
ENDBRANCH   1  20
TORSDOF 8
ENDMDL
MODEL 9
REMARK VINA RESULT:      -6.8      4.030     10.043
REMARK  Name = 
REMARK  11 active torsions:
REMARK  status: ('A' for Active; 'I' for Inactive)
REMARK    1  A    between atoms: C_1  and  C_2
REMARK    2  A    between atoms: C_2  and  O_3
REMARK    3  A    between atoms: O_3  and  C_4
REMARK    4  A    between atoms: C_4  and  C_6
REMARK    5  A    between atoms: C_8  and  N_9
REMARK    6  A    between atoms: C_11  and  C_12
REMARK    7  A    between atoms: C_16  and  C_18
REMARK    8  A    between atoms: C_27  and  C_28
REMARK    9  A    between atoms: C_28  and  O_30
REMARK   10  A    between atoms: O_30  and  C_31
REMARK   11  A    between atoms: C_31  and  C_32
REMARK                            x       y       z     vdW  Elec       q    Type
REMARK                         _______ _______ _______ _____ _____    ______ ____
ROOT
ATOM      1  N   UNL     1      -2.512  12.302  19.658  0.00  0.00    +0.000 N 
ATOM      2  C   UNL     1      -3.284  11.514  18.836  0.00  0.00    +0.000 A 
ATOM      3  C   UNL     1      -2.754  10.589  18.037  0.00  0.00    +0.000 A 
ATOM      4  C   UNL     1      -3.547   9.717  17.113  0.00  0.00    +0.000 C 
ATOM      5  C   UNL     1      -1.282  10.433  18.017  0.00  0.00    +0.000 A 
ATOM      6  O   UNL     1      -0.797   9.703  17.147  0.00  0.00    +0.000 OA
ATOM      7  N   UNL     1      -0.560  11.131  18.968  0.00  0.00    +0.000 N 
ATOM      8  C   UNL     1       0.825  10.978  19.049  0.00  0.00    +0.000 C 
ATOM      9  O   UNL     1       1.623  11.917  19.048  0.00  0.00    +0.000 OA
ATOM     10  C   UNL     1      -1.121  12.120  19.760  0.00  0.00    +0.000 A 
ATOM     11  O   UNL     1      -0.471  12.781  20.567  0.00  0.00    +0.000 OA
ENDROOT
BRANCH   8  12
ATOM     12  C   UNL     1       1.394   9.601  18.931  0.00  0.00    +0.000 A 
ATOM     13  C   UNL     1       1.260   8.725  20.020  0.00  0.00    +0.000 A 
ATOM     14  C   UNL     1       1.912   7.493  20.008  0.00  0.00    +0.000 A 
ATOM     15  C   UNL     1       2.686   7.123  18.911  0.00  0.00    +0.000 A 
ATOM     16  C   UNL     1       2.766   7.960  17.798  0.00  0.00    +0.000 A 
ATOM     17  C   UNL     1       2.097   9.185  17.793  0.00  0.00    +0.000 A 
ENDBRANCH   8  12
BRANCH   1  20
ATOM     18  C   UNL     1      -4.455  12.663  22.464  0.00  0.00    +0.000 C 
ATOM     19  C   UNL     1      -3.071  13.120  21.985  0.00  0.00    +0.000 C 
ATOM     20  C   UNL     1      -3.198  13.335  20.471  0.00  0.00    +0.000 C 
ATOM     21  C   UNL     1      -4.701  13.456  20.187  0.00  0.00    +0.000 C 
ATOM     22  C   UNL     1      -5.406  13.426  21.551  0.00  0.00    +0.000 C 
BRANCH  18  23
ATOM     23  C   UNL     1      -4.651  13.002  23.923  0.00  0.00    +0.000 C 
ATOM     24  O   UNL     1      -4.982  12.202  24.788  0.00  0.00    +0.000 OA
BRANCH  23  25
ATOM     25  O   UNL     1      -4.477  14.337  24.110  0.00  0.00    +0.000 OA
BRANCH  25  27
ATOM     26  C   UNL     1      -3.442  16.223  25.135  0.00  0.00    +0.000 C 
ATOM     27  C   UNL     1      -3.370  14.720  24.933  0.00  0.00    +0.000 C 
ENDBRANCH  25  27
ENDBRANCH  23  25
ENDBRANCH  18  23
BRANCH  22  28
ATOM     28  C   UNL     1      -6.799  12.875  21.370  0.00  0.00    +0.000 C 
ATOM     29  O   UNL     1      -7.633  12.909  22.276  0.00  0.00    +0.000 OA
BRANCH  28  30
ATOM     30  O   UNL     1      -6.983  12.257  20.181  0.00  0.00    +0.000 OA
BRANCH  30  31
ATOM     31  C   UNL     1      -7.337  10.870  20.264  0.00  0.00    +0.000 C 
ATOM     32  C   UNL     1      -6.815  10.198  19.006  0.00  0.00    +0.000 C 
ENDBRANCH  30  31
ENDBRANCH  28  30
ENDBRANCH  22  28
ENDBRANCH   1  20
TORSDOF 8
ENDMDL
