MODEL 1
REMARK VINA RESULT:      -7.9      0.000      0.000
REMARK  Name = 
REMARK  5 active torsions:
REMARK  status: ('A' for Active; 'I' for Inactive)
REMARK    1  A    between atoms: C_1  and  N_2
REMARK    2  A    between atoms: N_2  and  O_3
REMARK    3  A    between atoms: N_2  and  C_4
REMARK    4  A    between atoms: C_4  and  C_5
REMARK    5  A    between atoms: C_5  and  C_6
REMARK                            x       y       z     vdW  Elec       q    Type
REMARK                         _______ _______ _______ _____ _____    ______ ____
ROOT
ATOM      1  C   UNL     1       5.920   4.721  15.500  0.00  0.00    +0.000 A 
ATOM      2  C   UNL     1       6.931   4.895  16.450  0.00  0.00    +0.000 A 
ATOM      3  C   UNL     1       6.710   4.541  17.783  0.00  0.00    +0.000 A 
ATOM      4  C   UNL     1       5.483   4.005  18.198  0.00  0.00    +0.000 A 
ATOM      5  C   UNL     1       4.439   3.864  17.278  0.00  0.00    +0.000 A 
ATOM      6  C   UNL     1       4.682   4.218  15.933  0.00  0.00    +0.000 A 
ATOM      7  C   UNL     1       3.050   3.414  17.599  0.00  0.00    +0.000 C 
ATOM      8  O   UNL     1       2.268   3.188  16.674  0.00  0.00    +0.000 OA
ATOM      9  C   UNL     1       2.526   3.260  18.978  0.00  0.00    +0.000 A 
ATOM     10  C   UNL     1       1.166   3.533  19.192  0.00  0.00    +0.000 A 
ATOM     11  C   UNL     1       0.608   3.400  20.463  0.00  0.00    +0.000 A 
ATOM     12  C   UNL     1       1.402   2.984  21.527  0.00  0.00    +0.000 A 
ATOM     13  C   UNL     1       2.749   2.690  21.319  0.00  0.00    +0.000 A 
ATOM     14  C   UNL     1       3.319   2.815  20.040  0.00  0.00    +0.000 A 
ATOM     15  C   UNL     1       4.757   2.483  19.818  0.00  0.00    +0.000 C 
ATOM     16  O   UNL     1       5.459   3.691  19.527  0.00  0.00    +0.000 OA
ENDROOT
BRANCH   1  17
ATOM     17  C   UNL     1       6.119   5.103  14.043  0.00  0.00    +0.000 C 
BRANCH  17  18
ATOM     18  C   UNL     1       6.799   3.998  13.215  0.00  0.00    +0.000 C 
BRANCH  18  20
ATOM     19  C   UNL     1       4.824   3.603  11.904  0.00  0.00    +0.000 C 
ATOM     20  N   UNL     1       5.867   2.964  12.712  0.00  0.00    +0.000 NA
BRANCH  20  21
ATOM     21  O   UNL     1       6.624   2.167  11.754  0.00  0.00    +0.000 OA
ATOM     22  H   UNL     1       7.522   2.195  12.140  0.00  0.00    +0.000 HD
ENDBRANCH  20  21
ENDBRANCH  18  20
ENDBRANCH  17  18
ENDBRANCH   1  17
TORSDOF 4
ENDMDL
MODEL 2
REMARK VINA RESULT:      -7.8      1.556      1.843
REMARK  Name = 
REMARK  5 active torsions:
REMARK  status: ('A' for Active; 'I' for Inactive)
REMARK    1  A    between atoms: C_1  and  N_2
REMARK    2  A    between atoms: N_2  and  O_3
REMARK    3  A    between atoms: N_2  and  C_4
REMARK    4  A    between atoms: C_4  and  C_5
REMARK    5  A    between atoms: C_5  and  C_6
REMARK                            x       y       z     vdW  Elec       q    Type
REMARK                         _______ _______ _______ _____ _____    ______ ____
ROOT
ATOM      1  C   UNL     1       5.988   4.539  14.879  0.00  0.00    +0.000 A 
ATOM      2  C   UNL     1       5.866   5.924  15.026  0.00  0.00    +0.000 A 
ATOM      3  C   UNL     1       5.128   6.456  16.085  0.00  0.00    +0.000 A 
ATOM      4  C   UNL     1       4.496   5.623  17.020  0.00  0.00    +0.000 A 
ATOM      5  C   UNL     1       4.563   4.234  16.870  0.00  0.00    +0.000 A 
ATOM      6  C   UNL     1       5.321   3.713  15.799  0.00  0.00    +0.000 A 
ATOM      7  C   UNL     1       3.852   3.230  17.720  0.00  0.00    +0.000 C 
ATOM      8  O   UNL     1       4.113   2.034  17.577  0.00  0.00    +0.000 OA
ATOM      9  C   UNL     1       2.803   3.577  18.710  0.00  0.00    +0.000 A 
ATOM     10  C   UNL     1       1.766   2.654  18.911  0.00  0.00    +0.000 A 
ATOM     11  C   UNL     1       0.752   2.914  19.833  0.00  0.00    +0.000 A 
ATOM     12  C   UNL     1       0.774   4.095  20.569  0.00  0.00    +0.000 A 
ATOM     13  C   UNL     1       1.813   5.008  20.391  0.00  0.00    +0.000 A 
ATOM     14  C   UNL     1       2.841   4.751  19.469  0.00  0.00    +0.000 A 
ATOM     15  C   UNL     1       3.961   5.724  19.294  0.00  0.00    +0.000 C 
ATOM     16  O   UNL     1       3.846   6.315  18.000  0.00  0.00    +0.000 OA
ENDROOT
BRANCH   1  17
ATOM     17  C   UNL     1       6.775   3.924  13.734  0.00  0.00    +0.000 C 
BRANCH  17  18
ATOM     18  C   UNL     1       6.021   3.959  12.393  0.00  0.00    +0.000 C 
BRANCH  18  20
ATOM     19  C   UNL     1       4.101   3.182  11.174  0.00  0.00    +0.000 C 
ATOM     20  N   UNL     1       5.090   2.825  12.196  0.00  0.00    +0.000 NA
BRANCH  20  21
ATOM     21  O   UNL     1       5.872   1.760  11.580  0.00  0.00    +0.000 OA
ATOM     22  H   UNL     1       5.725   1.022  12.204  0.00  0.00    +0.000 HD
ENDBRANCH  20  21
ENDBRANCH  18  20
ENDBRANCH  17  18
ENDBRANCH   1  17
TORSDOF 4
ENDMDL
MODEL 3
REMARK VINA RESULT:      -7.2      9.046     10.428
REMARK  Name = 
REMARK  5 active torsions:
REMARK  status: ('A' for Active; 'I' for Inactive)
REMARK    1  A    between atoms: C_1  and  N_2
REMARK    2  A    between atoms: N_2  and  O_3
REMARK    3  A    between atoms: N_2  and  C_4
REMARK    4  A    between atoms: C_4  and  C_5
REMARK    5  A    between atoms: C_5  and  C_6
REMARK                            x       y       z     vdW  Elec       q    Type
REMARK                         _______ _______ _______ _____ _____    ______ ____
ROOT
ATOM      1  C   UNL     1      -3.089  10.367  15.518  0.00  0.00    +0.000 A 
ATOM      2  C   UNL     1      -4.197  11.082  15.981  0.00  0.00    +0.000 A 
ATOM      3  C   UNL     1      -4.208  11.597  17.279  0.00  0.00    +0.000 A 
ATOM      4  C   UNL     1      -3.118  11.413  18.142  0.00  0.00    +0.000 A 
ATOM      5  C   UNL     1      -2.017  10.661  17.720  0.00  0.00    +0.000 A 
ATOM      6  C   UNL     1      -2.018  10.156  16.402  0.00  0.00    +0.000 A 
ATOM      7  C   UNL     1      -0.839  10.291  18.564  0.00  0.00    +0.000 C 
ATOM      8  O   UNL     1       0.133   9.755  18.030  0.00  0.00    +0.000 OA
ATOM      9  C   UNL     1      -0.777  10.489  20.033  0.00  0.00    +0.000 A 
ATOM     10  C   UNL     1      -0.053   9.553  20.786  0.00  0.00    +0.000 A 
ATOM     11  C   UNL     1       0.052   9.684  22.171  0.00  0.00    +0.000 A 
ATOM     12  C   UNL     1      -0.558  10.759  22.811  0.00  0.00    +0.000 A 
ATOM     13  C   UNL     1      -1.261  11.705  22.068  0.00  0.00    +0.000 A 
ATOM     14  C   UNL     1      -1.367  11.584  20.672  0.00  0.00    +0.000 A 
ATOM     15  C   UNL     1      -2.107  12.610  19.878  0.00  0.00    +0.000 C 
ATOM     16  O   UNL     1      -3.292  12.009  19.358  0.00  0.00    +0.000 OA
ENDROOT
BRANCH   1  17
ATOM     17  C   UNL     1      -3.045   9.784  14.115  0.00  0.00    +0.000 C 
BRANCH  17  18
ATOM     18  C   UNL     1      -4.292  10.123  13.279  0.00  0.00    +0.000 C 
BRANCH  18  20
ATOM     19  C   UNL     1      -5.726   9.580  11.428  0.00  0.00    +0.000 C 
ATOM     20  N   UNL     1      -4.411   9.337  12.030  0.00  0.00    +0.000 NA
BRANCH  20  21
ATOM     21  O   UNL     1      -3.471   9.929  11.087  0.00  0.00    +0.000 OA
ATOM     22  H   UNL     1      -4.001   9.947  10.266  0.00  0.00    +0.000 HD
ENDBRANCH  20  21
ENDBRANCH  18  20
ENDBRANCH  17  18
ENDBRANCH   1  17
TORSDOF 4
ENDMDL
MODEL 4
REMARK VINA RESULT:      -7.2      1.313      1.334
REMARK  Name = 
REMARK  5 active torsions:
REMARK  status: ('A' for Active; 'I' for Inactive)
REMARK    1  A    between atoms: C_1  and  N_2
REMARK    2  A    between atoms: N_2  and  O_3
REMARK    3  A    between atoms: N_2  and  C_4
REMARK    4  A    between atoms: C_4  and  C_5
REMARK    5  A    between atoms: C_5  and  C_6
REMARK                            x       y       z     vdW  Elec       q    Type
REMARK                         _______ _______ _______ _____ _____    ______ ____
ROOT
ATOM      1  C   UNL     1       5.998   4.693  15.719  0.00  0.00    +0.000 A 
ATOM      2  C   UNL     1       6.971   4.891  16.704  0.00  0.00    +0.000 A 
ATOM      3  C   UNL     1       6.709   4.541  18.030  0.00  0.00    +0.000 A 
ATOM      4  C   UNL     1       5.477   3.986  18.404  0.00  0.00    +0.000 A 
ATOM      5  C   UNL     1       4.470   3.821  17.448  0.00  0.00    +0.000 A 
ATOM      6  C   UNL     1       4.754   4.171  16.110  0.00  0.00    +0.000 A 
ATOM      7  C   UNL     1       3.078   3.348  17.721  0.00  0.00    +0.000 C 
ATOM      8  O   UNL     1       2.334   3.103  16.770  0.00  0.00    +0.000 OA
ATOM      9  C   UNL     1       2.507   3.193  19.082  0.00  0.00    +0.000 A 
ATOM     10  C   UNL     1       1.136   3.443  19.244  0.00  0.00    +0.000 A 
ATOM     11  C   UNL     1       0.534   3.309  20.496  0.00  0.00    +0.000 A 
ATOM     12  C   UNL     1       1.296   2.913  21.591  0.00  0.00    +0.000 A 
ATOM     13  C   UNL     1       2.655   2.642  21.433  0.00  0.00    +0.000 A 
ATOM     14  C   UNL     1       3.269   2.769  20.175  0.00  0.00    +0.000 A 
ATOM     15  C   UNL     1       4.720   2.461  20.007  0.00  0.00    +0.000 C 
ATOM     16  O   UNL     1       5.410   3.679  19.733  0.00  0.00    +0.000 OA
ENDROOT
BRANCH   1  17
ATOM     17  C   UNL     1       6.243   5.070  14.268  0.00  0.00    +0.000 C 
BRANCH  17  18
ATOM     18  C   UNL     1       7.734   5.269  13.937  0.00  0.00    +0.000 C 
BRANCH  18  20
ATOM     19  C   UNL     1       7.042   4.213  11.891  0.00  0.00    +0.000 C 
ATOM     20  N   UNL     1       8.067   5.060  12.510  0.00  0.00    +0.000 NA
BRANCH  20  21
ATOM     21  O   UNL     1       7.901   6.355  11.860  0.00  0.00    +0.000 OA
ATOM     22  H   UNL     1       8.739   6.434  11.362  0.00  0.00    +0.000 HD
ENDBRANCH  20  21
ENDBRANCH  18  20
ENDBRANCH  17  18
ENDBRANCH   1  17
TORSDOF 4
ENDMDL
MODEL 5
REMARK VINA RESULT:      -7.1      3.675      4.953
REMARK  Name = 
REMARK  5 active torsions:
REMARK  status: ('A' for Active; 'I' for Inactive)
REMARK    1  A    between atoms: C_1  and  N_2
REMARK    2  A    between atoms: N_2  and  O_3
REMARK    3  A    between atoms: N_2  and  C_4
REMARK    4  A    between atoms: C_4  and  C_5
REMARK    5  A    between atoms: C_5  and  C_6
REMARK                            x       y       z     vdW  Elec       q    Type
REMARK                         _______ _______ _______ _____ _____    ______ ____
ROOT
ATOM      1  C   UNL     1       6.846   7.055  17.369  0.00  0.00    +0.000 A 
ATOM      2  C   UNL     1       7.375   5.856  16.881  0.00  0.00    +0.000 A 
ATOM      3  C   UNL     1       6.596   4.697  16.872  0.00  0.00    +0.000 A 
ATOM      4  C   UNL     1       5.276   4.706  17.344  0.00  0.00    +0.000 A 
ATOM      5  C   UNL     1       4.737   5.880  17.881  0.00  0.00    +0.000 A 
ATOM      6  C   UNL     1       5.535   7.045  17.874  0.00  0.00    +0.000 A 
ATOM      7  C   UNL     1       3.392   6.010  18.519  0.00  0.00    +0.000 C 
ATOM      8  O   UNL     1       2.977   7.132  18.815  0.00  0.00    +0.000 OA
ATOM      9  C   UNL     1       2.524   4.857  18.866  0.00  0.00    +0.000 A 
ATOM     10  C   UNL     1       1.712   4.974  20.004  0.00  0.00    +0.000 A 
ATOM     11  C   UNL     1       0.867   3.930  20.382  0.00  0.00    +0.000 A 
ATOM     12  C   UNL     1       0.820   2.767  19.619  0.00  0.00    +0.000 A 
ATOM     13  C   UNL     1       1.608   2.653  18.474  0.00  0.00    +0.000 A 
ATOM     14  C   UNL     1       2.458   3.701  18.083  0.00  0.00    +0.000 A 
ATOM     15  C   UNL     1       3.288   3.581  16.847  0.00  0.00    +0.000 C 
ATOM     16  O   UNL     1       4.659   3.493  17.231  0.00  0.00    +0.000 OA
ENDROOT
BRANCH   1  17
ATOM     17  C   UNL     1       7.666   8.333  17.403  0.00  0.00    +0.000 C 
BRANCH  17  18
ATOM     18  C   UNL     1       8.565   8.443  18.648  0.00  0.00    +0.000 C 
BRANCH  18  20
ATOM     19  C   UNL     1       8.553  10.763  18.022  0.00  0.00    +0.000 C 
ATOM     20  N   UNL     1       9.289   9.729  18.757  0.00  0.00    +0.000 NA
BRANCH  20  21
ATOM     21  O   UNL     1       9.184  10.138  20.152  0.00  0.00    +0.000 OA
ATOM     22  H   UNL     1       9.567  11.037  20.123  0.00  0.00    +0.000 HD
ENDBRANCH  20  21
ENDBRANCH  18  20
ENDBRANCH  17  18
ENDBRANCH   1  17
TORSDOF 4
ENDMDL
MODEL 6
REMARK VINA RESULT:      -6.9      4.689      7.730
REMARK  Name = 
REMARK  5 active torsions:
REMARK  status: ('A' for Active; 'I' for Inactive)
REMARK    1  A    between atoms: C_1  and  N_2
REMARK    2  A    between atoms: N_2  and  O_3
REMARK    3  A    between atoms: N_2  and  C_4
REMARK    4  A    between atoms: C_4  and  C_5
REMARK    5  A    between atoms: C_5  and  C_6
REMARK                            x       y       z     vdW  Elec       q    Type
REMARK                         _______ _______ _______ _____ _____    ______ ____
ROOT
ATOM      1  C   UNL     1       1.617   7.011  20.421  0.00  0.00    +0.000 A 
ATOM      2  C   UNL     1       1.475   5.699  20.884  0.00  0.00    +0.000 A 
ATOM      3  C   UNL     1       2.254   4.676  20.341  0.00  0.00    +0.000 A 
ATOM      4  C   UNL     1       3.190   4.933  19.330  0.00  0.00    +0.000 A 
ATOM      5  C   UNL     1       3.319   6.228  18.816  0.00  0.00    +0.000 A 
ATOM      6  C   UNL     1       2.531   7.254  19.382  0.00  0.00    +0.000 A 
ATOM      7  C   UNL     1       4.190   6.627  17.669  0.00  0.00    +0.000 C 
ATOM      8  O   UNL     1       4.327   7.825  17.412  0.00  0.00    +0.000 OA
ATOM      9  C   UNL     1       4.878   5.663  16.775  0.00  0.00    +0.000 A 
ATOM     10  C   UNL     1       5.046   6.027  15.431  0.00  0.00    +0.000 A 
ATOM     11  C   UNL     1       5.691   5.170  14.539  0.00  0.00    +0.000 A 
ATOM     12  C   UNL     1       6.183   3.948  14.987  0.00  0.00    +0.000 A 
ATOM     13  C   UNL     1       6.039   3.588  16.327  0.00  0.00    +0.000 A 
ATOM     14  C   UNL     1       5.396   4.448  17.233  0.00  0.00    +0.000 A 
ATOM     15  C   UNL     1       5.259   4.066  18.671  0.00  0.00    +0.000 C 
ATOM     16  O   UNL     1       3.880   3.821  18.943  0.00  0.00    +0.000 OA
ENDROOT
BRANCH   1  17
ATOM     17  C   UNL     1       0.781   8.150  20.981  0.00  0.00    +0.000 C 
BRANCH  17  18
ATOM     18  C   UNL     1       1.466   8.889  22.145  0.00  0.00    +0.000 C 
BRANCH  18  20
ATOM     19  C   UNL     1      -0.435  10.309  21.758  0.00  0.00    +0.000 C 
ATOM     20  N   UNL     1       0.713  10.065  22.637  0.00  0.00    +0.000 NA
BRANCH  20  21
ATOM     21  O   UNL     1       0.114   9.662  23.904  0.00  0.00    +0.000 OA
ATOM     22  H   UNL     1       0.443   8.746  23.995  0.00  0.00    +0.000 HD
ENDBRANCH  20  21
ENDBRANCH  18  20
ENDBRANCH  17  18
ENDBRANCH   1  17
TORSDOF 4
ENDMDL
MODEL 7
REMARK VINA RESULT:      -6.8      4.463      5.674
REMARK  Name = 
REMARK  5 active torsions:
REMARK  status: ('A' for Active; 'I' for Inactive)
REMARK    1  A    between atoms: C_1  and  N_2
REMARK    2  A    between atoms: N_2  and  O_3
REMARK    3  A    between atoms: N_2  and  C_4
REMARK    4  A    between atoms: C_4  and  C_5
REMARK    5  A    between atoms: C_5  and  C_6
REMARK                            x       y       z     vdW  Elec       q    Type
REMARK                         _______ _______ _______ _____ _____    ______ ____
ROOT
ATOM      1  C   UNL     1       7.718   8.083  18.001  0.00  0.00    +0.000 A 
ATOM      2  C   UNL     1       8.432   7.123  18.724  0.00  0.00    +0.000 A 
ATOM      3  C   UNL     1       7.888   5.854  18.934  0.00  0.00    +0.000 A 
ATOM      4  C   UNL     1       6.626   5.512  18.428  0.00  0.00    +0.000 A 
ATOM      5  C   UNL     1       5.870   6.468  17.741  0.00  0.00    +0.000 A 
ATOM      6  C   UNL     1       6.438   7.744  17.530  0.00  0.00    +0.000 A 
ATOM      7  C   UNL     1       4.472   6.282  17.245  0.00  0.00    +0.000 C 
ATOM      8  O   UNL     1       3.974   7.149  16.524  0.00  0.00    +0.000 OA
ATOM      9  C   UNL     1       3.613   5.127  17.602  0.00  0.00    +0.000 A 
ATOM     10  C   UNL     1       2.232   5.352  17.710  0.00  0.00    +0.000 A 
ATOM     11  C   UNL     1       1.366   4.308  18.035  0.00  0.00    +0.000 A 
ATOM     12  C   UNL     1       1.873   3.029  18.244  0.00  0.00    +0.000 A 
ATOM     13  C   UNL     1       3.242   2.793  18.118  0.00  0.00    +0.000 A 
ATOM     14  C   UNL     1       4.121   3.837  17.785  0.00  0.00    +0.000 A 
ATOM     15  C   UNL     1       5.583   3.576  17.634  0.00  0.00    +0.000 C 
ATOM     16  O   UNL     1       6.269   4.224  18.703  0.00  0.00    +0.000 OA
ENDROOT
BRANCH   1  17
ATOM     17  C   UNL     1       8.272   9.477  17.761  0.00  0.00    +0.000 C 
BRANCH  17  18
ATOM     18  C   UNL     1       9.082  10.020  18.952  0.00  0.00    +0.000 C 
BRANCH  18  20
ATOM     19  C   UNL     1      10.706  11.599  19.756  0.00  0.00    +0.000 C 
ATOM     20  N   UNL     1       9.734  11.323  18.693  0.00  0.00    +0.000 NA
BRANCH  20  21
ATOM     21  O   UNL     1      10.550  11.140  17.499  0.00  0.00    +0.000 OA
ATOM     22  H   UNL     1      10.184  10.310  17.136  0.00  0.00    +0.000 HD
ENDBRANCH  20  21
ENDBRANCH  18  20
ENDBRANCH  17  18
ENDBRANCH   1  17
TORSDOF 4
ENDMDL
MODEL 8
REMARK VINA RESULT:      -6.8      6.698      8.216
REMARK  Name = 
REMARK  5 active torsions:
REMARK  status: ('A' for Active; 'I' for Inactive)
REMARK    1  A    between atoms: C_1  and  N_2
REMARK    2  A    between atoms: N_2  and  O_3
REMARK    3  A    between atoms: N_2  and  C_4
REMARK    4  A    between atoms: C_4  and  C_5
REMARK    5  A    between atoms: C_5  and  C_6
REMARK                            x       y       z     vdW  Elec       q    Type
REMARK                         _______ _______ _______ _____ _____    ______ ____
ROOT
ATOM      1  C   UNL     1       2.285   7.157  19.375  0.00  0.00    +0.000 A 
ATOM      2  C   UNL     1       2.140   7.778  18.131  0.00  0.00    +0.000 A 
ATOM      3  C   UNL     1       1.571   9.051  18.044  0.00  0.00    +0.000 A 
ATOM      4  C   UNL     1       1.137   9.732  19.190  0.00  0.00    +0.000 A 
ATOM      5  C   UNL     1       1.227   9.114  20.442  0.00  0.00    +0.000 A 
ATOM      6  C   UNL     1       1.813   7.831  20.514  0.00  0.00    +0.000 A 
ATOM      7  C   UNL     1       0.707   9.671  21.728  0.00  0.00    +0.000 C 
ATOM      8  O   UNL     1       0.984   9.097  22.783  0.00  0.00    +0.000 OA
ATOM      9  C   UNL     1      -0.172  10.863  21.820  0.00  0.00    +0.000 A 
ATOM     10  C   UNL     1      -1.126  10.890  22.849  0.00  0.00    +0.000 A 
ATOM     11  C   UNL     1      -1.978  11.984  22.997  0.00  0.00    +0.000 A 
ATOM     12  C   UNL     1      -1.876  13.064  22.124  0.00  0.00    +0.000 A 
ATOM     13  C   UNL     1      -0.916  13.053  21.113  0.00  0.00    +0.000 A 
ATOM     14  C   UNL     1      -0.049  11.958  20.960  0.00  0.00    +0.000 A 
ATOM     15  C   UNL     1       0.989  11.959  19.886  0.00  0.00    +0.000 C 
ATOM     16  O   UNL     1       0.636  10.972  18.918  0.00  0.00    +0.000 OA
ENDROOT
BRANCH   1  17
ATOM     17  C   UNL     1       2.890   5.769  19.509  0.00  0.00    +0.000 C 
BRANCH  17  18
ATOM     18  C   UNL     1       1.835   4.649  19.544  0.00  0.00    +0.000 C 
BRANCH  18  20
ATOM     19  C   UNL     1       1.233   2.454  18.773  0.00  0.00    +0.000 C 
ATOM     20  N   UNL     1       1.937   3.691  18.420  0.00  0.00    +0.000 NA
BRANCH  20  21
ATOM     21  O   UNL     1       1.147   4.255  17.332  0.00  0.00    +0.000 OA
ATOM     22  H   UNL     1       1.690   4.022  16.553  0.00  0.00    +0.000 HD
ENDBRANCH  20  21
ENDBRANCH  18  20
ENDBRANCH  17  18
ENDBRANCH   1  17
TORSDOF 4
ENDMDL
MODEL 9
REMARK VINA RESULT:      -6.8      6.844      8.501
REMARK  Name = 
REMARK  5 active torsions:
REMARK  status: ('A' for Active; 'I' for Inactive)
REMARK    1  A    between atoms: C_1  and  N_2
REMARK    2  A    between atoms: N_2  and  O_3
REMARK    3  A    between atoms: N_2  and  C_4
REMARK    4  A    between atoms: C_4  and  C_5
REMARK    5  A    between atoms: C_5  and  C_6
REMARK                            x       y       z     vdW  Elec       q    Type
REMARK                         _______ _______ _______ _____ _____    ______ ____
ROOT
ATOM      1  C   UNL     1       2.265   7.240  19.315  0.00  0.00    +0.000 A 
ATOM      2  C   UNL     1       2.103   7.892  18.089  0.00  0.00    +0.000 A 
ATOM      3  C   UNL     1       1.519   9.160  18.040  0.00  0.00    +0.000 A 
ATOM      4  C   UNL     1       1.087   9.806  19.207  0.00  0.00    +0.000 A 
ATOM      5  C   UNL     1       1.195   9.157  20.441  0.00  0.00    +0.000 A 
ATOM      6  C   UNL     1       1.796   7.879  20.474  0.00  0.00    +0.000 A 
ATOM      7  C   UNL     1       0.679   9.673  21.746  0.00  0.00    +0.000 C 
ATOM      8  O   UNL     1       0.971   9.074  22.783  0.00  0.00    +0.000 OA
ATOM      9  C   UNL     1      -0.212  10.852  21.877  0.00  0.00    +0.000 A 
ATOM     10  C   UNL     1      -1.158  10.841  22.913  0.00  0.00    +0.000 A 
ATOM     11  C   UNL     1      -2.022  11.921  23.097  0.00  0.00    +0.000 A 
ATOM     12  C   UNL     1      -1.938  13.024  22.253  0.00  0.00    +0.000 A 
ATOM     13  C   UNL     1      -0.987  13.052  21.234  0.00  0.00    +0.000 A 
ATOM     14  C   UNL     1      -0.109  11.971  21.045  0.00  0.00    +0.000 A 
ATOM     15  C   UNL     1       0.920  12.012  19.963  0.00  0.00    +0.000 C 
ATOM     16  O   UNL     1       0.570  11.047  18.972  0.00  0.00    +0.000 OA
ENDROOT
BRANCH   1  17
ATOM     17  C   UNL     1       2.887   5.857  19.406  0.00  0.00    +0.000 C 
BRANCH  17  18
ATOM     18  C   UNL     1       1.913   4.728  19.023  0.00  0.00    +0.000 C 
BRANCH  18  20
ATOM     19  C   UNL     1       2.218   4.125  21.329  0.00  0.00    +0.000 C 
ATOM     20  N   UNL     1       1.863   3.618  20.000  0.00  0.00    +0.000 NA
BRANCH  20  21
ATOM     21  O   UNL     1       0.458   3.246  20.122  0.00  0.00    +0.000 OA
ATOM     22  H   UNL     1       0.442   2.384  19.661  0.00  0.00    +0.000 HD
ENDBRANCH  20  21
ENDBRANCH  18  20
ENDBRANCH  17  18
ENDBRANCH   1  17
TORSDOF 4
ENDMDL
