MODEL 1
REMARK VINA RESULT:      -7.8      0.000      0.000
REMARK  Name = 
REMARK  3 active torsions:
REMARK  status: ('A' for Active; 'I' for Inactive)
REMARK    1  A    between atoms: CA_7  and  CB_8
REMARK    2  A    between atoms: CB_8  and  CG_9
REMARK    3  A    between atoms: CZ_12  and  OH_13
REMARK                            x       y       z     vdW  Elec       q    Type
REMARK                         _______ _______ _______ _____ _____    ______ ____
ROOT
ATOM      1  O   GLY A   1       7.387   5.372  20.037  0.00  0.00    +0.000 OA
ATOM      2  C   GLY A   1       7.150   5.431  18.835  0.00  0.00    +0.000 C 
ATOM      3  CA  GLY A   1       7.470   6.645  17.961  0.00  0.00    +0.000 C 
ATOM      4  N   GLY A   1       7.536   6.274  16.557  0.00  0.00    +0.000 N 
ATOM      5  C   TYR A   2       6.578   5.459  15.990  0.00  0.00    +0.000 C 
ATOM      6  O   TYR A   2       6.413   5.439  14.774  0.00  0.00    +0.000 OA
ATOM      7  CA  TYR A   2       5.666   4.716  16.985  0.00  0.00    +0.000 C 
ATOM      8  N   TYR A   2       6.440   4.436  18.200  0.00  0.00    +0.000 N 
ATOM      9  H   GLY A   1       8.046   6.856  15.904  0.00  0.00    +0.000 HD
ATOM     10  H   TYR A   2       6.148   3.669  18.795  0.00  0.00    +0.000 HD
ENDROOT
BRANCH   7  11
ATOM     11  CB  TYR A   2       4.391   5.559  17.215  0.00  0.00    +0.000 C 
BRANCH  11  12
ATOM     12  CG  TYR A   2       3.324   4.898  18.060  0.00  0.00    +0.000 A 
ATOM     13  CD1 TYR A   2       2.530   3.860  17.548  0.00  0.00    +0.000 A 
ATOM     14  CE1 TYR A   2       1.521   3.278  18.316  0.00  0.00    +0.000 A 
ATOM     15  CZ  TYR A   2       1.331   3.702  19.624  0.00  0.00    +0.000 A 
ATOM     16  CE2 TYR A   2       2.148   4.680  20.175  0.00  0.00    +0.000 A 
ATOM     17  CD2 TYR A   2       3.138   5.283  19.395  0.00  0.00    +0.000 A 
BRANCH  15  18
ATOM     18  OH  TYR A   2       0.349   3.169  20.402  0.00  0.00    +0.000 OA
ATOM     19  HH  TYR A   2       0.315   2.211  20.242  0.00  0.00    +0.000 HD
ENDBRANCH  15  18
ENDBRANCH  11  12
ENDBRANCH   7  11
TORSDOF 3
ENDMDL
MODEL 2
REMARK VINA RESULT:      -7.7      1.050      1.457
REMARK  Name = 
REMARK  3 active torsions:
REMARK  status: ('A' for Active; 'I' for Inactive)
REMARK    1  A    between atoms: CA_7  and  CB_8
REMARK    2  A    between atoms: CB_8  and  CG_9
REMARK    3  A    between atoms: CZ_12  and  OH_13
REMARK                            x       y       z     vdW  Elec       q    Type
REMARK                         _______ _______ _______ _____ _____    ______ ____
ROOT
ATOM      1  O   GLY A   1       7.558   5.481  20.102  0.00  0.00    +0.000 OA
ATOM      2  C   GLY A   1       7.370   5.515  18.891  0.00  0.00    +0.000 C 
ATOM      3  CA  GLY A   1       7.541   6.773  18.037  0.00  0.00    +0.000 C 
ATOM      4  N   GLY A   1       7.726   6.430  16.636  0.00  0.00    +0.000 N 
ATOM      5  C   TYR A   2       6.931   5.485  16.023  0.00  0.00    +0.000 C 
ATOM      6  O   TYR A   2       6.825   5.453  14.800  0.00  0.00    +0.000 OA
ATOM      7  CA  TYR A   2       6.098   4.602  16.972  0.00  0.00    +0.000 C 
ATOM      8  N   TYR A   2       6.849   4.430  18.220  0.00  0.00    +0.000 N 
ATOM      9  H   GLY A   1       8.170   7.089  16.009  0.00  0.00    +0.000 HD
ATOM     10  H   TYR A   2       6.650   3.623  18.799  0.00  0.00    +0.000 HD
ENDROOT
BRANCH   7  11
ATOM     11  CB  TYR A   2       4.700   5.239  17.144  0.00  0.00    +0.000 C 
BRANCH  11  12
ATOM     12  CG  TYR A   2       3.601   4.283  17.555  0.00  0.00    +0.000 A 
ATOM     13  CD1 TYR A   2       2.338   4.753  17.946  0.00  0.00    +0.000 A 
ATOM     14  CE1 TYR A   2       1.338   3.872  18.361  0.00  0.00    +0.000 A 
ATOM     15  CZ  TYR A   2       1.584   2.506  18.342  0.00  0.00    +0.000 A 
ATOM     16  CE2 TYR A   2       2.802   2.013  17.896  0.00  0.00    +0.000 A 
ATOM     17  CD2 TYR A   2       3.813   2.899  17.509  0.00  0.00    +0.000 A 
BRANCH  15  18
ATOM     18  OH  TYR A   2       0.640   1.614  18.752  0.00  0.00    +0.000 OA
ATOM     19  HH  TYR A   2      -0.138   2.109  19.061  0.00  0.00    +0.000 HD
ENDBRANCH  15  18
ENDBRANCH  11  12
ENDBRANCH   7  11
TORSDOF 3
ENDMDL
MODEL 3
REMARK VINA RESULT:      -7.7      0.126      1.212
REMARK  Name = 
REMARK  3 active torsions:
REMARK  status: ('A' for Active; 'I' for Inactive)
REMARK    1  A    between atoms: CA_7  and  CB_8
REMARK    2  A    between atoms: CB_8  and  CG_9
REMARK    3  A    between atoms: CZ_12  and  OH_13
REMARK                            x       y       z     vdW  Elec       q    Type
REMARK                         _______ _______ _______ _____ _____    ______ ____
ROOT
ATOM      1  O   GLY A   1       7.458   5.392  20.088  0.00  0.00    +0.000 OA
ATOM      2  C   GLY A   1       7.193   5.458  18.893  0.00  0.00    +0.000 C 
ATOM      3  CA  GLY A   1       7.527   6.664  18.012  0.00  0.00    +0.000 C 
ATOM      4  N   GLY A   1       7.547   6.292  16.606  0.00  0.00    +0.000 N 
ATOM      5  C   TYR A   2       6.553   5.505  16.063  0.00  0.00    +0.000 C 
ATOM      6  O   TYR A   2       6.357   5.491  14.852  0.00  0.00    +0.000 OA
ATOM      7  CA  TYR A   2       5.644   4.788  17.080  0.00  0.00    +0.000 C 
ATOM      8  N   TYR A   2       6.439   4.485  18.275  0.00  0.00    +0.000 N 
ATOM      9  H   GLY A   1       8.057   6.859  15.940  0.00  0.00    +0.000 HD
ATOM     10  H   TYR A   2       6.140   3.727  18.877  0.00  0.00    +0.000 HD
ENDROOT
BRANCH   7  11
ATOM     11  CB  TYR A   2       4.400   5.667  17.341  0.00  0.00    +0.000 C 
BRANCH  11  12
ATOM     12  CG  TYR A   2       3.314   5.018  18.171  0.00  0.00    +0.000 A 
ATOM     13  CD1 TYR A   2       3.069   5.423  19.492  0.00  0.00    +0.000 A 
ATOM     14  CE1 TYR A   2       2.093   4.797  20.268  0.00  0.00    +0.000 A 
ATOM     15  CZ  TYR A   2       1.320   3.789  19.708  0.00  0.00    +0.000 A 
ATOM     16  CE2 TYR A   2       1.498   3.417  18.382  0.00  0.00    +0.000 A 
ATOM     17  CD2 TYR A   2       2.496   4.025  17.615  0.00  0.00    +0.000 A 
BRANCH  15  18
ATOM     18  OH  TYR A   2       0.367   3.144  20.435  0.00  0.00    +0.000 OA
ATOM     19  HH  TYR A   2       0.806   2.501  21.017  0.00  0.00    +0.000 HD
ENDBRANCH  15  18
ENDBRANCH  11  12
ENDBRANCH   7  11
TORSDOF 3
ENDMDL
MODEL 4
REMARK VINA RESULT:      -7.5      1.153      1.301
REMARK  Name = 
REMARK  3 active torsions:
REMARK  status: ('A' for Active; 'I' for Inactive)
REMARK    1  A    between atoms: CA_7  and  CB_8
REMARK    2  A    between atoms: CB_8  and  CG_9
REMARK    3  A    between atoms: CZ_12  and  OH_13
REMARK                            x       y       z     vdW  Elec       q    Type
REMARK                         _______ _______ _______ _____ _____    ______ ____
ROOT
ATOM      1  O   GLY A   1       8.256   5.243  19.862  0.00  0.00    +0.000 OA
ATOM      2  C   GLY A   1       7.751   5.407  18.757  0.00  0.00    +0.000 C 
ATOM      3  CA  GLY A   1       7.719   6.749  18.024  0.00  0.00    +0.000 C 
ATOM      4  N   GLY A   1       7.512   6.559  16.597  0.00  0.00    +0.000 N 
ATOM      5  C   TYR A   2       6.557   5.682  16.126  0.00  0.00    +0.000 C 
ATOM      6  O   TYR A   2       6.127   5.781  14.981  0.00  0.00    +0.000 OA
ATOM      7  CA  TYR A   2       5.987   4.701  17.168  0.00  0.00    +0.000 C 
ATOM      8  N   TYR A   2       7.041   4.398  18.142  0.00  0.00    +0.000 N 
ATOM      9  H   GLY A   1       7.789   7.283  15.946  0.00  0.00    +0.000 HD
ATOM     10  H   TYR A   2       6.984   3.532  18.666  0.00  0.00    +0.000 HD
ENDROOT
BRANCH   7  11
ATOM     11  CB  TYR A   2       4.704   5.311  17.776  0.00  0.00    +0.000 C 
BRANCH  11  12
ATOM     12  CG  TYR A   2       3.560   4.341  17.977  0.00  0.00    +0.000 A 
ATOM     13  CD1 TYR A   2       3.797   2.990  18.276  0.00  0.00    +0.000 A 
ATOM     14  CE1 TYR A   2       2.743   2.088  18.423  0.00  0.00    +0.000 A 
ATOM     15  CZ  TYR A   2       1.436   2.546  18.317  0.00  0.00    +0.000 A 
ATOM     16  CE2 TYR A   2       1.175   3.890  18.089  0.00  0.00    +0.000 A 
ATOM     17  CD2 TYR A   2       2.233   4.786  17.913  0.00  0.00    +0.000 A 
BRANCH  15  18
ATOM     18  OH  TYR A   2       0.379   1.697  18.441  0.00  0.00    +0.000 OA
ATOM     19  HH  TYR A   2      -0.439   2.201  18.296  0.00  0.00    +0.000 HD
ENDBRANCH  15  18
ENDBRANCH  11  12
ENDBRANCH   7  11
TORSDOF 3
ENDMDL
MODEL 5
REMARK VINA RESULT:      -7.1      1.195      1.238
REMARK  Name = 
REMARK  3 active torsions:
REMARK  status: ('A' for Active; 'I' for Inactive)
REMARK    1  A    between atoms: CA_7  and  CB_8
REMARK    2  A    between atoms: CB_8  and  CG_9
REMARK    3  A    between atoms: CZ_12  and  OH_13
REMARK                            x       y       z     vdW  Elec       q    Type
REMARK                         _______ _______ _______ _____ _____    ______ ____
ROOT
ATOM      1  O   GLY A   1       8.095   5.405  19.537  0.00  0.00    +0.000 OA
ATOM      2  C   GLY A   1       7.503   5.349  18.465  0.00  0.00    +0.000 C 
ATOM      3  CA  GLY A   1       7.441   6.503  17.463  0.00  0.00    +0.000 C 
ATOM      4  N   GLY A   1       7.111   6.020  16.131  0.00  0.00    +0.000 N 
ATOM      5  C   TYR A   2       6.100   5.103  15.937  0.00  0.00    +0.000 C 
ATOM      6  O   TYR A   2       5.578   4.972  14.834  0.00  0.00    +0.000 OA
ATOM      7  CA  TYR A   2       5.596   4.391  17.207  0.00  0.00    +0.000 C 
ATOM      8  N   TYR A   2       6.721   4.262  18.140  0.00  0.00    +0.000 N 
ATOM      9  H   GLY A   1       7.349   6.576  15.319  0.00  0.00    +0.000 HD
ATOM     10  H   TYR A   2       6.688   3.532  18.842  0.00  0.00    +0.000 HD
ENDROOT
BRANCH   7  11
ATOM     11  CB  TYR A   2       4.383   5.170  17.765  0.00  0.00    +0.000 C 
BRANCH  11  12
ATOM     12  CG  TYR A   2       3.674   4.512  18.929  0.00  0.00    +0.000 A 
ATOM     13  CD1 TYR A   2       3.747   3.125  19.134  0.00  0.00    +0.000 A 
ATOM     14  CE1 TYR A   2       3.061   2.516  20.185  0.00  0.00    +0.000 A 
ATOM     15  CZ  TYR A   2       2.332   3.300  21.069  0.00  0.00    +0.000 A 
ATOM     16  CE2 TYR A   2       2.300   4.681  20.926  0.00  0.00    +0.000 A 
ATOM     17  CD2 TYR A   2       2.963   5.287  19.855  0.00  0.00    +0.000 A 
BRANCH  15  18
ATOM     18  OH  TYR A   2       1.638   2.743  22.099  0.00  0.00    +0.000 OA
ATOM     19  HH  TYR A   2       2.240   2.640  22.855  0.00  0.00    +0.000 HD
ENDBRANCH  15  18
ENDBRANCH  11  12
ENDBRANCH   7  11
TORSDOF 3
ENDMDL
MODEL 6
REMARK VINA RESULT:      -6.9      2.426      5.932
REMARK  Name = 
REMARK  3 active torsions:
REMARK  status: ('A' for Active; 'I' for Inactive)
REMARK    1  A    between atoms: CA_7  and  CB_8
REMARK    2  A    between atoms: CB_8  and  CG_9
REMARK    3  A    between atoms: CZ_12  and  OH_13
REMARK                            x       y       z     vdW  Elec       q    Type
REMARK                         _______ _______ _______ _____ _____    ______ ____
ROOT
ATOM      1  O   GLY A   1       2.203   2.179  17.081  0.00  0.00    +0.000 OA
ATOM      2  C   GLY A   1       2.165   2.470  18.272  0.00  0.00    +0.000 C 
ATOM      3  CA  GLY A   1       0.902   2.943  18.994  0.00  0.00    +0.000 C 
ATOM      4  N   GLY A   1       1.021   2.751  20.431  0.00  0.00    +0.000 N 
ATOM      5  C   TYR A   2       2.172   3.105  21.103  0.00  0.00    +0.000 C 
ATOM      6  O   TYR A   2       2.156   3.294  22.316  0.00  0.00    +0.000 OA
ATOM      7  CA  TYR A   2       3.401   3.380  20.215  0.00  0.00    +0.000 C 
ATOM      8  N   TYR A   2       3.314   2.521  19.029  0.00  0.00    +0.000 N 
ATOM      9  H   GLY A   1       0.188   2.698  21.004  0.00  0.00    +0.000 HD
ATOM     10  H   TYR A   2       4.167   2.295  18.531  0.00  0.00    +0.000 HD
ENDROOT
BRANCH   7  11
ATOM     11  CB  TYR A   2       3.465   4.894  19.911  0.00  0.00    +0.000 C 
BRANCH  11  12
ATOM     12  CG  TYR A   2       4.532   5.308  18.921  0.00  0.00    +0.000 A 
ATOM     13  CD1 TYR A   2       4.193   5.789  17.646  0.00  0.00    +0.000 A 
ATOM     14  CE1 TYR A   2       5.178   6.135  16.721  0.00  0.00    +0.000 A 
ATOM     15  CZ  TYR A   2       6.515   6.045  17.084  0.00  0.00    +0.000 A 
ATOM     16  CE2 TYR A   2       6.874   5.637  18.361  0.00  0.00    +0.000 A 
ATOM     17  CD2 TYR A   2       5.886   5.262  19.277  0.00  0.00    +0.000 A 
BRANCH  15  18
ATOM     18  OH  TYR A   2       7.507   6.359  16.206  0.00  0.00    +0.000 OA
ATOM     19  HH  TYR A   2       7.798   7.269  16.385  0.00  0.00    +0.000 HD
ENDBRANCH  15  18
ENDBRANCH  11  12
ENDBRANCH   7  11
TORSDOF 3
ENDMDL
MODEL 7
REMARK VINA RESULT:      -6.9      2.578      5.865
REMARK  Name = 
REMARK  3 active torsions:
REMARK  status: ('A' for Active; 'I' for Inactive)
REMARK    1  A    between atoms: CA_7  and  CB_8
REMARK    2  A    between atoms: CB_8  and  CG_9
REMARK    3  A    between atoms: CZ_12  and  OH_13
REMARK                            x       y       z     vdW  Elec       q    Type
REMARK                         _______ _______ _______ _____ _____    ______ ____
ROOT
ATOM      1  O   GLY A   1       0.072   2.121  18.893  0.00  0.00    +0.000 OA
ATOM      2  C   GLY A   1       1.258   2.343  19.111  0.00  0.00    +0.000 C 
ATOM      3  CA  GLY A   1       1.765   3.205  20.270  0.00  0.00    +0.000 C 
ATOM      4  N   GLY A   1       3.156   2.908  20.569  0.00  0.00    +0.000 N 
ATOM      5  C   TYR A   2       4.090   2.784  19.562  0.00  0.00    +0.000 C 
ATOM      6  O   TYR A   2       5.288   2.902  19.800  0.00  0.00    +0.000 OA
ATOM      7  CA  TYR A   2       3.516   2.640  18.139  0.00  0.00    +0.000 C 
ATOM      8  N   TYR A   2       2.233   1.934  18.229  0.00  0.00    +0.000 N 
ATOM      9  H   GLY A   1       3.536   3.131  21.481  0.00  0.00    +0.000 HD
ATOM     10  H   TYR A   2       1.893   1.439  17.412  0.00  0.00    +0.000 HD
ENDROOT
BRANCH   7  11
ATOM     11  CB  TYR A   2       3.437   4.040  17.491  0.00  0.00    +0.000 C 
BRANCH  11  12
ATOM     12  CG  TYR A   2       4.637   4.435  16.657  0.00  0.00    +0.000 A 
ATOM     13  CD1 TYR A   2       4.941   3.767  15.461  0.00  0.00    +0.000 A 
ATOM     14  CE1 TYR A   2       6.069   4.106  14.713  0.00  0.00    +0.000 A 
ATOM     15  CZ  TYR A   2       6.878   5.153  15.137  0.00  0.00    +0.000 A 
ATOM     16  CE2 TYR A   2       6.560   5.872  16.281  0.00  0.00    +0.000 A 
ATOM     17  CD2 TYR A   2       5.446   5.511  17.045  0.00  0.00    +0.000 A 
BRANCH  15  18
ATOM     18  OH  TYR A   2       7.995   5.506  14.444  0.00  0.00    +0.000 OA
ATOM     19  HH  TYR A   2       8.457   6.202  14.940  0.00  0.00    +0.000 HD
ENDBRANCH  15  18
ENDBRANCH  11  12
ENDBRANCH   7  11
TORSDOF 3
ENDMDL
MODEL 8
REMARK VINA RESULT:      -6.9      2.753      5.739
REMARK  Name = 
REMARK  3 active torsions:
REMARK  status: ('A' for Active; 'I' for Inactive)
REMARK    1  A    between atoms: CA_7  and  CB_8
REMARK    2  A    between atoms: CB_8  and  CG_9
REMARK    3  A    between atoms: CZ_12  and  OH_13
REMARK                            x       y       z     vdW  Elec       q    Type
REMARK                         _______ _______ _______ _____ _____    ______ ____
ROOT
ATOM      1  O   GLY A   1       2.267   3.250  22.454  0.00  0.00    +0.000 OA
ATOM      2  C   GLY A   1       2.039   3.435  21.263  0.00  0.00    +0.000 C 
ATOM      3  CA  GLY A   1       1.574   2.339  20.303  0.00  0.00    +0.000 C 
ATOM      4  N   GLY A   1       0.936   2.911  19.129  0.00  0.00    +0.000 N 
ATOM      5  C   TYR A   2       1.495   3.984  18.466  0.00  0.00    +0.000 C 
ATOM      6  O   TYR A   2       1.186   4.233  17.305  0.00  0.00    +0.000 OA
ATOM      7  CA  TYR A   2       2.610   4.725  19.228  0.00  0.00    +0.000 C 
ATOM      8  N   TYR A   2       2.322   4.643  20.664  0.00  0.00    +0.000 N 
ATOM      9  H   GLY A   1       0.298   2.351  18.577  0.00  0.00    +0.000 HD
ATOM     10  H   TYR A   2       2.715   5.346  21.279  0.00  0.00    +0.000 HD
ENDROOT
BRANCH   7  11
ATOM     11  CB  TYR A   2       3.975   4.133  18.810  0.00  0.00    +0.000 C 
BRANCH  11  12
ATOM     12  CG  TYR A   2       4.999   5.143  18.337  0.00  0.00    +0.000 A 
ATOM     13  CD1 TYR A   2       4.688   6.078  17.337  0.00  0.00    +0.000 A 
ATOM     14  CE1 TYR A   2       5.645   6.983  16.875  0.00  0.00    +0.000 A 
ATOM     15  CZ  TYR A   2       6.910   6.987  17.446  0.00  0.00    +0.000 A 
ATOM     16  CE2 TYR A   2       7.221   6.116  18.481  0.00  0.00    +0.000 A 
ATOM     17  CD2 TYR A   2       6.270   5.191  18.923  0.00  0.00    +0.000 A 
BRANCH  15  18
ATOM     18  OH  TYR A   2       7.876   7.844  17.014  0.00  0.00    +0.000 OA
ATOM     19  HH  TYR A   2       8.381   8.152  17.785  0.00  0.00    +0.000 HD
ENDBRANCH  15  18
ENDBRANCH  11  12
ENDBRANCH   7  11
TORSDOF 3
ENDMDL
MODEL 9
REMARK VINA RESULT:      -6.9      2.433      6.006
REMARK  Name = 
REMARK  3 active torsions:
REMARK  status: ('A' for Active; 'I' for Inactive)
REMARK    1  A    between atoms: CA_7  and  CB_8
REMARK    2  A    between atoms: CB_8  and  CG_9
REMARK    3  A    between atoms: CZ_12  and  OH_13
REMARK                            x       y       z     vdW  Elec       q    Type
REMARK                         _______ _______ _______ _____ _____    ______ ____
ROOT
ATOM      1  O   GLY A   1       2.100   2.460  16.988  0.00  0.00    +0.000 OA
ATOM      2  C   GLY A   1       2.089   2.687  18.193  0.00  0.00    +0.000 C 
ATOM      3  CA  GLY A   1       0.849   3.147  18.962  0.00  0.00    +0.000 C 
ATOM      4  N   GLY A   1       0.989   2.876  20.384  0.00  0.00    +0.000 N 
ATOM      5  C   TYR A   2       2.159   3.169  21.053  0.00  0.00    +0.000 C 
ATOM      6  O   TYR A   2       2.168   3.293  22.274  0.00  0.00    +0.000 OA
ATOM      7  CA  TYR A   2       3.378   3.467  20.159  0.00  0.00    +0.000 C 
ATOM      8  N   TYR A   2       3.253   2.675  18.930  0.00  0.00    +0.000 N 
ATOM      9  H   GLY A   1       0.166   2.809  20.969  0.00  0.00    +0.000 HD
ATOM     10  H   TYR A   2       4.092   2.457  18.405  0.00  0.00    +0.000 HD
ENDROOT
BRANCH   7  11
ATOM     11  CB  TYR A   2       3.470   4.993  19.934  0.00  0.00    +0.000 C 
BRANCH  11  12
ATOM     12  CG  TYR A   2       4.575   5.443  19.004  0.00  0.00    +0.000 A 
ATOM     13  CD1 TYR A   2       5.923   5.189  19.300  0.00  0.00    +0.000 A 
ATOM     14  CE1 TYR A   2       6.943   5.638  18.461  0.00  0.00    +0.000 A 
ATOM     15  CZ  TYR A   2       6.615   6.308  17.290  0.00  0.00    +0.000 A 
ATOM     16  CE2 TYR A   2       5.287   6.512  16.941  0.00  0.00    +0.000 A 
ATOM     17  CD2 TYR A   2       4.268   6.087  17.798  0.00  0.00    +0.000 A 
BRANCH  15  18
ATOM     18  OH  TYR A   2       7.580   6.774  16.450  0.00  0.00    +0.000 OA
ATOM     19  HH  TYR A   2       7.253   7.585  16.026  0.00  0.00    +0.000 HD
ENDBRANCH  15  18
ENDBRANCH  11  12
ENDBRANCH   7  11
TORSDOF 3
ENDMDL
