MODEL 1
REMARK VINA RESULT:      -5.9      0.000      0.000
REMARK  Name = 
REMARK  4 active torsions:
REMARK  status: ('A' for Active; 'I' for Inactive)
REMARK    1  A    between atoms: N_1  and  C_2
REMARK    2  A    between atoms: C_2  and  C_3
REMARK    3  A    between atoms: C_3  and  C_4
REMARK    4  A    between atoms: C_7  and  C_8
REMARK                            x       y       z     vdW  Elec       q    Type
REMARK                         _______ _______ _______ _____ _____    ______ ____
ROOT
ATOM      1  C   UNL     1       2.353   2.764  19.164  0.00  0.00    +0.000 A 
ATOM      2  C   UNL     1       2.873   1.638  18.566  0.00  0.00    +0.000 A 
ATOM      3  N   UNL     1       3.963   2.075  17.870  0.00  0.00    +0.000 N 
ATOM      4  C   UNL     1       4.077   3.428  18.058  0.00  0.00    +0.000 A 
ATOM      5  N   UNL     1       3.122   3.864  18.855  0.00  0.00    +0.000 NA
ATOM      6  H   UNL     1       4.577   1.508  17.302  0.00  0.00    +0.000 HD
ENDROOT
BRANCH   4   7
ATOM      7  C   UNL     1       5.117   4.293  17.429  0.00  0.00    +0.000 A 
ATOM      8  C   UNL     1       5.707   3.969  16.223  0.00  0.00    +0.000 A 
ATOM      9  S   UNL     1       6.886   5.121  15.756  0.00  0.00    +0.000 S 
ATOM     10  C   UNL     1       6.609   6.035  17.156  0.00  0.00    +0.000 A 
ATOM     11 BR   UNL     1       7.551   7.605  17.559  0.00  0.00    +0.000 Br
ATOM     12  C   UNL     1       5.635   5.510  17.968  0.00  0.00    +0.000 A 
ENDBRANCH   4   7
BRANCH   1  13
ATOM     13  C   UNL     1       1.130   2.894  20.004  0.00  0.00    +0.000 C 
BRANCH  13  14
ATOM     14  C   UNL     1       1.486   3.235  21.454  0.00  0.00    +0.000 C 
BRANCH  14  15
ATOM     15  N   UNL     1       2.748   2.618  21.870  0.00  0.00    +0.000 NA
ATOM     16  H   UNL     1       2.755   2.537  22.885  0.00  0.00    +0.000 HD
ATOM     17  H   UNL     1       3.519   3.243  21.634  0.00  0.00    +0.000 HD
ENDBRANCH  14  15
ENDBRANCH  13  14
ENDBRANCH   1  13
TORSDOF 4
ENDMDL
MODEL 2
REMARK VINA RESULT:      -5.8      3.724      6.084
REMARK  Name = 
REMARK  4 active torsions:
REMARK  status: ('A' for Active; 'I' for Inactive)
REMARK    1  A    between atoms: N_1  and  C_2
REMARK    2  A    between atoms: C_2  and  C_3
REMARK    3  A    between atoms: C_3  and  C_4
REMARK    4  A    between atoms: C_7  and  C_8
REMARK                            x       y       z     vdW  Elec       q    Type
REMARK                         _______ _______ _______ _____ _____    ______ ____
ROOT
ATOM      1  C   UNL     1       6.374   4.331  15.591  0.00  0.00    +0.000 A 
ATOM      2  C   UNL     1       7.109   4.510  16.743  0.00  0.00    +0.000 A 
ATOM      3  N   UNL     1       6.244   4.238  17.763  0.00  0.00    +0.000 N 
ATOM      4  C   UNL     1       5.031   3.907  17.219  0.00  0.00    +0.000 A 
ATOM      5  N   UNL     1       5.092   3.938  15.903  0.00  0.00    +0.000 NA
ATOM      6  H   UNL     1       6.453   4.282  18.751  0.00  0.00    +0.000 HD
ENDROOT
BRANCH   4   7
ATOM      7  C   UNL     1       3.804   3.583  18.004  0.00  0.00    +0.000 A 
ATOM      8  C   UNL     1       2.567   3.451  17.405  0.00  0.00    +0.000 A 
ATOM      9  S   UNL     1       1.335   3.111  18.547  0.00  0.00    +0.000 S 
ATOM     10  C   UNL     1       2.448   3.148  19.824  0.00  0.00    +0.000 A 
ATOM     11 BR   UNL     1       1.964   2.891  21.616  0.00  0.00    +0.000 Br
ATOM     12  C   UNL     1       3.737   3.393  19.418  0.00  0.00    +0.000 A 
ENDBRANCH   4   7
BRANCH   1  13
ATOM     13  C   UNL     1       6.791   4.540  14.177  0.00  0.00    +0.000 C 
BRANCH  13  14
ATOM     14  C   UNL     1       5.856   3.809  13.209  0.00  0.00    +0.000 C 
BRANCH  14  15
ATOM     15  N   UNL     1       6.594   2.973  12.258  0.00  0.00    +0.000 NA
ATOM     16  H   UNL     1       6.140   3.032  11.348  0.00  0.00    +0.000 HD
ATOM     17  H   UNL     1       6.519   1.997  12.545  0.00  0.00    +0.000 HD
ENDBRANCH  14  15
ENDBRANCH  13  14
ENDBRANCH   1  13
TORSDOF 4
ENDMDL
MODEL 3
REMARK VINA RESULT:      -5.7      1.347      1.663
REMARK  Name = 
REMARK  4 active torsions:
REMARK  status: ('A' for Active; 'I' for Inactive)
REMARK    1  A    between atoms: N_1  and  C_2
REMARK    2  A    between atoms: C_2  and  C_3
REMARK    3  A    between atoms: C_3  and  C_4
REMARK    4  A    between atoms: C_7  and  C_8
REMARK                            x       y       z     vdW  Elec       q    Type
REMARK                         _______ _______ _______ _____ _____    ______ ____
ROOT
ATOM      1  C   UNL     1       3.022   2.870  20.095  0.00  0.00    +0.000 A 
ATOM      2  C   UNL     1       4.108   2.083  20.410  0.00  0.00    +0.000 A 
ATOM      3  N   UNL     1       5.160   2.644  19.744  0.00  0.00    +0.000 N 
ATOM      4  C   UNL     1       4.697   3.735  19.056  0.00  0.00    +0.000 A 
ATOM      5  N   UNL     1       3.408   3.903  19.269  0.00  0.00    +0.000 NA
ATOM      6  H   UNL     1       6.114   2.311  19.745  0.00  0.00    +0.000 HD
ENDROOT
BRANCH   4   7
ATOM      7  C   UNL     1       5.528   4.598  18.166  0.00  0.00    +0.000 A 
ATOM      8  C   UNL     1       5.846   4.227  16.875  0.00  0.00    +0.000 A 
ATOM      9  S   UNL     1       6.836   5.391  16.098  0.00  0.00    +0.000 S 
ATOM     10  C   UNL     1       6.840   6.372  17.480  0.00  0.00    +0.000 A 
ATOM     11 BR   UNL     1       7.776   7.992  17.584  0.00  0.00    +0.000 Br
ATOM     12  C   UNL     1       6.099   5.860  18.516  0.00  0.00    +0.000 A 
ENDBRANCH   4   7
BRANCH   1  13
ATOM     13  C   UNL     1       1.599   2.700  20.498  0.00  0.00    +0.000 C 
BRANCH  13  14
ATOM     14  C   UNL     1       0.679   2.639  19.274  0.00  0.00    +0.000 C 
BRANCH  14  15
ATOM     15  N   UNL     1       1.325   1.984  18.133  0.00  0.00    +0.000 NA
ATOM     16  H   UNL     1       2.327   2.160  18.177  0.00  0.00    +0.000 HD
ATOM     17  H   UNL     1       1.002   2.423  17.271  0.00  0.00    +0.000 HD
ENDBRANCH  14  15
ENDBRANCH  13  14
ENDBRANCH   1  13
TORSDOF 4
ENDMDL
MODEL 4
REMARK VINA RESULT:      -5.6      2.073      2.362
REMARK  Name = 
REMARK  4 active torsions:
REMARK  status: ('A' for Active; 'I' for Inactive)
REMARK    1  A    between atoms: N_1  and  C_2
REMARK    2  A    between atoms: C_2  and  C_3
REMARK    3  A    between atoms: C_3  and  C_4
REMARK    4  A    between atoms: C_7  and  C_8
REMARK                            x       y       z     vdW  Elec       q    Type
REMARK                         _______ _______ _______ _____ _____    ______ ____
ROOT
ATOM      1  C   UNL     1       3.374   2.928  20.644  0.00  0.00    +0.000 A 
ATOM      2  C   UNL     1       4.464   2.091  20.555  0.00  0.00    +0.000 A 
ATOM      3  N   UNL     1       5.148   2.513  19.451  0.00  0.00    +0.000 N 
ATOM      4  C   UNL     1       4.472   3.574  18.908  0.00  0.00    +0.000 A 
ATOM      5  N   UNL     1       3.403   3.855  19.626  0.00  0.00    +0.000 NA
ATOM      6  H   UNL     1       6.000   2.111  19.086  0.00  0.00    +0.000 HD
ENDROOT
BRANCH   4   7
ATOM      7  C   UNL     1       4.870   4.294  17.664  0.00  0.00    +0.000 A 
ATOM      8  C   UNL     1       4.757   5.665  17.543  0.00  0.00    +0.000 A 
ATOM      9  S   UNL     1       5.256   6.216  15.999  0.00  0.00    +0.000 S 
ATOM     10  C   UNL     1       5.612   4.636  15.502  0.00  0.00    +0.000 A 
ATOM     11 BR   UNL     1       6.244   4.217  13.789  0.00  0.00    +0.000 Br
ATOM     12  C   UNL     1       5.383   3.693  16.474  0.00  0.00    +0.000 A 
ENDBRANCH   4   7
BRANCH   1  13
ATOM     13  C   UNL     1       2.254   2.900  21.625  0.00  0.00    +0.000 C 
BRANCH  13  14
ATOM     14  C   UNL     1       0.896   2.890  20.917  0.00  0.00    +0.000 C 
BRANCH  14  15
ATOM     15  N   UNL     1       0.574   4.192  20.327  0.00  0.00    +0.000 NA
ATOM     16  H   UNL     1       0.978   4.925  20.908  0.00  0.00    +0.000 HD
ATOM     17  H   UNL     1      -0.436   4.333  20.362  0.00  0.00    +0.000 HD
ENDBRANCH  14  15
ENDBRANCH  13  14
ENDBRANCH   1  13
TORSDOF 4
ENDMDL
MODEL 5
REMARK VINA RESULT:      -5.5      1.756      1.995
REMARK  Name = 
REMARK  4 active torsions:
REMARK  status: ('A' for Active; 'I' for Inactive)
REMARK    1  A    between atoms: N_1  and  C_2
REMARK    2  A    between atoms: C_2  and  C_3
REMARK    3  A    between atoms: C_3  and  C_4
REMARK    4  A    between atoms: C_7  and  C_8
REMARK                            x       y       z     vdW  Elec       q    Type
REMARK                         _______ _______ _______ _____ _____    ______ ____
ROOT
ATOM      1  C   UNL     1       2.074   2.972  19.360  0.00  0.00    +0.000 A 
ATOM      2  C   UNL     1       1.389   3.197  18.186  0.00  0.00    +0.000 A 
ATOM      3  N   UNL     1       2.341   3.589  17.289  0.00  0.00    +0.000 N 
ATOM      4  C   UNL     1       3.554   3.593  17.926  0.00  0.00    +0.000 A 
ATOM      5  N   UNL     1       3.419   3.205  19.178  0.00  0.00    +0.000 NA
ATOM      6  H   UNL     1       2.184   3.845  16.324  0.00  0.00    +0.000 HD
ENDROOT
BRANCH   4   7
ATOM      7  C   UNL     1       4.845   4.007  17.302  0.00  0.00    +0.000 A 
ATOM      8  C   UNL     1       5.936   4.383  18.059  0.00  0.00    +0.000 A 
ATOM      9  S   UNL     1       7.269   4.837  17.082  0.00  0.00    +0.000 S 
ATOM     10  C   UNL     1       6.388   4.538  15.666  0.00  0.00    +0.000 A 
ATOM     11 BR   UNL     1       7.083   4.811  13.948  0.00  0.00    +0.000 Br
ATOM     12  C   UNL     1       5.113   4.084  15.901  0.00  0.00    +0.000 A 
ENDBRANCH   4   7
BRANCH   1  13
ATOM     13  C   UNL     1       1.536   2.576  20.691  0.00  0.00    +0.000 C 
BRANCH  13  14
ATOM     14  C   UNL     1       2.079   3.482  21.801  0.00  0.00    +0.000 C 
BRANCH  14  15
ATOM     15  N   UNL     1       2.341   4.842  21.322  0.00  0.00    +0.000 NA
ATOM     16  H   UNL     1       2.464   4.816  20.311  0.00  0.00    +0.000 HD
ATOM     17  H   UNL     1       3.231   5.164  21.703  0.00  0.00    +0.000 HD
ENDBRANCH  14  15
ENDBRANCH  13  14
ENDBRANCH   1  13
TORSDOF 4
ENDMDL
MODEL 6
REMARK VINA RESULT:      -5.5      2.123      2.670
REMARK  Name = 
REMARK  4 active torsions:
REMARK  status: ('A' for Active; 'I' for Inactive)
REMARK    1  A    between atoms: N_1  and  C_2
REMARK    2  A    between atoms: C_2  and  C_3
REMARK    3  A    between atoms: C_3  and  C_4
REMARK    4  A    between atoms: C_7  and  C_8
REMARK                            x       y       z     vdW  Elec       q    Type
REMARK                         _______ _______ _______ _____ _____    ______ ____
ROOT
ATOM      1  C   UNL     1       1.971   4.723  19.603  0.00  0.00    +0.000 A 
ATOM      2  C   UNL     1       2.328   6.043  19.771  0.00  0.00    +0.000 A 
ATOM      3  N   UNL     1       3.399   6.231  18.946  0.00  0.00    +0.000 N 
ATOM      4  C   UNL     1       3.662   5.046  18.310  0.00  0.00    +0.000 A 
ATOM      5  N   UNL     1       2.797   4.123  18.678  0.00  0.00    +0.000 NA
ATOM      6  H   UNL     1       3.920   7.089  18.829  0.00  0.00    +0.000 HD
ENDROOT
BRANCH   4   7
ATOM      7  C   UNL     1       4.786   4.822  17.354  0.00  0.00    +0.000 A 
ATOM      8  C   UNL     1       6.103   5.028  17.712  0.00  0.00    +0.000 A 
ATOM      9  S   UNL     1       7.177   4.724  16.411  0.00  0.00    +0.000 S 
ATOM     10  C   UNL     1       5.888   4.328  15.385  0.00  0.00    +0.000 A 
ATOM     11 BR   UNL     1       6.118   3.852  13.587  0.00  0.00    +0.000 Br
ATOM     12  C   UNL     1       4.660   4.399  15.996  0.00  0.00    +0.000 A 
ENDBRANCH   4   7
BRANCH   1  13
ATOM     13  C   UNL     1       0.901   3.951  20.292  0.00  0.00    +0.000 C 
BRANCH  13  14
ATOM     14  C   UNL     1       1.415   2.586  20.760  0.00  0.00    +0.000 C 
BRANCH  14  15
ATOM     15  N   UNL     1       1.622   2.545  22.210  0.00  0.00    +0.000 NA
ATOM     16  H   UNL     1       2.592   2.296  22.396  0.00  0.00    +0.000 HD
ATOM     17  H   UNL     1       1.060   1.791  22.606  0.00  0.00    +0.000 HD
ENDBRANCH  14  15
ENDBRANCH  13  14
ENDBRANCH   1  13
TORSDOF 4
ENDMDL
MODEL 7
REMARK VINA RESULT:      -5.4      2.033      2.335
REMARK  Name = 
REMARK  4 active torsions:
REMARK  status: ('A' for Active; 'I' for Inactive)
REMARK    1  A    between atoms: N_1  and  C_2
REMARK    2  A    between atoms: C_2  and  C_3
REMARK    3  A    between atoms: C_3  and  C_4
REMARK    4  A    between atoms: C_7  and  C_8
REMARK                            x       y       z     vdW  Elec       q    Type
REMARK                         _______ _______ _______ _____ _____    ______ ____
ROOT
ATOM      1  C   UNL     1       2.839   3.243  19.720  0.00  0.00    +0.000 A 
ATOM      2  C   UNL     1       3.872   2.483  20.221  0.00  0.00    +0.000 A 
ATOM      3  N   UNL     1       4.916   2.694  19.367  0.00  0.00    +0.000 N 
ATOM      4  C   UNL     1       4.501   3.558  18.389  0.00  0.00    +0.000 A 
ATOM      5  N   UNL     1       3.250   3.919  18.593  0.00  0.00    +0.000 NA
ATOM      6  H   UNL     1       5.835   2.279  19.433  0.00  0.00    +0.000 HD
ENDROOT
BRANCH   4   7
ATOM      7  C   UNL     1       5.335   4.008  17.236  0.00  0.00    +0.000 A 
ATOM      8  C   UNL     1       6.308   4.978  17.372  0.00  0.00    +0.000 A 
ATOM      9  S   UNL     1       7.086   5.319  15.883  0.00  0.00    +0.000 S 
ATOM     10  C   UNL     1       6.123   4.185  15.072  0.00  0.00    +0.000 A 
ATOM     11 BR   UNL     1       6.252   3.860  13.231  0.00  0.00    +0.000 Br
ATOM     12  C   UNL     1       5.235   3.534  15.892  0.00  0.00    +0.000 A 
ENDBRANCH   4   7
BRANCH   1  13
ATOM     13  C   UNL     1       1.440   3.357  20.217  0.00  0.00    +0.000 C 
BRANCH  13  14
ATOM     14  C   UNL     1       1.112   4.797  20.624  0.00  0.00    +0.000 C 
BRANCH  14  15
ATOM     15  N   UNL     1       2.318   5.568  20.935  0.00  0.00    +0.000 NA
ATOM     16  H   UNL     1       3.081   5.236  20.347  0.00  0.00    +0.000 HD
ATOM     17  H   UNL     1       2.601   5.373  21.896  0.00  0.00    +0.000 HD
ENDBRANCH  14  15
ENDBRANCH  13  14
ENDBRANCH   1  13
TORSDOF 4
ENDMDL
MODEL 8
REMARK VINA RESULT:      -5.4      3.590      5.496
REMARK  Name = 
REMARK  4 active torsions:
REMARK  status: ('A' for Active; 'I' for Inactive)
REMARK    1  A    between atoms: N_1  and  C_2
REMARK    2  A    between atoms: C_2  and  C_3
REMARK    3  A    between atoms: C_3  and  C_4
REMARK    4  A    between atoms: C_7  and  C_8
REMARK                            x       y       z     vdW  Elec       q    Type
REMARK                         _______ _______ _______ _____ _____    ______ ____
ROOT
ATOM      1  C   UNL     1       6.273   5.605  16.933  0.00  0.00    +0.000 A 
ATOM      2  C   UNL     1       5.957   4.926  15.777  0.00  0.00    +0.000 A 
ATOM      3  N   UNL     1       4.872   4.163  16.097  0.00  0.00    +0.000 N 
ATOM      4  C   UNL     1       4.561   4.392  17.412  0.00  0.00    +0.000 A 
ATOM      5  N   UNL     1       5.385   5.277  17.934  0.00  0.00    +0.000 NA
ATOM      6  H   UNL     1       4.384   3.528  15.480  0.00  0.00    +0.000 HD
ENDROOT
BRANCH   4   7
ATOM      7  C   UNL     1       3.461   3.715  18.159  0.00  0.00    +0.000 A 
ATOM      8  C   UNL     1       2.411   3.094  17.513  0.00  0.00    +0.000 A 
ATOM      9  S   UNL     1       1.280   2.430  18.617  0.00  0.00    +0.000 S 
ATOM     10  C   UNL     1       2.188   2.976  19.940  0.00  0.00    +0.000 A 
ATOM     11 BR   UNL     1       1.664   2.715  21.720  0.00  0.00    +0.000 Br
ATOM     12  C   UNL     1       3.338   3.634  19.580  0.00  0.00    +0.000 A 
ENDBRANCH   4   7
BRANCH   1  13
ATOM     13  C   UNL     1       7.402   6.543  17.185  0.00  0.00    +0.000 C 
BRANCH  13  14
ATOM     14  C   UNL     1       7.794   6.555  18.666  0.00  0.00    +0.000 C 
BRANCH  14  15
ATOM     15  N   UNL     1       8.010   5.203  19.188  0.00  0.00    +0.000 NA
ATOM     16  H   UNL     1       7.142   4.868  19.602  0.00  0.00    +0.000 HD
ATOM     17  H   UNL     1       8.686   5.245  19.951  0.00  0.00    +0.000 HD
ENDBRANCH  14  15
ENDBRANCH  13  14
ENDBRANCH   1  13
TORSDOF 4
ENDMDL
MODEL 9
REMARK VINA RESULT:      -5.4      2.357      2.712
REMARK  Name = 
REMARK  4 active torsions:
REMARK  status: ('A' for Active; 'I' for Inactive)
REMARK    1  A    between atoms: N_1  and  C_2
REMARK    2  A    between atoms: C_2  and  C_3
REMARK    3  A    between atoms: C_3  and  C_4
REMARK    4  A    between atoms: C_7  and  C_8
REMARK                            x       y       z     vdW  Elec       q    Type
REMARK                         _______ _______ _______ _____ _____    ______ ____
ROOT
ATOM      1  C   UNL     1       3.125   3.667  19.331  0.00  0.00    +0.000 A 
ATOM      2  C   UNL     1       4.245   3.178  19.967  0.00  0.00    +0.000 A 
ATOM      3  N   UNL     1       5.256   3.312  19.060  0.00  0.00    +0.000 N 
ATOM      4  C   UNL     1       4.737   3.866  17.919  0.00  0.00    +0.000 A 
ATOM      5  N   UNL     1       3.450   4.108  18.068  0.00  0.00    +0.000 NA
ATOM      6  H   UNL     1       6.220   3.040  19.195  0.00  0.00    +0.000 HD
ENDROOT
BRANCH   4   7
ATOM      7  C   UNL     1       5.511   4.135  16.672  0.00  0.00    +0.000 A 
ATOM      8  C   UNL     1       6.558   5.035  16.640  0.00  0.00    +0.000 A 
ATOM      9  S   UNL     1       7.242   5.168  15.075  0.00  0.00    +0.000 S 
ATOM     10  C   UNL     1       6.144   4.037  14.452  0.00  0.00    +0.000 A 
ATOM     11 BR   UNL     1       6.109   3.525  12.650  0.00  0.00    +0.000 Br
ATOM     12  C   UNL     1       5.277   3.541  15.395  0.00  0.00    +0.000 A 
ENDBRANCH   4   7
BRANCH   1  13
ATOM     13  C   UNL     1       1.721   3.721  19.825  0.00  0.00    +0.000 C 
BRANCH  13  14
ATOM     14  C   UNL     1       0.818   2.769  19.035  0.00  0.00    +0.000 C 
BRANCH  14  15
ATOM     15  N   UNL     1       1.539   1.577  18.580  0.00  0.00    +0.000 NA
ATOM     16  H   UNL     1       1.269   1.377  17.619  0.00  0.00    +0.000 HD
ATOM     17  H   UNL     1       1.235   0.773  19.129  0.00  0.00    +0.000 HD
ENDBRANCH  14  15
ENDBRANCH  13  14
ENDBRANCH   1  13
TORSDOF 4
ENDMDL
