MODEL 1
REMARK VINA RESULT:      -8.2      0.000      0.000
REMARK  Name = 
REMARK  6 active torsions:
REMARK  status: ('A' for Active; 'I' for Inactive)
REMARK    1  A    between atoms: C_1  and  C_2
REMARK    2  A    between atoms: C_2  and  S_3
REMARK    3  A    between atoms: S_3  and  C_6
REMARK    4  A    between atoms: N_12  and  C_13
REMARK    5  A    between atoms: C_19  and  C_20
REMARK    6  A    between atoms: C_22  and  C_23
REMARK                            x       y       z     vdW  Elec       q    Type
REMARK                         _______ _______ _______ _____ _____    ______ ____
ROOT
ATOM      1  C   UNL     1       3.759   5.178  18.663  0.00  0.00    +0.000 A 
ATOM      2  C   UNL     1       4.477   5.618  17.539  0.00  0.00    +0.000 A 
ATOM      3  C   UNL     1       4.228   6.872  16.962  0.00  0.00    +0.000 A 
ATOM      4  C   UNL     1       3.248   7.632  17.585  0.00  0.00    +0.000 A 
ATOM      5  O   UNL     1       2.834   8.894  17.261  0.00  0.00    +0.000 OA
ATOM      6  C   UNL     1       1.877   9.179  18.199  0.00  0.00    +0.000 A 
ATOM      7  N   UNL     1       1.365  10.419  18.148  0.00  0.00    +0.000 N 
ATOM      8  N   UNL     1       1.645   8.203  19.054  0.00  0.00    +0.000 NA
ATOM      9  C   UNL     1       2.516   7.222  18.686  0.00  0.00    +0.000 A 
ATOM     10  C   UNL     1       2.753   5.963  19.249  0.00  0.00    +0.000 A 
ATOM     11  H   UNL     1       1.744  11.063  17.470  0.00  0.00    +0.000 HD
ENDROOT
BRANCH   7  12
ATOM     12  C   UNL     1       0.363  10.922  18.987  0.00  0.00    +0.000 A 
ATOM     13  C   UNL     1      -0.911  11.166  18.484  0.00  0.00    +0.000 A 
ATOM     14  C   UNL     1      -1.900  11.721  19.303  0.00  0.00    +0.000 A 
ATOM     15  C   UNL     1      -1.629  12.016  20.636  0.00  0.00    +0.000 A 
ATOM     16  N   UNL     1      -2.574  12.518  21.489  0.00  0.00    +0.000 N 
ATOM     17  C   UNL     1      -3.793  13.207  21.094  0.00  0.00    +0.000 C 
ATOM     18  C   UNL     1      -3.981  14.490  21.935  0.00  0.00    +0.000 C 
ATOM     19  C   UNL     1      -3.213  15.680  21.366  0.00  0.00    +0.000 C 
ATOM     20  O   UNL     1      -3.751  14.323  23.346  0.00  0.00    +0.000 OA
ATOM     21  C   UNL     1      -2.606  13.536  23.725  0.00  0.00    +0.000 C 
ATOM     22  C   UNL     1      -1.313  14.344  23.739  0.00  0.00    +0.000 C 
ATOM     23  C   UNL     1      -2.474  12.235  22.920  0.00  0.00    +0.000 C 
ATOM     24  N   UNL     1      -0.393  11.805  21.129  0.00  0.00    +0.000 NA
ATOM     25  C   UNL     1       0.563  11.302  20.310  0.00  0.00    +0.000 A 
ENDBRANCH   7  12
BRANCH   1  26
ATOM     26  S   UNL     1       4.099   3.574  19.362  0.00  0.00    +0.000 S 
ATOM     27  O   UNL     1       3.170   3.387  20.458  0.00  0.00    +0.000 OA
ATOM     28  O   UNL     1       5.532   3.519  19.576  0.00  0.00    +0.000 OA
BRANCH  26  30
ATOM     29  C   UNL     1       2.158   2.273  17.947  0.00  0.00    +0.000 C 
ATOM     30  C   UNL     1       3.665   2.422  18.072  0.00  0.00    +0.000 C 
ENDBRANCH  26  30
ENDBRANCH   1  26
TORSDOF 3
ENDMDL
MODEL 2
REMARK VINA RESULT:      -8.1      0.908      1.035
REMARK  Name = 
REMARK  6 active torsions:
REMARK  status: ('A' for Active; 'I' for Inactive)
REMARK    1  A    between atoms: C_1  and  C_2
REMARK    2  A    between atoms: C_2  and  S_3
REMARK    3  A    between atoms: S_3  and  C_6
REMARK    4  A    between atoms: N_12  and  C_13
REMARK    5  A    between atoms: C_19  and  C_20
REMARK    6  A    between atoms: C_22  and  C_23
REMARK                            x       y       z     vdW  Elec       q    Type
REMARK                         _______ _______ _______ _____ _____    ______ ____
ROOT
ATOM      1  C   UNL     1       3.612   4.856  18.679  0.00  0.00    +0.000 A 
ATOM      2  C   UNL     1       4.421   5.286  17.615  0.00  0.00    +0.000 A 
ATOM      3  C   UNL     1       4.282   6.570  17.067  0.00  0.00    +0.000 A 
ATOM      4  C   UNL     1       3.313   7.368  17.657  0.00  0.00    +0.000 A 
ATOM      5  O   UNL     1       2.993   8.662  17.353  0.00  0.00    +0.000 OA
ATOM      6  C   UNL     1       1.999   8.976  18.242  0.00  0.00    +0.000 A 
ATOM      7  N   UNL     1       1.565  10.246  18.203  0.00  0.00    +0.000 N 
ATOM      8  N   UNL     1       1.659   7.990  19.048  0.00  0.00    +0.000 NA
ATOM      9  C   UNL     1       2.492   6.970  18.698  0.00  0.00    +0.000 A 
ATOM     10  C   UNL     1       2.620   5.682  19.231  0.00  0.00    +0.000 A 
ATOM     11  H   UNL     1       2.022  10.886  17.571  0.00  0.00    +0.000 HD
ENDROOT
BRANCH   7  12
ATOM     12  C   UNL     1       0.545  10.782  18.999  0.00  0.00    +0.000 A 
ATOM     13  C   UNL     1      -0.707  11.039  18.449  0.00  0.00    +0.000 A 
ATOM     14  C   UNL     1      -1.713  11.627  19.224  0.00  0.00    +0.000 A 
ATOM     15  C   UNL     1      -1.481  11.943  20.559  0.00  0.00    +0.000 A 
ATOM     16  N   UNL     1      -2.444  12.479  21.370  0.00  0.00    +0.000 N 
ATOM     17  C   UNL     1      -3.636  13.180  20.921  0.00  0.00    +0.000 C 
ATOM     18  C   UNL     1      -3.829  14.483  21.732  0.00  0.00    +0.000 C 
ATOM     19  C   UNL     1      -3.022  15.648  21.166  0.00  0.00    +0.000 C 
ATOM     20  O   UNL     1      -3.649  14.340  23.152  0.00  0.00    +0.000 OA
ATOM     21  C   UNL     1      -2.532  13.541  23.584  0.00  0.00    +0.000 C 
ATOM     22  C   UNL     1      -1.225  14.326  23.625  0.00  0.00    +0.000 C 
ATOM     23  C   UNL     1      -2.396  12.222  22.809  0.00  0.00    +0.000 C 
ATOM     24  N   UNL     1      -0.266  11.720  21.097  0.00  0.00    +0.000 NA
ATOM     25  C   UNL     1       0.708  11.185  20.320  0.00  0.00    +0.000 A 
ENDBRANCH   7  12
BRANCH   1  26
ATOM     26  S   UNL     1       3.814   3.214  19.342  0.00  0.00    +0.000 S 
ATOM     27  O   UNL     1       5.203   3.085  19.733  0.00  0.00    +0.000 OA
ATOM     28  O   UNL     1       3.219   2.310  18.375  0.00  0.00    +0.000 OA
BRANCH  26  30
ATOM     29  C   UNL     1       1.490   2.512  20.594  0.00  0.00    +0.000 C 
ATOM     30  C   UNL     1       2.823   3.204  20.825  0.00  0.00    +0.000 C 
ENDBRANCH  26  30
ENDBRANCH   1  26
TORSDOF 3
ENDMDL
MODEL 3
REMARK VINA RESULT:      -7.9      0.940      1.020
REMARK  Name = 
REMARK  6 active torsions:
REMARK  status: ('A' for Active; 'I' for Inactive)
REMARK    1  A    between atoms: C_1  and  C_2
REMARK    2  A    between atoms: C_2  and  S_3
REMARK    3  A    between atoms: S_3  and  C_6
REMARK    4  A    between atoms: N_12  and  C_13
REMARK    5  A    between atoms: C_19  and  C_20
REMARK    6  A    between atoms: C_22  and  C_23
REMARK                            x       y       z     vdW  Elec       q    Type
REMARK                         _______ _______ _______ _____ _____    ______ ____
ROOT
ATOM      1  C   UNL     1       3.318   4.590  19.251  0.00  0.00    +0.000 A 
ATOM      2  C   UNL     1       4.035   4.858  18.074  0.00  0.00    +0.000 A 
ATOM      3  C   UNL     1       3.948   6.104  17.435  0.00  0.00    +0.000 A 
ATOM      4  C   UNL     1       3.126   7.035  18.052  0.00  0.00    +0.000 A 
ATOM      5  O   UNL     1       2.889   8.326  17.673  0.00  0.00    +0.000 OA
ATOM      6  C   UNL     1       2.033   8.802  18.632  0.00  0.00    +0.000 A 
ATOM      7  N   UNL     1       1.710  10.101  18.530  0.00  0.00    +0.000 N 
ATOM      8  N   UNL     1       1.702   7.918  19.552  0.00  0.00    +0.000 NA
ATOM      9  C   UNL     1       2.397   6.798  19.206  0.00  0.00    +0.000 A 
ATOM     10  C   UNL     1       2.471   5.549  19.831  0.00  0.00    +0.000 A 
ATOM     11  H   UNL     1       2.147  10.644  17.800  0.00  0.00    +0.000 HD
ENDROOT
BRANCH   7  12
ATOM     12  C   UNL     1       0.838  10.793  19.380  0.00  0.00    +0.000 A 
ATOM     13  C   UNL     1      -0.532  10.764  19.146  0.00  0.00    +0.000 A 
ATOM     14  C   UNL     1      -1.404  11.499  19.957  0.00  0.00    +0.000 A 
ATOM     15  C   UNL     1      -0.913  12.250  21.021  0.00  0.00    +0.000 A 
ATOM     16  N   UNL     1      -1.727  12.950  21.870  0.00  0.00    +0.000 N 
ATOM     17  C   UNL     1      -3.086  13.378  21.580  0.00  0.00    +0.000 C 
ATOM     18  C   UNL     1      -3.282  14.857  21.988  0.00  0.00    +0.000 C 
ATOM     19  C   UNL     1      -2.824  15.828  20.903  0.00  0.00    +0.000 C 
ATOM     20  O   UNL     1      -2.748  15.200  23.279  0.00  0.00    +0.000 OA
ATOM     21  C   UNL     1      -1.450  14.669  23.604  0.00  0.00    +0.000 C 
ATOM     22  C   UNL     1      -0.310  15.517  23.049  0.00  0.00    +0.000 C 
ATOM     23  C   UNL     1      -1.298  13.182  23.249  0.00  0.00    +0.000 C 
ATOM     24  N   UNL     1       0.415  12.304  21.244  0.00  0.00    +0.000 NA
ATOM     25  C   UNL     1       1.246  11.616  20.424  0.00  0.00    +0.000 A 
ENDBRANCH   7  12
BRANCH   1  26
ATOM     26  S   UNL     1       3.449   2.992  20.028  0.00  0.00    +0.000 S 
ATOM     27  O   UNL     1       2.731   3.074  21.284  0.00  0.00    +0.000 OA
ATOM     28  O   UNL     1       4.854   2.635  19.989  0.00  0.00    +0.000 OA
BRANCH  26  30
ATOM     29  C   UNL     1       1.128   2.386  18.723  0.00  0.00    +0.000 C 
ATOM     30  C   UNL     1       2.546   1.894  18.950  0.00  0.00    +0.000 C 
ENDBRANCH  26  30
ENDBRANCH   1  26
TORSDOF 3
ENDMDL
MODEL 4
REMARK VINA RESULT:      -7.8      4.455     10.289
REMARK  Name = 
REMARK  6 active torsions:
REMARK  status: ('A' for Active; 'I' for Inactive)
REMARK    1  A    between atoms: C_1  and  C_2
REMARK    2  A    between atoms: C_2  and  S_3
REMARK    3  A    between atoms: S_3  and  C_6
REMARK    4  A    between atoms: N_12  and  C_13
REMARK    5  A    between atoms: C_19  and  C_20
REMARK    6  A    between atoms: C_22  and  C_23
REMARK                            x       y       z     vdW  Elec       q    Type
REMARK                         _______ _______ _______ _____ _____    ______ ____
ROOT
ATOM      1  C   UNL     1       1.477  15.849  18.873  0.00  0.00    +0.000 A 
ATOM      2  C   UNL     1       0.171  15.993  19.368  0.00  0.00    +0.000 A 
ATOM      3  C   UNL     1      -0.617  14.876  19.681  0.00  0.00    +0.000 A 
ATOM      4  C   UNL     1      -0.011  13.644  19.483  0.00  0.00    +0.000 A 
ATOM      5  O   UNL     1      -0.526  12.405  19.740  0.00  0.00    +0.000 OA
ATOM      6  C   UNL     1       0.483  11.547  19.392  0.00  0.00    +0.000 A 
ATOM      7  N   UNL     1       0.251  10.247  19.636  0.00  0.00    +0.000 N 
ATOM      8  N   UNL     1       1.563  12.139  18.922  0.00  0.00    +0.000 NA
ATOM      9  C   UNL     1       1.270  13.468  18.987  0.00  0.00    +0.000 A 
ATOM     10  C   UNL     1       2.047  14.584  18.656  0.00  0.00    +0.000 A 
ATOM     11  H   UNL     1      -0.612   9.995  20.095  0.00  0.00    +0.000 HD
ENDROOT
BRANCH   7  12
ATOM     12  C   UNL     1       1.126   9.194  19.342  0.00  0.00    +0.000 A 
ATOM     13  C   UNL     1       1.605   9.026  18.047  0.00  0.00    +0.000 A 
ATOM     14  C   UNL     1       2.434   7.943  17.734  0.00  0.00    +0.000 A 
ATOM     15  C   UNL     1       2.808   7.033  18.719  0.00  0.00    +0.000 A 
ATOM     16  N   UNL     1       3.652   5.984  18.474  0.00  0.00    +0.000 N 
ATOM     17  C   UNL     1       3.926   5.404  17.169  0.00  0.00    +0.000 C 
ATOM     18  C   UNL     1       3.854   3.860  17.242  0.00  0.00    +0.000 C 
ATOM     19  C   UNL     1       2.429   3.334  17.093  0.00  0.00    +0.000 C 
ATOM     20  O   UNL     1       4.530   3.280  18.372  0.00  0.00    +0.000 OA
ATOM     21  C   UNL     1       4.347   3.937  19.641  0.00  0.00    +0.000 C 
ATOM     22  C   UNL     1       3.066   3.508  20.348  0.00  0.00    +0.000 C 
ATOM     23  C   UNL     1       4.486   5.464  19.557  0.00  0.00    +0.000 C 
ATOM     24  N   UNL     1       2.334   7.172  19.972  0.00  0.00    +0.000 NA
ATOM     25  C   UNL     1       1.500   8.206  20.247  0.00  0.00    +0.000 A 
ENDBRANCH   7  12
BRANCH   1  26
ATOM     26  S   UNL     1       2.442  17.294  18.478  0.00  0.00    +0.000 S 
ATOM     27  O   UNL     1       3.834  16.934  18.660  0.00  0.00    +0.000 OA
ATOM     28  O   UNL     1       1.848  18.393  19.214  0.00  0.00    +0.000 OA
BRANCH  26  30
ATOM     29  C   UNL     1       0.952  18.432  16.492  0.00  0.00    +0.000 C 
ATOM     30  C   UNL     1       2.167  17.553  16.735  0.00  0.00    +0.000 C 
ENDBRANCH  26  30
ENDBRANCH   1  26
TORSDOF 3
ENDMDL
MODEL 5
REMARK VINA RESULT:      -7.8      2.580      3.720
REMARK  Name = 
REMARK  6 active torsions:
REMARK  status: ('A' for Active; 'I' for Inactive)
REMARK    1  A    between atoms: C_1  and  C_2
REMARK    2  A    between atoms: C_2  and  S_3
REMARK    3  A    between atoms: S_3  and  C_6
REMARK    4  A    between atoms: N_12  and  C_13
REMARK    5  A    between atoms: C_19  and  C_20
REMARK    6  A    between atoms: C_22  and  C_23
REMARK                            x       y       z     vdW  Elec       q    Type
REMARK                         _______ _______ _______ _____ _____    ______ ____
ROOT
ATOM      1  C   UNL     1       5.042   4.961  17.070  0.00  0.00    +0.000 A 
ATOM      2  C   UNL     1       4.664   3.734  17.638  0.00  0.00    +0.000 A 
ATOM      3  C   UNL     1       3.750   3.674  18.700  0.00  0.00    +0.000 A 
ATOM      4  C   UNL     1       3.249   4.895  19.127  0.00  0.00    +0.000 A 
ATOM      5  O   UNL     1       2.324   5.126  20.106  0.00  0.00    +0.000 OA
ATOM      6  C   UNL     1       2.172   6.487  20.103  0.00  0.00    +0.000 A 
ATOM      7  N   UNL     1       1.235   6.969  20.936  0.00  0.00    +0.000 N 
ATOM      8  N   UNL     1       2.933   7.119  19.232  0.00  0.00    +0.000 NA
ATOM      9  C   UNL     1       3.611   6.122  18.597  0.00  0.00    +0.000 A 
ATOM     10  C   UNL     1       4.537   6.181  17.550  0.00  0.00    +0.000 A 
ATOM     11  H   UNL     1       0.682   6.309  21.463  0.00  0.00    +0.000 HD
ENDROOT
BRANCH   7  12
ATOM     12  C   UNL     1       0.924   8.322  21.117  0.00  0.00    +0.000 A 
ATOM     13  C   UNL     1       0.239   8.735  22.255  0.00  0.00    +0.000 A 
ATOM     14  C   UNL     1      -0.124  10.076  22.415  0.00  0.00    +0.000 A 
ATOM     15  C   UNL     1       0.214  11.019  21.449  0.00  0.00    +0.000 A 
ATOM     16  N   UNL     1      -0.079  12.349  21.578  0.00  0.00    +0.000 N 
ATOM     17  C   UNL     1      -1.105  12.910  22.444  0.00  0.00    +0.000 C 
ATOM     18  C   UNL     1      -1.941  13.960  21.675  0.00  0.00    +0.000 C 
ATOM     19  C   UNL     1      -3.073  13.328  20.869  0.00  0.00    +0.000 C 
ATOM     20  O   UNL     1      -1.169  14.884  20.888  0.00  0.00    +0.000 OA
ATOM     21  C   UNL     1      -0.078  14.332  20.128  0.00  0.00    +0.000 C 
ATOM     22  C   UNL     1      -0.524  13.760  18.786  0.00  0.00    +0.000 C 
ATOM     23  C   UNL     1       0.778  13.341  20.930  0.00  0.00    +0.000 C 
ATOM     24  N   UNL     1       0.858  10.628  20.331  0.00  0.00    +0.000 NA
ATOM     25  C   UNL     1       1.168   9.317  20.177  0.00  0.00    +0.000 A 
ENDBRANCH   7  12
BRANCH   1  26
ATOM     26  S   UNL     1       6.214   4.997  15.728  0.00  0.00    +0.000 S 
ATOM     27  O   UNL     1       7.519   4.742  16.301  0.00  0.00    +0.000 OA
ATOM     28  O   UNL     1       5.944   6.214  14.986  0.00  0.00    +0.000 OA
BRANCH  26  30
ATOM     29  C   UNL     1       6.206   3.802  13.272  0.00  0.00    +0.000 C 
ATOM     30  C   UNL     1       5.776   3.596  14.714  0.00  0.00    +0.000 C 
ENDBRANCH  26  30
ENDBRANCH   1  26
TORSDOF 3
ENDMDL
MODEL 6
REMARK VINA RESULT:      -7.7      2.436      3.529
REMARK  Name = 
REMARK  6 active torsions:
REMARK  status: ('A' for Active; 'I' for Inactive)
REMARK    1  A    between atoms: C_1  and  C_2
REMARK    2  A    between atoms: C_2  and  S_3
REMARK    3  A    between atoms: S_3  and  C_6
REMARK    4  A    between atoms: N_12  and  C_13
REMARK    5  A    between atoms: C_19  and  C_20
REMARK    6  A    between atoms: C_22  and  C_23
REMARK                            x       y       z     vdW  Elec       q    Type
REMARK                         _______ _______ _______ _____ _____    ______ ____
ROOT
ATOM      1  C   UNL     1       4.405   5.232  17.413  0.00  0.00    +0.000 A 
ATOM      2  C   UNL     1       3.979   4.016  17.972  0.00  0.00    +0.000 A 
ATOM      3  C   UNL     1       3.071   3.985  19.041  0.00  0.00    +0.000 A 
ATOM      4  C   UNL     1       2.626   5.222  19.483  0.00  0.00    +0.000 A 
ATOM      5  O   UNL     1       1.719   5.483  20.471  0.00  0.00    +0.000 OA
ATOM      6  C   UNL     1       1.625   6.850  20.483  0.00  0.00    +0.000 A 
ATOM      7  N   UNL     1       0.716   7.363  21.328  0.00  0.00    +0.000 N 
ATOM      8  N   UNL     1       2.406   7.456  19.612  0.00  0.00    +0.000 NA
ATOM      9  C   UNL     1       3.036   6.437  18.962  0.00  0.00    +0.000 A 
ATOM     10  C   UNL     1       3.956   6.467  17.908  0.00  0.00    +0.000 A 
ATOM     11  H   UNL     1       0.139   6.722  21.852  0.00  0.00    +0.000 HD
ENDROOT
BRANCH   7  12
ATOM     12  C   UNL     1       0.465   8.726  21.524  0.00  0.00    +0.000 A 
ATOM     13  C   UNL     1      -0.285   9.148  22.617  0.00  0.00    +0.000 A 
ATOM     14  C   UNL     1      -0.587  10.503  22.788  0.00  0.00    +0.000 A 
ATOM     15  C   UNL     1      -0.124  11.449  21.878  0.00  0.00    +0.000 A 
ATOM     16  N   UNL     1      -0.355  12.790  22.024  0.00  0.00    +0.000 N 
ATOM     17  C   UNL     1      -1.413  13.385  22.824  0.00  0.00    +0.000 C 
ATOM     18  C   UNL     1      -2.129  14.499  22.024  0.00  0.00    +0.000 C 
ATOM     19  C   UNL     1      -3.227  13.951  21.115  0.00  0.00    +0.000 C 
ATOM     20  O   UNL     1      -1.250  15.398  21.326  0.00  0.00    +0.000 OA
ATOM     21  C   UNL     1      -0.134  14.805  20.636  0.00  0.00    +0.000 C 
ATOM     22  C   UNL     1      -0.502  14.293  19.248  0.00  0.00    +0.000 C 
ATOM     23  C   UNL     1       0.602  13.749  21.473  0.00  0.00    +0.000 C 
ATOM     24  N   UNL     1       0.584  11.052  20.803  0.00  0.00    +0.000 NA
ATOM     25  C   UNL     1       0.835   9.729  20.634  0.00  0.00    +0.000 A 
ENDBRANCH   7  12
BRANCH   1  26
ATOM     26  S   UNL     1       5.567   5.230  16.062  0.00  0.00    +0.000 S 
ATOM     27  O   UNL     1       5.778   6.613  15.686  0.00  0.00    +0.000 OA
ATOM     28  O   UNL     1       5.074   4.259  15.104  0.00  0.00    +0.000 OA
BRANCH  26  30
ATOM     29  C   UNL     1       7.447   5.378  18.038  0.00  0.00    +0.000 C 
ATOM     30  C   UNL     1       7.083   4.618  16.775  0.00  0.00    +0.000 C 
ENDBRANCH  26  30
ENDBRANCH   1  26
TORSDOF 3
ENDMDL
MODEL 7
REMARK VINA RESULT:      -7.7      4.478     10.194
REMARK  Name = 
REMARK  6 active torsions:
REMARK  status: ('A' for Active; 'I' for Inactive)
REMARK    1  A    between atoms: C_1  and  C_2
REMARK    2  A    between atoms: C_2  and  S_3
REMARK    3  A    between atoms: S_3  and  C_6
REMARK    4  A    between atoms: N_12  and  C_13
REMARK    5  A    between atoms: C_19  and  C_20
REMARK    6  A    between atoms: C_22  and  C_23
REMARK                            x       y       z     vdW  Elec       q    Type
REMARK                         _______ _______ _______ _____ _____    ______ ____
ROOT
ATOM      1  C   UNL     1       1.670  15.776  18.789  0.00  0.00    +0.000 A 
ATOM      2  C   UNL     1       0.338  15.942  19.202  0.00  0.00    +0.000 A 
ATOM      3  C   UNL     1      -0.488  14.838  19.459  0.00  0.00    +0.000 A 
ATOM      4  C   UNL     1       0.106  13.596  19.290  0.00  0.00    +0.000 A 
ATOM      5  O   UNL     1      -0.447  12.365  19.507  0.00  0.00    +0.000 OA
ATOM      6  C   UNL     1       0.567  11.490  19.216  0.00  0.00    +0.000 A 
ATOM      7  N   UNL     1       0.296  10.193  19.437  0.00  0.00    +0.000 N 
ATOM      8  N   UNL     1       1.684  12.065  18.818  0.00  0.00    +0.000 NA
ATOM      9  C   UNL     1       1.412  13.399  18.873  0.00  0.00    +0.000 A 
ATOM     10  C   UNL     1       2.229  14.502  18.599  0.00  0.00    +0.000 A 
ATOM     11  H   UNL     1      -0.598   9.956  19.840  0.00  0.00    +0.000 HD
ENDROOT
BRANCH   7  12
ATOM     12  C   UNL     1       1.169   9.126  19.190  0.00  0.00    +0.000 A 
ATOM     13  C   UNL     1       1.684   8.927  17.914  0.00  0.00    +0.000 A 
ATOM     14  C   UNL     1       2.511   7.830  17.649  0.00  0.00    +0.000 A 
ATOM     15  C   UNL     1       2.845   6.937  18.662  0.00  0.00    +0.000 A 
ATOM     16  N   UNL     1       3.684   5.874  18.464  0.00  0.00    +0.000 N 
ATOM     17  C   UNL     1       3.992   5.264  17.180  0.00  0.00    +0.000 C 
ATOM     18  C   UNL     1       3.902   3.724  17.282  0.00  0.00    +0.000 C 
ATOM     19  C   UNL     1       2.476   3.209  17.101  0.00  0.00    +0.000 C 
ATOM     20  O   UNL     1       4.536   3.160  18.443  0.00  0.00    +0.000 OA
ATOM     21  C   UNL     1       4.322   3.844  19.692  0.00  0.00    +0.000 C 
ATOM     22  C   UNL     1       3.015   3.443  20.369  0.00  0.00    +0.000 C 
ATOM     23  C   UNL     1       4.480   5.368  19.582  0.00  0.00    +0.000 C 
ATOM     24  N   UNL     1       2.334   7.106  19.897  0.00  0.00    +0.000 NA
ATOM     25  C   UNL     1       1.504   8.154  20.126  0.00  0.00    +0.000 A 
ENDBRANCH   7  12
BRANCH   1  26
ATOM     26  S   UNL     1       2.684  17.205  18.463  0.00  0.00    +0.000 S 
ATOM     27  O   UNL     1       2.479  18.126  19.562  0.00  0.00    +0.000 OA
ATOM     28  O   UNL     1       2.408  17.595  17.094  0.00  0.00    +0.000 OA
BRANCH  26  30
ATOM     29  C   UNL     1       4.994  16.945  19.897  0.00  0.00    +0.000 C 
ATOM     30  C   UNL     1       4.358  16.598  18.562  0.00  0.00    +0.000 C 
ENDBRANCH  26  30
ENDBRANCH   1  26
TORSDOF 3
ENDMDL
MODEL 8
REMARK VINA RESULT:      -7.7      2.345      3.576
REMARK  Name = 
REMARK  6 active torsions:
REMARK  status: ('A' for Active; 'I' for Inactive)
REMARK    1  A    between atoms: C_1  and  C_2
REMARK    2  A    between atoms: C_2  and  S_3
REMARK    3  A    between atoms: S_3  and  C_6
REMARK    4  A    between atoms: N_12  and  C_13
REMARK    5  A    between atoms: C_19  and  C_20
REMARK    6  A    between atoms: C_22  and  C_23
REMARK                            x       y       z     vdW  Elec       q    Type
REMARK                         _______ _______ _______ _____ _____    ______ ____
ROOT
ATOM      1  C   UNL     1       4.910   5.337  17.346  0.00  0.00    +0.000 A 
ATOM      2  C   UNL     1       4.683   4.093  17.956  0.00  0.00    +0.000 A 
ATOM      3  C   UNL     1       3.793   3.961  19.032  0.00  0.00    +0.000 A 
ATOM      4  C   UNL     1       3.157   5.129  19.427  0.00  0.00    +0.000 A 
ATOM      5  O   UNL     1       2.221   5.282  20.411  0.00  0.00    +0.000 OA
ATOM      6  C   UNL     1       1.911   6.616  20.369  0.00  0.00    +0.000 A 
ATOM      7  N   UNL     1       0.932   7.012  21.199  0.00  0.00    +0.000 N 
ATOM      8  N   UNL     1       2.584   7.303  19.468  0.00  0.00    +0.000 NA
ATOM      9  C   UNL     1       3.368   6.372  18.855  0.00  0.00    +0.000 A 
ATOM     10  C   UNL     1       4.271   6.505  17.794  0.00  0.00    +0.000 A 
ATOM     11  H   UNL     1       0.465   6.309  21.752  0.00  0.00    +0.000 HD
ENDROOT
BRANCH   7  12
ATOM     12  C   UNL     1       0.467   8.324  21.342  0.00  0.00    +0.000 A 
ATOM     13  C   UNL     1       0.683   9.015  22.530  0.00  0.00    +0.000 A 
ATOM     14  C   UNL     1       0.172  10.306  22.700  0.00  0.00    +0.000 A 
ATOM     15  C   UNL     1      -0.540  10.924  21.677  0.00  0.00    +0.000 A 
ATOM     16  N   UNL     1      -1.022  12.201  21.777  0.00  0.00    +0.000 N 
ATOM     17  C   UNL     1      -1.263  12.921  23.018  0.00  0.00    +0.000 C 
ATOM     18  C   UNL     1      -2.648  13.608  22.980  0.00  0.00    +0.000 C 
ATOM     19  C   UNL     1      -3.778  12.668  23.394  0.00  0.00    +0.000 C 
ATOM     20  O   UNL     1      -2.943  14.299  21.753  0.00  0.00    +0.000 OA
ATOM     21  C   UNL     1      -2.588  13.626  20.531  0.00  0.00    +0.000 C 
ATOM     22  C   UNL     1      -3.650  12.630  20.076  0.00  0.00    +0.000 C 
ATOM     23  C   UNL     1      -1.183  13.006  20.567  0.00  0.00    +0.000 C 
ATOM     24  N   UNL     1      -0.775  10.258  20.529  0.00  0.00    +0.000 NA
ATOM     25  C   UNL     1      -0.304   8.993  20.398  0.00  0.00    +0.000 A 
ENDBRANCH   7  12
BRANCH   1  26
ATOM     26  S   UNL     1       6.056   5.466  15.987  0.00  0.00    +0.000 S 
ATOM     27  O   UNL     1       7.381   5.581  16.563  0.00  0.00    +0.000 OA
ATOM     28  O   UNL     1       5.529   6.490  15.106  0.00  0.00    +0.000 OA
BRANCH  26  30
ATOM     29  C   UNL     1       6.333   4.004  13.697  0.00  0.00    +0.000 C 
ATOM     30  C   UNL     1       5.952   3.888  15.162  0.00  0.00    +0.000 C 
ENDBRANCH  26  30
ENDBRANCH   1  26
TORSDOF 3
ENDMDL
MODEL 9
REMARK VINA RESULT:      -7.7      1.139      2.050
REMARK  Name = 
REMARK  6 active torsions:
REMARK  status: ('A' for Active; 'I' for Inactive)
REMARK    1  A    between atoms: C_1  and  C_2
REMARK    2  A    between atoms: C_2  and  S_3
REMARK    3  A    between atoms: S_3  and  C_6
REMARK    4  A    between atoms: N_12  and  C_13
REMARK    5  A    between atoms: C_19  and  C_20
REMARK    6  A    between atoms: C_22  and  C_23
REMARK                            x       y       z     vdW  Elec       q    Type
REMARK                         _______ _______ _______ _____ _____    ______ ____
ROOT
ATOM      1  C   UNL     1       2.960   4.741  19.461  0.00  0.00    +0.000 A 
ATOM      2  C   UNL     1       3.712   4.846  18.279  0.00  0.00    +0.000 A 
ATOM      3  C   UNL     1       3.725   6.030  17.527  0.00  0.00    +0.000 A 
ATOM      4  C   UNL     1       2.965   7.071  18.040  0.00  0.00    +0.000 A 
ATOM      5  O   UNL     1       2.829   8.336  17.539  0.00  0.00    +0.000 OA
ATOM      6  C   UNL     1       1.997   8.958  18.432  0.00  0.00    +0.000 A 
ATOM      7  N   UNL     1       1.772  10.263  18.205  0.00  0.00    +0.000 N 
ATOM      8  N   UNL     1       1.588   8.190  19.421  0.00  0.00    +0.000 NA
ATOM      9  C   UNL     1       2.204   6.996  19.194  0.00  0.00    +0.000 A 
ATOM     10  C   UNL     1       2.177   5.808  19.933  0.00  0.00    +0.000 A 
ATOM     11  H   UNL     1       2.258  10.703  17.437  0.00  0.00    +0.000 HD
ENDROOT
BRANCH   7  12
ATOM     12  C   UNL     1       0.941  11.091  18.969  0.00  0.00    +0.000 A 
ATOM     13  C   UNL     1       1.389  11.599  20.183  0.00  0.00    +0.000 A 
ATOM     14  C   UNL     1       0.543  12.381  20.978  0.00  0.00    +0.000 A 
ATOM     15  C   UNL     1      -0.749  12.677  20.554  0.00  0.00    +0.000 A 
ATOM     16  N   UNL     1      -1.599  13.472  21.273  0.00  0.00    +0.000 N 
ATOM     17  C   UNL     1      -1.494  13.756  22.696  0.00  0.00    +0.000 C 
ATOM     18  C   UNL     1      -2.874  13.603  23.377  0.00  0.00    +0.000 C 
ATOM     19  C   UNL     1      -3.178  12.157  23.763  0.00  0.00    +0.000 C 
ATOM     20  O   UNL     1      -3.966  14.212  22.666  0.00  0.00    +0.000 OA
ATOM     21  C   UNL     1      -3.992  14.025  21.238  0.00  0.00    +0.000 C 
ATOM     22  C   UNL     1      -4.631  12.703  20.828  0.00  0.00    +0.000 C 
ATOM     23  C   UNL     1      -2.625  14.245  20.575  0.00  0.00    +0.000 C 
ATOM     24  N   UNL     1      -1.202  12.172  19.390  0.00  0.00    +0.000 NA
ATOM     25  C   UNL     1      -0.381  11.386  18.652  0.00  0.00    +0.000 A 
ENDBRANCH   7  12
BRANCH   1  26
ATOM     26  S   UNL     1       2.962   3.217  20.383  0.00  0.00    +0.000 S 
ATOM     27  O   UNL     1       2.214   3.460  21.600  0.00  0.00    +0.000 OA
ATOM     28  O   UNL     1       4.341   2.770  20.426  0.00  0.00    +0.000 OA
BRANCH  26  30
ATOM     29  C   UNL     1       0.711   2.705  18.923  0.00  0.00    +0.000 C 
ATOM     30  C   UNL     1       2.020   2.084  19.379  0.00  0.00    +0.000 C 
ENDBRANCH  26  30
ENDBRANCH   1  26
TORSDOF 3
ENDMDL
