MODEL 1
REMARK VINA RESULT:      -6.8      0.000      0.000
REMARK  Name = 
REMARK  5 active torsions:
REMARK  status: ('A' for Active; 'I' for Inactive)
REMARK    1  A    between atoms: C_1  and  O_2
REMARK    2  A    between atoms: O_2  and  C_3
REMARK    3  A    between atoms: C_6  and  C_7
REMARK    4  A    between atoms: C_7  and  N_8
REMARK    5  A    between atoms: C_12  and  C_14
REMARK                            x       y       z     vdW  Elec       q    Type
REMARK                         _______ _______ _______ _____ _____    ______ ____
ROOT
ATOM      1  N   UNL     1       0.573   9.902  19.610  0.00  0.00    +0.000 NA
ATOM      2  C   UNL     1       1.218   9.265  20.773  0.00  0.00    +0.000 C 
ATOM      3  C   UNL     1       1.723   7.826  20.555  0.00  0.00    +0.000 C 
ATOM      4  N   UNL     1       2.492   7.615  19.320  0.00  0.00    +0.000 N 
ATOM      5  C   UNL     1       3.103   6.342  19.232  0.00  0.00    +0.000 C 
ATOM      6  O   UNL     1       3.040   5.531  20.156  0.00  0.00    +0.000 OA
ATOM      7  C   UNL     1       2.027   8.366  18.145  0.00  0.00    +0.000 C 
ATOM      8  C   UNL     1       1.498   9.787  18.464  0.00  0.00    +0.000 C 
ENDROOT
BRANCH   5   9
ATOM      9  C   UNL     1       3.840   5.908  18.020  0.00  0.00    +0.000 A 
ATOM     10  C   UNL     1       4.696   6.729  17.288  0.00  0.00    +0.000 A 
ATOM     11  C   UNL     1       5.329   6.232  16.148  0.00  0.00    +0.000 A 
ATOM     12  C   UNL     1       5.136   4.902  15.810  0.00  0.00    +0.000 A 
ATOM     13  N   UNL     1       4.373   4.057  16.532  0.00  0.00    +0.000 NA
ATOM     14  C   UNL     1       3.754   4.574  17.625  0.00  0.00    +0.000 A 
ENDBRANCH   5   9
BRANCH   1  15
ATOM     15  C   UNL     1      -0.743   9.337  19.287  0.00  0.00    +0.000 C 
BRANCH  15  19
ATOM     16  C   UNL     1      -3.764  11.565  17.144  0.00  0.00    +0.000 A 
ATOM     17  C   UNL     1      -3.372  11.954  18.425  0.00  0.00    +0.000 A 
ATOM     18  C   UNL     1      -2.332  11.287  19.084  0.00  0.00    +0.000 A 
ATOM     19  C   UNL     1      -1.654  10.228  18.462  0.00  0.00    +0.000 A 
ATOM     20  C   UNL     1      -1.959   9.932  17.123  0.00  0.00    +0.000 A 
ATOM     21  C   UNL     1      -2.998  10.607  16.462  0.00  0.00    +0.000 A 
ATOM     22 BR   UNL     1      -3.364  10.144  14.659  0.00  0.00    +0.000 Br
BRANCH  16  24
ATOM     23  C   UNL     1      -6.029  12.208  17.350  0.00  0.00    +0.000 C 
ATOM     24  O   UNL     1      -4.875  12.081  16.520  0.00  0.00    +0.000 OA
ENDBRANCH  16  24
ENDBRANCH  15  19
ENDBRANCH   1  15
TORSDOF 4
ENDMDL
MODEL 2
REMARK VINA RESULT:      -6.8      1.756      2.169
REMARK  Name = 
REMARK  5 active torsions:
REMARK  status: ('A' for Active; 'I' for Inactive)
REMARK    1  A    between atoms: C_1  and  O_2
REMARK    2  A    between atoms: O_2  and  C_3
REMARK    3  A    between atoms: C_6  and  C_7
REMARK    4  A    between atoms: C_7  and  N_8
REMARK    5  A    between atoms: C_12  and  C_14
REMARK                            x       y       z     vdW  Elec       q    Type
REMARK                         _______ _______ _______ _____ _____    ______ ____
ROOT
ATOM      1  N   UNL     1       0.908  10.334  18.819  0.00  0.00    +0.000 NA
ATOM      2  C   UNL     1       1.095   9.861  20.203  0.00  0.00    +0.000 C 
ATOM      3  C   UNL     1       1.213   8.336  20.381  0.00  0.00    +0.000 C 
ATOM      4  N   UNL     1       2.132   7.669  19.448  0.00  0.00    +0.000 N 
ATOM      5  C   UNL     1       2.369   6.307  19.748  0.00  0.00    +0.000 C 
ATOM      6  O   UNL     1       1.892   5.774  20.750  0.00  0.00    +0.000 OA
ATOM      7  C   UNL     1       2.149   8.204  18.080  0.00  0.00    +0.000 C 
ATOM      8  C   UNL     1       1.981   9.743  17.994  0.00  0.00    +0.000 C 
ENDROOT
BRANCH   5   9
ATOM      9  C   UNL     1       3.191   5.441  18.866  0.00  0.00    +0.000 A 
ATOM     10  C   UNL     1       2.671   4.633  17.857  0.00  0.00    +0.000 A 
ATOM     11  C   UNL     1       3.526   3.839  17.093  0.00  0.00    +0.000 A 
ATOM     12  C   UNL     1       4.890   3.926  17.320  0.00  0.00    +0.000 A 
ATOM     13  N   UNL     1       5.438   4.748  18.238  0.00  0.00    +0.000 NA
ATOM     14  C   UNL     1       4.579   5.494  18.980  0.00  0.00    +0.000 A 
ENDBRANCH   5   9
BRANCH   1  15
ATOM     15  C   UNL     1      -0.417  10.022  18.266  0.00  0.00    +0.000 C 
BRANCH  15  19
ATOM     16  C   UNL     1      -3.701  12.448  19.683  0.00  0.00    +0.000 A 
ATOM     17  C   UNL     1      -2.421  12.613  20.210  0.00  0.00    +0.000 A 
ATOM     18  C   UNL     1      -1.339  11.891  19.690  0.00  0.00    +0.000 A 
ATOM     19  C   UNL     1      -1.520  11.002  18.620  0.00  0.00    +0.000 A 
ATOM     20  C   UNL     1      -2.782  10.945  18.004  0.00  0.00    +0.000 A 
ATOM     21  C   UNL     1      -3.863  11.675  18.524  0.00  0.00    +0.000 A 
ATOM     22 BR   UNL     1      -5.542  11.536  17.650  0.00  0.00    +0.000 Br
BRANCH  16  24
ATOM     23  C   UNL     1      -4.603  13.606  21.536  0.00  0.00    +0.000 C 
ATOM     24  O   UNL     1      -4.817  13.013  20.256  0.00  0.00    +0.000 OA
ENDBRANCH  16  24
ENDBRANCH  15  19
ENDBRANCH   1  15
TORSDOF 4
ENDMDL
MODEL 3
REMARK VINA RESULT:      -6.8      1.688      1.960
REMARK  Name = 
REMARK  5 active torsions:
REMARK  status: ('A' for Active; 'I' for Inactive)
REMARK    1  A    between atoms: C_1  and  O_2
REMARK    2  A    between atoms: O_2  and  C_3
REMARK    3  A    between atoms: C_6  and  C_7
REMARK    4  A    between atoms: C_7  and  N_8
REMARK    5  A    between atoms: C_12  and  C_14
REMARK                            x       y       z     vdW  Elec       q    Type
REMARK                         _______ _______ _______ _____ _____    ______ ____
ROOT
ATOM      1  N   UNL     1       0.883  10.323  18.832  0.00  0.00    +0.000 NA
ATOM      2  C   UNL     1       1.102   9.824  20.202  0.00  0.00    +0.000 C 
ATOM      3  C   UNL     1       1.256   8.297  20.344  0.00  0.00    +0.000 C 
ATOM      4  N   UNL     1       2.173   7.672  19.381  0.00  0.00    +0.000 N 
ATOM      5  C   UNL     1       2.444   6.308  19.646  0.00  0.00    +0.000 C 
ATOM      6  O   UNL     1       1.995   5.744  20.643  0.00  0.00    +0.000 OA
ATOM      7  C   UNL     1       2.156   8.238  18.025  0.00  0.00    +0.000 C 
ATOM      8  C   UNL     1       1.955   9.774  17.977  0.00  0.00    +0.000 C 
ENDROOT
BRANCH   5   9
ATOM      9  C   UNL     1       3.270   5.480  18.732  0.00  0.00    +0.000 A 
ATOM     10  C   UNL     1       4.661   5.535  18.669  0.00  0.00    +0.000 A 
ATOM     11  C   UNL     1       5.347   4.728  17.761  0.00  0.00    +0.000 A 
ATOM     12  C   UNL     1       4.621   3.840  16.984  0.00  0.00    +0.000 A 
ATOM     13  N   UNL     1       3.281   3.707  17.066  0.00  0.00    +0.000 NA
ATOM     14  C   UNL     1       2.639   4.519  17.945  0.00  0.00    +0.000 A 
ENDBRANCH   5   9
BRANCH   1  15
ATOM     15  C   UNL     1      -0.444   9.996  18.294  0.00  0.00    +0.000 C 
BRANCH  15  19
ATOM     16  C   UNL     1      -3.697  12.508  19.627  0.00  0.00    +0.000 A 
ATOM     17  C   UNL     1      -2.403  12.718  20.099  0.00  0.00    +0.000 A 
ATOM     18  C   UNL     1      -1.333  11.962  19.601  0.00  0.00    +0.000 A 
ATOM     19  C   UNL     1      -1.542  10.995  18.607  0.00  0.00    +0.000 A 
ATOM     20  C   UNL     1      -2.822  10.885  18.038  0.00  0.00    +0.000 A 
ATOM     21  C   UNL     1      -3.891  11.648  18.535  0.00  0.00    +0.000 A 
ATOM     22 BR   UNL     1      -5.595  11.436  17.728  0.00  0.00    +0.000 Br
BRANCH  16  24
ATOM     23  C   UNL     1      -5.136  12.647  21.498  0.00  0.00    +0.000 C 
ATOM     24  O   UNL     1      -4.799  13.110  20.190  0.00  0.00    +0.000 OA
ENDBRANCH  16  24
ENDBRANCH  15  19
ENDBRANCH   1  15
TORSDOF 4
ENDMDL
MODEL 4
REMARK VINA RESULT:      -6.7      1.896      2.181
REMARK  Name = 
REMARK  5 active torsions:
REMARK  status: ('A' for Active; 'I' for Inactive)
REMARK    1  A    between atoms: C_1  and  O_2
REMARK    2  A    between atoms: O_2  and  C_3
REMARK    3  A    between atoms: C_6  and  C_7
REMARK    4  A    between atoms: C_7  and  N_8
REMARK    5  A    between atoms: C_12  and  C_14
REMARK                            x       y       z     vdW  Elec       q    Type
REMARK                         _______ _______ _______ _____ _____    ______ ____
ROOT
ATOM      1  N   UNL     1       0.885  10.213  18.622  0.00  0.00    +0.000 NA
ATOM      2  C   UNL     1       0.866   9.665  19.991  0.00  0.00    +0.000 C 
ATOM      3  C   UNL     1       1.117   8.150  20.111  0.00  0.00    +0.000 C 
ATOM      4  N   UNL     1       2.259   7.644  19.337  0.00  0.00    +0.000 N 
ATOM      5  C   UNL     1       2.586   6.294  19.607  0.00  0.00    +0.000 C 
ATOM      6  O   UNL     1       1.995   5.649  20.472  0.00  0.00    +0.000 OA
ATOM      7  C   UNL     1       2.468   8.274  18.025  0.00  0.00    +0.000 C 
ATOM      8  C   UNL     1       2.151   9.790  17.987  0.00  0.00    +0.000 C 
ENDROOT
BRANCH   5   9
ATOM      9  C   UNL     1       3.646   5.578  18.855  0.00  0.00    +0.000 A 
ATOM     10  C   UNL     1       3.495   5.098  17.555  0.00  0.00    +0.000 A 
ATOM     11  C   UNL     1       4.546   4.419  16.939  0.00  0.00    +0.000 A 
ATOM     12  C   UNL     1       5.746   4.296  17.623  0.00  0.00    +0.000 A 
ATOM     13  N   UNL     1       5.954   4.808  18.852  0.00  0.00    +0.000 NA
ATOM     14  C   UNL     1       4.906   5.447  19.434  0.00  0.00    +0.000 A 
ENDBRANCH   5   9
BRANCH   1  15
ATOM     15  C   UNL     1      -0.273   9.812  17.813  0.00  0.00    +0.000 C 
BRANCH  15  19
ATOM     16  C   UNL     1      -4.065  11.703  18.662  0.00  0.00    +0.000 A 
ATOM     17  C   UNL     1      -4.009  10.551  17.879  0.00  0.00    +0.000 A 
ATOM     18  C   UNL     1      -2.791   9.887  17.677  0.00  0.00    +0.000 A 
ATOM     19  C   UNL     1      -1.612  10.359  18.271  0.00  0.00    +0.000 A 
ATOM     20  C   UNL     1      -1.700  11.436  19.170  0.00  0.00    +0.000 A 
ATOM     21  C   UNL     1      -2.923  12.096  19.375  0.00  0.00    +0.000 A 
ATOM     22 BR   UNL     1      -2.962  13.553  20.590  0.00  0.00    +0.000 Br
BRANCH  16  24
ATOM     23  C   UNL     1      -5.983  12.555  17.573  0.00  0.00    +0.000 C 
ATOM     24  O   UNL     1      -5.199  12.476  18.763  0.00  0.00    +0.000 OA
ENDBRANCH  16  24
ENDBRANCH  15  19
ENDBRANCH   1  15
TORSDOF 4
ENDMDL
MODEL 5
REMARK VINA RESULT:      -6.6      4.323      8.091
REMARK  Name = 
REMARK  5 active torsions:
REMARK  status: ('A' for Active; 'I' for Inactive)
REMARK    1  A    between atoms: C_1  and  O_2
REMARK    2  A    between atoms: O_2  and  C_3
REMARK    3  A    between atoms: C_6  and  C_7
REMARK    4  A    between atoms: C_7  and  N_8
REMARK    5  A    between atoms: C_12  and  C_14
REMARK                            x       y       z     vdW  Elec       q    Type
REMARK                         _______ _______ _______ _____ _____    ______ ____
ROOT
ATOM      1  N   UNL     1       0.639   8.954  19.707  0.00  0.00    +0.000 NA
ATOM      2  C   UNL     1      -0.041   9.728  20.762  0.00  0.00    +0.000 C 
ATOM      3  C   UNL     1       0.651  11.038  21.185  0.00  0.00    +0.000 C 
ATOM      4  N   UNL     1       1.092  11.896  20.077  0.00  0.00    +0.000 N 
ATOM      5  C   UNL     1       1.552  13.171  20.483  0.00  0.00    +0.000 C 
ATOM      6  O   UNL     1       1.505  13.528  21.660  0.00  0.00    +0.000 OA
ATOM      7  C   UNL     1       1.615  11.193  18.897  0.00  0.00    +0.000 C 
ATOM      8  C   UNL     1       0.886   9.865  18.570  0.00  0.00    +0.000 C 
ENDROOT
BRANCH   5   9
ATOM      9  C   UNL     1       2.128  14.141  19.520  0.00  0.00    +0.000 A 
ATOM     10  C   UNL     1       3.382  14.005  18.927  0.00  0.00    +0.000 A 
ATOM     11  C   UNL     1       3.844  14.983  18.046  0.00  0.00    +0.000 A 
ATOM     12  C   UNL     1       3.006  16.041  17.733  0.00  0.00    +0.000 A 
ATOM     13  N   UNL     1       1.759  16.171  18.229  0.00  0.00    +0.000 NA
ATOM     14  C   UNL     1       1.344  15.214  19.099  0.00  0.00    +0.000 A 
ENDBRANCH   5   9
BRANCH   1  15
ATOM     15  C   UNL     1       1.884   8.319  20.156  0.00  0.00    +0.000 C 
BRANCH  15  19
ATOM     16  C   UNL     1       1.921   4.251  18.696  0.00  0.00    +0.000 A 
ATOM     17  C   UNL     1       2.306   5.304  17.867  0.00  0.00    +0.000 A 
ATOM     18  C   UNL     1       2.379   6.611  18.365  0.00  0.00    +0.000 A 
ATOM     19  C   UNL     1       2.084   6.882  19.709  0.00  0.00    +0.000 A 
ATOM     20  C   UNL     1       1.833   5.801  20.571  0.00  0.00    +0.000 A 
ATOM     21  C   UNL     1       1.766   4.490  20.070  0.00  0.00    +0.000 A 
ATOM     22 BR   UNL     1       1.406   3.082  21.289  0.00  0.00    +0.000 Br
BRANCH  16  24
ATOM     23  C   UNL     1       2.846   2.263  17.813  0.00  0.00    +0.000 C 
ATOM     24  O   UNL     1       1.683   2.982  18.221  0.00  0.00    +0.000 OA
ENDBRANCH  16  24
ENDBRANCH  15  19
ENDBRANCH   1  15
TORSDOF 4
ENDMDL
MODEL 6
REMARK VINA RESULT:      -6.4      4.285      8.218
REMARK  Name = 
REMARK  5 active torsions:
REMARK  status: ('A' for Active; 'I' for Inactive)
REMARK    1  A    between atoms: C_1  and  O_2
REMARK    2  A    between atoms: O_2  and  C_3
REMARK    3  A    between atoms: C_6  and  C_7
REMARK    4  A    between atoms: C_7  and  N_8
REMARK    5  A    between atoms: C_12  and  C_14
REMARK                            x       y       z     vdW  Elec       q    Type
REMARK                         _______ _______ _______ _____ _____    ______ ____
ROOT
ATOM      1  N   UNL     1       0.264   9.210  20.268  0.00  0.00    +0.000 NA
ATOM      2  C   UNL     1      -0.486   9.930  21.314  0.00  0.00    +0.000 C 
ATOM      3  C   UNL     1       0.114  11.276  21.763  0.00  0.00    +0.000 C 
ATOM      4  N   UNL     1       0.525  12.170  20.671  0.00  0.00    +0.000 N 
ATOM      5  C   UNL     1       0.896  13.468  21.098  0.00  0.00    +0.000 C 
ATOM      6  O   UNL     1       0.801  13.811  22.276  0.00  0.00    +0.000 OA
ATOM      7  C   UNL     1       1.116  11.512  19.498  0.00  0.00    +0.000 C 
ATOM      8  C   UNL     1       0.479  10.144  19.144  0.00  0.00    +0.000 C 
ENDROOT
BRANCH   5   9
ATOM      9  C   UNL     1       1.431  14.480  20.154  0.00  0.00    +0.000 A 
ATOM     10  C   UNL     1       0.639  15.346  19.402  0.00  0.00    +0.000 A 
ATOM     11  C   UNL     1       1.238  16.252  18.527  0.00  0.00    +0.000 A 
ATOM     12  C   UNL     1       2.622  16.309  18.478  0.00  0.00    +0.000 A 
ATOM     13  N   UNL     1       3.423  15.539  19.241  0.00  0.00    +0.000 NA
ATOM     14  C   UNL     1       2.812  14.653  20.069  0.00  0.00    +0.000 A 
ENDBRANCH   5   9
BRANCH   1  15
ATOM     15  C   UNL     1       1.536   8.648  20.741  0.00  0.00    +0.000 C 
BRANCH  15  19
ATOM     16  C   UNL     1       2.241   4.953  18.615  0.00  0.00    +0.000 A 
ATOM     17  C   UNL     1       2.679   6.166  18.087  0.00  0.00    +0.000 A 
ATOM     18  C   UNL     1       2.530   7.353  18.816  0.00  0.00    +0.000 A 
ATOM     19  C   UNL     1       1.954   7.340  20.095  0.00  0.00    +0.000 A 
ATOM     20  C   UNL     1       1.644   6.099  20.677  0.00  0.00    +0.000 A 
ATOM     21  C   UNL     1       1.800   4.910  19.946  0.00  0.00    +0.000 A 
ATOM     22 BR   UNL     1       1.344   3.273  20.790  0.00  0.00    +0.000 Br
BRANCH  16  24
ATOM     23  C   UNL     1       3.500   3.333  17.439  0.00  0.00    +0.000 C 
ATOM     24  O   UNL     1       2.221   3.789  17.881  0.00  0.00    +0.000 OA
ENDBRANCH  16  24
ENDBRANCH  15  19
ENDBRANCH   1  15
TORSDOF 4
ENDMDL
MODEL 7
REMARK VINA RESULT:      -6.4      1.713      1.950
REMARK  Name = 
REMARK  5 active torsions:
REMARK  status: ('A' for Active; 'I' for Inactive)
REMARK    1  A    between atoms: C_1  and  O_2
REMARK    2  A    between atoms: O_2  and  C_3
REMARK    3  A    between atoms: C_6  and  C_7
REMARK    4  A    between atoms: C_7  and  N_8
REMARK    5  A    between atoms: C_12  and  C_14
REMARK                            x       y       z     vdW  Elec       q    Type
REMARK                         _______ _______ _______ _____ _____    ______ ____
ROOT
ATOM      1  N   UNL     1       0.863  10.048  18.682  0.00  0.00    +0.000 NA
ATOM      2  C   UNL     1       1.054   9.374  19.980  0.00  0.00    +0.000 C 
ATOM      3  C   UNL     1       1.466   7.891  19.911  0.00  0.00    +0.000 C 
ATOM      4  N   UNL     1       2.557   7.591  18.974  0.00  0.00    +0.000 N 
ATOM      5  C   UNL     1       3.045   6.266  19.064  0.00  0.00    +0.000 C 
ATOM      6  O   UNL     1       2.624   5.479  19.912  0.00  0.00    +0.000 OA
ATOM      7  C   UNL     1       2.552   8.361  17.722  0.00  0.00    +0.000 C 
ATOM      8  C   UNL     1       2.083   9.830  17.879  0.00  0.00    +0.000 C 
ENDROOT
BRANCH   5   9
ATOM      9  C   UNL     1       4.079   5.745  18.135  0.00  0.00    +0.000 A 
ATOM     10  C   UNL     1       5.388   6.221  18.074  0.00  0.00    +0.000 A 
ATOM     11  C   UNL     1       6.281   5.679  17.151  0.00  0.00    +0.000 A 
ATOM     12  C   UNL     1       5.855   4.627  16.356  0.00  0.00    +0.000 A 
ATOM     13  N   UNL     1       4.620   4.091  16.434  0.00  0.00    +0.000 NA
ATOM     14  C   UNL     1       3.766   4.653  17.329  0.00  0.00    +0.000 A 
ENDBRANCH   5   9
BRANCH   1  15
ATOM     15  C   UNL     1      -0.334   9.600  17.959  0.00  0.00    +0.000 C 
BRANCH  15  19
ATOM     16  C   UNL     1      -3.985  11.786  18.712  0.00  0.00    +0.000 A 
ATOM     17  C   UNL     1      -4.000  10.633  17.929  0.00  0.00    +0.000 A 
ATOM     18  C   UNL     1      -2.835   9.875  17.758  0.00  0.00    +0.000 A 
ATOM     19  C   UNL     1      -1.638  10.252  18.383  0.00  0.00    +0.000 A 
ATOM     20  C   UNL     1      -1.663  11.333  19.281  0.00  0.00    +0.000 A 
ATOM     21  C   UNL     1      -2.834  12.088  19.455  0.00  0.00    +0.000 A 
ATOM     22 BR   UNL     1      -2.790  13.544  20.671  0.00  0.00    +0.000 Br
BRANCH  16  24
ATOM     23  C   UNL     1      -6.215  12.230  18.063  0.00  0.00    +0.000 C 
ATOM     24  O   UNL     1      -5.057  12.646  18.786  0.00  0.00    +0.000 OA
ENDBRANCH  16  24
ENDBRANCH  15  19
ENDBRANCH   1  15
TORSDOF 4
ENDMDL
MODEL 8
REMARK VINA RESULT:      -6.3      4.117      8.458
REMARK  Name = 
REMARK  5 active torsions:
REMARK  status: ('A' for Active; 'I' for Inactive)
REMARK    1  A    between atoms: C_1  and  O_2
REMARK    2  A    between atoms: O_2  and  C_3
REMARK    3  A    between atoms: C_6  and  C_7
REMARK    4  A    between atoms: C_7  and  N_8
REMARK    5  A    between atoms: C_12  and  C_14
REMARK                            x       y       z     vdW  Elec       q    Type
REMARK                         _______ _______ _______ _____ _____    ______ ____
ROOT
ATOM      1  N   UNL     1       2.727   3.455  18.972  0.00  0.00    +0.000 NA
ATOM      2  C   UNL     1       2.021   3.619  20.256  0.00  0.00    +0.000 C 
ATOM      3  C   UNL     1       2.061   5.032  20.868  0.00  0.00    +0.000 C 
ATOM      4  N   UNL     1       1.755   6.125  19.934  0.00  0.00    +0.000 N 
ATOM      5  C   UNL     1       1.611   7.389  20.553  0.00  0.00    +0.000 C 
ATOM      6  O   UNL     1       1.670   7.519  21.775  0.00  0.00    +0.000 OA
ATOM      7  C   UNL     1       2.265   5.954  18.566  0.00  0.00    +0.000 C 
ATOM      8  C   UNL     1       2.226   4.494  18.048  0.00  0.00    +0.000 C 
ENDROOT
BRANCH   5   9
ATOM      9  C   UNL     1       1.398   8.628  19.765  0.00  0.00    +0.000 A 
ATOM     10  C   UNL     1       1.962   8.867  18.513  0.00  0.00    +0.000 A 
ATOM     11  C   UNL     1       1.716  10.075  17.860  0.00  0.00    +0.000 A 
ATOM     12  C   UNL     1       0.857  10.986  18.453  0.00  0.00    +0.000 A 
ATOM     13  N   UNL     1       0.235  10.762  19.628  0.00  0.00    +0.000 NA
ATOM     14  C   UNL     1       0.509   9.586  20.250  0.00  0.00    +0.000 A 
ENDBRANCH   5   9
BRANCH   1  15
ATOM     15  C   UNL     1       4.190   3.517  19.094  0.00  0.00    +0.000 C 
BRANCH  15  19
ATOM     16  C   UNL     1       6.674   5.146  15.956  0.00  0.00    +0.000 A 
ATOM     17  C   UNL     1       5.793   4.100  15.689  0.00  0.00    +0.000 A 
ATOM     18  C   UNL     1       4.924   3.631  16.683  0.00  0.00    +0.000 A 
ATOM     19  C   UNL     1       4.913   4.215  17.958  0.00  0.00    +0.000 A 
ATOM     20  C   UNL     1       5.702   5.357  18.177  0.00  0.00    +0.000 A 
ATOM     21  C   UNL     1       6.568   5.829  17.177  0.00  0.00    +0.000 A 
ATOM     22 BR   UNL     1       7.615   7.366  17.550  0.00  0.00    +0.000 Br
BRANCH  16  24
ATOM     23  C   UNL     1       7.493   5.041  13.740  0.00  0.00    +0.000 C 
ATOM     24  O   UNL     1       7.650   5.538  15.069  0.00  0.00    +0.000 OA
ENDBRANCH  16  24
ENDBRANCH  15  19
ENDBRANCH   1  15
TORSDOF 4
ENDMDL
MODEL 9
REMARK VINA RESULT:      -6.3      1.876      2.227
REMARK  Name = 
REMARK  5 active torsions:
REMARK  status: ('A' for Active; 'I' for Inactive)
REMARK    1  A    between atoms: C_1  and  O_2
REMARK    2  A    between atoms: O_2  and  C_3
REMARK    3  A    between atoms: C_6  and  C_7
REMARK    4  A    between atoms: C_7  and  N_8
REMARK    5  A    between atoms: C_12  and  C_14
REMARK                            x       y       z     vdW  Elec       q    Type
REMARK                         _______ _______ _______ _____ _____    ______ ____
ROOT
ATOM      1  N   UNL     1       0.849  10.077  18.673  0.00  0.00    +0.000 NA
ATOM      2  C   UNL     1       1.091   9.308  19.907  0.00  0.00    +0.000 C 
ATOM      3  C   UNL     1       1.557   7.853  19.711  0.00  0.00    +0.000 C 
ATOM      4  N   UNL     1       2.641   7.673  18.734  0.00  0.00    +0.000 N 
ATOM      5  C   UNL     1       3.181   6.365  18.707  0.00  0.00    +0.000 C 
ATOM      6  O   UNL     1       2.806   5.496  19.494  0.00  0.00    +0.000 OA
ATOM      7  C   UNL     1       2.581   8.541  17.550  0.00  0.00    +0.000 C 
ATOM      8  C   UNL     1       2.060   9.973  17.834  0.00  0.00    +0.000 C 
ENDROOT
BRANCH   5   9
ATOM      9  C   UNL     1       4.214   5.963  17.721  0.00  0.00    +0.000 A 
ATOM     10  C   UNL     1       4.188   4.770  17.002  0.00  0.00    +0.000 A 
ATOM     11  C   UNL     1       5.219   4.473  16.110  0.00  0.00    +0.000 A 
ATOM     12  C   UNL     1       6.218   5.414  15.916  0.00  0.00    +0.000 A 
ATOM     13  N   UNL     1       6.241   6.610  16.539  0.00  0.00    +0.000 NA
ATOM     14  C   UNL     1       5.234   6.862  17.416  0.00  0.00    +0.000 A 
ENDBRANCH   5   9
BRANCH   1  15
ATOM     15  C   UNL     1      -0.345   9.642  17.935  0.00  0.00    +0.000 C 
BRANCH  15  19
ATOM     16  C   UNL     1      -4.009  11.795  18.719  0.00  0.00    +0.000 A 
ATOM     17  C   UNL     1      -4.018  10.648  17.927  0.00  0.00    +0.000 A 
ATOM     18  C   UNL     1      -2.848   9.900  17.745  0.00  0.00    +0.000 A 
ATOM     19  C   UNL     1      -1.651  10.281  18.369  0.00  0.00    +0.000 A 
ATOM     20  C   UNL     1      -1.681  11.355  19.276  0.00  0.00    +0.000 A 
ATOM     21  C   UNL     1      -2.858  12.099  19.461  0.00  0.00    +0.000 A 
ATOM     22 BR   UNL     1      -2.819  13.545  20.688  0.00  0.00    +0.000 Br
BRANCH  16  24
ATOM     23  C   UNL     1      -6.210  12.129  19.515  0.00  0.00    +0.000 C 
ATOM     24  O   UNL     1      -5.086  12.647  18.803  0.00  0.00    +0.000 OA
ENDBRANCH  16  24
ENDBRANCH  15  19
ENDBRANCH   1  15
TORSDOF 4
ENDMDL
