MODEL 1
REMARK VINA RESULT:      -6.6      0.000      0.000
REMARK  Name = 
REMARK  8 active torsions:
REMARK  status: ('A' for Active; 'I' for Inactive)
REMARK    1  A    between atoms: C_1  and  C_2
REMARK    2  A    between atoms: C_2  and  C_3
REMARK    3  A    between atoms: C_3  and  C_4
REMARK    4  A    between atoms: C_4  and  O_6
REMARK    5  A    between atoms: O_6  and  C_7
REMARK    6  A    between atoms: C_7  and  C_8
REMARK    7  A    between atoms: C_7  and  C_14
REMARK    8  A    between atoms: C_8  and  N_9
REMARK                            x       y       z     vdW  Elec       q    Type
REMARK                         _______ _______ _______ _____ _____    ______ ____
ROOT
ATOM      1  C   UNL     1       3.516   6.297  18.114  0.00  0.00    +0.000 C 
ENDROOT
BRANCH   1   2
ATOM      2  C   UNL     1       2.590   7.419  18.573  0.00  0.00    +0.000 A 
ATOM      3  C   UNL     1       2.249   8.491  17.733  0.00  0.00    +0.000 A 
ATOM      4  C   UNL     1       1.480   9.555  18.208  0.00  0.00    +0.000 A 
ATOM      5  C   UNL     1       1.028   9.559  19.524  0.00  0.00    +0.000 A 
ATOM      6  C   UNL     1       1.324   8.488  20.361  0.00  0.00    +0.000 A 
ATOM      7  C   UNL     1       2.089   7.420  19.887  0.00  0.00    +0.000 A 
ENDBRANCH   1   2
BRANCH   1   8
ATOM      8  O   UNL     1       2.749   5.166  17.638  0.00  0.00    +0.000 OA
BRANCH   8   9
ATOM      9  C   UNL     1       2.869   4.010  18.341  0.00  0.00    +0.000 C 
ATOM     10  O   UNL     1       3.935   3.481  18.634  0.00  0.00    +0.000 OA
BRANCH   9  11
ATOM     11  C   UNL     1       1.514   3.450  18.698  0.00  0.00    +0.000 C 
BRANCH  11  13
ATOM     12  C   UNL     1       1.399   2.959  21.192  0.00  0.00    +0.000 C 
ATOM     13  C   UNL     1       1.010   3.906  20.065  0.00  0.00    +0.000 C 
ENDBRANCH  11  13
ENDBRANCH   9  11
ENDBRANCH   8   9
ENDBRANCH   1   8
BRANCH   1  14
ATOM     14  C   UNL     1       4.515   6.782  17.030  0.00  0.00    +0.000 C 
BRANCH  14  15
ATOM     15  N   UNL     1       5.552   5.845  16.634  0.00  0.00    +0.000 N 
ATOM     16  C   UNL     1       5.514   5.050  15.517  0.00  0.00    +0.000 A 
ATOM     17  C   UNL     1       6.703   4.361  15.524  0.00  0.00    +0.000 A 
ATOM     18  N   UNL     1       7.469   4.723  16.598  0.00  0.00    +0.000 NA
ATOM     19  C   UNL     1       6.747   5.607  17.249  0.00  0.00    +0.000 A 
ENDBRANCH  14  15
ENDBRANCH   1  14
TORSDOF 7
ENDMDL
MODEL 2
REMARK VINA RESULT:      -6.6      0.900      1.216
REMARK  Name = 
REMARK  8 active torsions:
REMARK  status: ('A' for Active; 'I' for Inactive)
REMARK    1  A    between atoms: C_1  and  C_2
REMARK    2  A    between atoms: C_2  and  C_3
REMARK    3  A    between atoms: C_3  and  C_4
REMARK    4  A    between atoms: C_4  and  O_6
REMARK    5  A    between atoms: O_6  and  C_7
REMARK    6  A    between atoms: C_7  and  C_8
REMARK    7  A    between atoms: C_7  and  C_14
REMARK    8  A    between atoms: C_8  and  N_9
REMARK                            x       y       z     vdW  Elec       q    Type
REMARK                         _______ _______ _______ _____ _____    ______ ____
ROOT
ATOM      1  C   UNL     1       3.440   5.353  18.180  0.00  0.00    +0.000 C 
ENDROOT
BRANCH   1   2
ATOM      2  C   UNL     1       2.679   6.586  18.658  0.00  0.00    +0.000 A 
ATOM      3  C   UNL     1       2.522   7.722  17.849  0.00  0.00    +0.000 A 
ATOM      4  C   UNL     1       1.907   8.874  18.344  0.00  0.00    +0.000 A 
ATOM      5  C   UNL     1       1.428   8.905  19.651  0.00  0.00    +0.000 A 
ATOM      6  C   UNL     1       1.541   7.776  20.456  0.00  0.00    +0.000 A 
ATOM      7  C   UNL     1       2.150   6.621  19.961  0.00  0.00    +0.000 A 
ENDBRANCH   1   2
BRANCH   1   8
ATOM      8  O   UNL     1       2.522   4.287  17.842  0.00  0.00    +0.000 OA
BRANCH   8   9
ATOM      9  C   UNL     1       2.762   3.075  18.407  0.00  0.00    +0.000 C 
ATOM     10  O   UNL     1       3.863   2.543  18.470  0.00  0.00    +0.000 OA
BRANCH   9  11
ATOM     11  C   UNL     1       1.487   2.459  18.929  0.00  0.00    +0.000 C 
BRANCH  11  13
ATOM     12  C   UNL     1       1.719   3.133  21.372  0.00  0.00    +0.000 C 
ATOM     13  C   UNL     1       0.881   3.223  20.104  0.00  0.00    +0.000 C 
ENDBRANCH  11  13
ENDBRANCH   9  11
ENDBRANCH   8   9
ENDBRANCH   1   8
BRANCH   1  14
ATOM     14  C   UNL     1       4.371   5.681  16.984  0.00  0.00    +0.000 C 
BRANCH  14  15
ATOM     15  N   UNL     1       5.755   5.250  17.098  0.00  0.00    +0.000 N 
ATOM     16  C   UNL     1       6.428   5.062  18.278  0.00  0.00    +0.000 A 
ATOM     17  C   UNL     1       7.681   4.628  17.913  0.00  0.00    +0.000 A 
ATOM     18  N   UNL     1       7.784   4.531  16.552  0.00  0.00    +0.000 NA
ATOM     19  C   UNL     1       6.616   4.920  16.092  0.00  0.00    +0.000 A 
ENDBRANCH  14  15
ENDBRANCH   1  14
TORSDOF 7
ENDMDL
MODEL 3
REMARK VINA RESULT:      -6.6      2.550      5.021
REMARK  Name = 
REMARK  8 active torsions:
REMARK  status: ('A' for Active; 'I' for Inactive)
REMARK    1  A    between atoms: C_1  and  C_2
REMARK    2  A    between atoms: C_2  and  C_3
REMARK    3  A    between atoms: C_3  and  C_4
REMARK    4  A    between atoms: C_4  and  O_6
REMARK    5  A    between atoms: O_6  and  C_7
REMARK    6  A    between atoms: C_7  and  C_8
REMARK    7  A    between atoms: C_7  and  C_14
REMARK    8  A    between atoms: C_8  and  N_9
REMARK                            x       y       z     vdW  Elec       q    Type
REMARK                         _______ _______ _______ _____ _____    ______ ____
ROOT
ATOM      1  C   UNL     1       5.133   4.676  18.810  0.00  0.00    +0.000 C 
ENDROOT
BRANCH   1   2
ATOM      2  C   UNL     1       4.113   5.803  18.681  0.00  0.00    +0.000 A 
ATOM      3  C   UNL     1       4.085   6.655  17.566  0.00  0.00    +0.000 A 
ATOM      4  C   UNL     1       3.207   7.739  17.516  0.00  0.00    +0.000 A 
ATOM      5  C   UNL     1       2.334   7.982  18.572  0.00  0.00    +0.000 A 
ATOM      6  C   UNL     1       2.320   7.126  19.670  0.00  0.00    +0.000 A 
ATOM      7  C   UNL     1       3.194   6.038  19.719  0.00  0.00    +0.000 A 
ENDBRANCH   1   2
BRANCH   1   8
ATOM      8  O   UNL     1       6.337   5.151  19.458  0.00  0.00    +0.000 OA
BRANCH   8   9
ATOM      9  C   UNL     1       7.446   5.254  18.680  0.00  0.00    +0.000 C 
ATOM     10  O   UNL     1       7.913   4.341  18.011  0.00  0.00    +0.000 OA
BRANCH   9  11
ATOM     11  C   UNL     1       8.041   6.638  18.766  0.00  0.00    +0.000 C 
BRANCH  11  13
ATOM     12  C   UNL     1       7.998   9.004  17.831  0.00  0.00    +0.000 C 
ATOM     13  C   UNL     1       7.650   7.541  17.598  0.00  0.00    +0.000 C 
ENDBRANCH  11  13
ENDBRANCH   9  11
ENDBRANCH   8   9
ENDBRANCH   1   8
BRANCH   1  14
ATOM     14  C   UNL     1       4.547   3.453  19.564  0.00  0.00    +0.000 C 
BRANCH  14  15
ATOM     15  N   UNL     1       3.327   2.878  19.021  0.00  0.00    +0.000 N 
ATOM     16  C   UNL     1       2.208   2.569  19.751  0.00  0.00    +0.000 A 
ATOM     17  C   UNL     1       1.302   2.087  18.835  0.00  0.00    +0.000 A 
ATOM     18  N   UNL     1       1.829   2.109  17.573  0.00  0.00    +0.000 NA
ATOM     19  C   UNL     1       3.047   2.579  17.719  0.00  0.00    +0.000 A 
ENDBRANCH  14  15
ENDBRANCH   1  14
TORSDOF 7
ENDMDL
MODEL 4
REMARK VINA RESULT:      -6.6      3.236      6.054
REMARK  Name = 
REMARK  8 active torsions:
REMARK  status: ('A' for Active; 'I' for Inactive)
REMARK    1  A    between atoms: C_1  and  C_2
REMARK    2  A    between atoms: C_2  and  C_3
REMARK    3  A    between atoms: C_3  and  C_4
REMARK    4  A    between atoms: C_4  and  O_6
REMARK    5  A    between atoms: O_6  and  C_7
REMARK    6  A    between atoms: C_7  and  C_8
REMARK    7  A    between atoms: C_7  and  C_14
REMARK    8  A    between atoms: C_8  and  N_9
REMARK                            x       y       z     vdW  Elec       q    Type
REMARK                         _______ _______ _______ _____ _____    ______ ____
ROOT
ATOM      1  C   UNL     1       5.698   4.552  16.381  0.00  0.00    +0.000 C 
ENDROOT
BRANCH   1   2
ATOM      2  C   UNL     1       6.534   5.506  17.229  0.00  0.00    +0.000 A 
ATOM      3  C   UNL     1       6.776   6.831  16.835  0.00  0.00    +0.000 A 
ATOM      4  C   UNL     1       7.625   7.655  17.578  0.00  0.00    +0.000 A 
ATOM      5  C   UNL     1       8.235   7.172  18.732  0.00  0.00    +0.000 A 
ATOM      6  C   UNL     1       7.977   5.873  19.159  0.00  0.00    +0.000 A 
ATOM      7  C   UNL     1       7.124   5.049  18.421  0.00  0.00    +0.000 A 
ENDBRANCH   1   2
BRANCH   1   8
ATOM      8  O   UNL     1       6.521   3.902  15.384  0.00  0.00    +0.000 OA
BRANCH   8   9
ATOM      9  C   UNL     1       6.542   4.467  14.149  0.00  0.00    +0.000 C 
ATOM     10  O   UNL     1       7.441   5.185  13.727  0.00  0.00    +0.000 OA
BRANCH   9  11
ATOM     11  C   UNL     1       5.299   4.112  13.370  0.00  0.00    +0.000 C 
BRANCH  11  13
ATOM     12  C   UNL     1       4.351   3.043  11.264  0.00  0.00    +0.000 C 
ATOM     13  C   UNL     1       5.581   3.260  12.134  0.00  0.00    +0.000 C 
ENDBRANCH  11  13
ENDBRANCH   9  11
ENDBRANCH   8   9
ENDBRANCH   1   8
BRANCH   1  14
ATOM     14  C   UNL     1       4.958   3.505  17.254  0.00  0.00    +0.000 C 
BRANCH  14  15
ATOM     15  N   UNL     1       3.548   3.749  17.509  0.00  0.00    +0.000 N 
ATOM     16  C   UNL     1       2.991   4.978  17.753  0.00  0.00    +0.000 A 
ATOM     17  C   UNL     1       1.645   4.741  17.902  0.00  0.00    +0.000 A 
ATOM     18  N   UNL     1       1.365   3.412  17.741  0.00  0.00    +0.000 NA
ATOM     19  C   UNL     1       2.527   2.843  17.516  0.00  0.00    +0.000 A 
ENDBRANCH  14  15
ENDBRANCH   1  14
TORSDOF 7
ENDMDL
MODEL 5
REMARK VINA RESULT:      -6.5      0.966      1.691
REMARK  Name = 
REMARK  8 active torsions:
REMARK  status: ('A' for Active; 'I' for Inactive)
REMARK    1  A    between atoms: C_1  and  C_2
REMARK    2  A    between atoms: C_2  and  C_3
REMARK    3  A    between atoms: C_3  and  C_4
REMARK    4  A    between atoms: C_4  and  O_6
REMARK    5  A    between atoms: O_6  and  C_7
REMARK    6  A    between atoms: C_7  and  C_8
REMARK    7  A    between atoms: C_7  and  C_14
REMARK    8  A    between atoms: C_8  and  N_9
REMARK                            x       y       z     vdW  Elec       q    Type
REMARK                         _______ _______ _______ _____ _____    ______ ____
ROOT
ATOM      1  C   UNL     1       3.464   5.251  18.119  0.00  0.00    +0.000 C 
ENDROOT
BRANCH   1   2
ATOM      2  C   UNL     1       2.822   6.529  18.649  0.00  0.00    +0.000 A 
ATOM      3  C   UNL     1       2.301   6.614  19.950  0.00  0.00    +0.000 A 
ATOM      4  C   UNL     1       1.630   7.762  20.378  0.00  0.00    +0.000 A 
ATOM      5  C   UNL     1       1.481   8.846  19.519  0.00  0.00    +0.000 A 
ATOM      6  C   UNL     1       2.023   8.796  18.239  0.00  0.00    +0.000 A 
ATOM      7  C   UNL     1       2.699   7.651  17.810  0.00  0.00    +0.000 A 
ENDBRANCH   1   2
BRANCH   1   8
ATOM      8  O   UNL     1       2.451   4.275  17.780  0.00  0.00    +0.000 OA
BRANCH   8   9
ATOM      9  C   UNL     1       2.746   2.975  18.045  0.00  0.00    +0.000 C 
ATOM     10  O   UNL     1       3.773   2.408  17.691  0.00  0.00    +0.000 OA
BRANCH   9  11
ATOM     11  C   UNL     1       1.631   2.313  18.817  0.00  0.00    +0.000 C 
BRANCH  11  13
ATOM     12  C   UNL     1       1.301   2.901  21.271  0.00  0.00    +0.000 C 
ATOM     13  C   UNL     1       0.958   3.241  19.827  0.00  0.00    +0.000 C 
ENDBRANCH  11  13
ENDBRANCH   9  11
ENDBRANCH   8   9
ENDBRANCH   1   8
BRANCH   1  14
ATOM     14  C   UNL     1       4.388   5.532  16.905  0.00  0.00    +0.000 C 
BRANCH  14  15
ATOM     15  N   UNL     1       5.783   5.149  17.045  0.00  0.00    +0.000 N 
ATOM     16  C   UNL     1       6.443   4.994  18.236  0.00  0.00    +0.000 A 
ATOM     17  C   UNL     1       7.715   4.598  17.895  0.00  0.00    +0.000 A 
ATOM     18  N   UNL     1       7.843   4.492  16.537  0.00  0.00    +0.000 NA
ATOM     19  C   UNL     1       6.670   4.838  16.055  0.00  0.00    +0.000 A 
ENDBRANCH  14  15
ENDBRANCH   1  14
TORSDOF 7
ENDMDL
MODEL 6
REMARK VINA RESULT:      -6.5      2.916      6.739
REMARK  Name = 
REMARK  8 active torsions:
REMARK  status: ('A' for Active; 'I' for Inactive)
REMARK    1  A    between atoms: C_1  and  C_2
REMARK    2  A    between atoms: C_2  and  C_3
REMARK    3  A    between atoms: C_3  and  C_4
REMARK    4  A    between atoms: C_4  and  O_6
REMARK    5  A    between atoms: O_6  and  C_7
REMARK    6  A    between atoms: C_7  and  C_8
REMARK    7  A    between atoms: C_7  and  C_14
REMARK    8  A    between atoms: C_8  and  N_9
REMARK                            x       y       z     vdW  Elec       q    Type
REMARK                         _______ _______ _______ _____ _____    ______ ____
ROOT
ATOM      1  C   UNL     1       6.247   4.551  16.088  0.00  0.00    +0.000 C 
ENDROOT
BRANCH   1   2
ATOM      2  C   UNL     1       6.619   4.450  14.612  0.00  0.00    +0.000 A 
ATOM      3  C   UNL     1       7.579   5.292  14.028  0.00  0.00    +0.000 A 
ATOM      4  C   UNL     1       7.830   5.247  12.655  0.00  0.00    +0.000 A 
ATOM      5  C   UNL     1       7.137   4.351  11.846  0.00  0.00    +0.000 A 
ATOM      6  C   UNL     1       6.209   3.483  12.412  0.00  0.00    +0.000 A 
ATOM      7  C   UNL     1       5.960   3.522  13.785  0.00  0.00    +0.000 A 
ENDBRANCH   1   2
BRANCH   1   8
ATOM      8  O   UNL     1       6.865   5.713  16.690  0.00  0.00    +0.000 OA
BRANCH   8   9
ATOM      9  C   UNL     1       7.564   5.506  17.836  0.00  0.00    +0.000 C 
ATOM     10  O   UNL     1       7.841   4.403  18.292  0.00  0.00    +0.000 OA
BRANCH   9  11
ATOM     11  C   UNL     1       7.938   6.815  18.488  0.00  0.00    +0.000 C 
BRANCH  11  13
ATOM     12  C   UNL     1       8.372   9.295  18.121  0.00  0.00    +0.000 C 
ATOM     13  C   UNL     1       7.731   8.025  17.580  0.00  0.00    +0.000 C 
ENDBRANCH  11  13
ENDBRANCH   9  11
ENDBRANCH   8   9
ENDBRANCH   1   8
BRANCH   1  14
ATOM     14  C   UNL     1       4.710   4.575  16.293  0.00  0.00    +0.000 C 
BRANCH  14  15
ATOM     15  N   UNL     1       4.238   4.743  17.658  0.00  0.00    +0.000 N 
ATOM     16  C   UNL     1       4.219   3.761  18.614  0.00  0.00    +0.000 A 
ATOM     17  C   UNL     1       3.731   4.369  19.746  0.00  0.00    +0.000 A 
ATOM     18  N   UNL     1       3.469   5.691  19.513  0.00  0.00    +0.000 NA
ATOM     19  C   UNL     1       3.774   5.883  18.250  0.00  0.00    +0.000 A 
ENDBRANCH  14  15
ENDBRANCH   1  14
TORSDOF 7
ENDMDL
MODEL 7
REMARK VINA RESULT:      -6.4      1.378      1.712
REMARK  Name = 
REMARK  8 active torsions:
REMARK  status: ('A' for Active; 'I' for Inactive)
REMARK    1  A    between atoms: C_1  and  C_2
REMARK    2  A    between atoms: C_2  and  C_3
REMARK    3  A    between atoms: C_3  and  C_4
REMARK    4  A    between atoms: C_4  and  O_6
REMARK    5  A    between atoms: O_6  and  C_7
REMARK    6  A    between atoms: C_7  and  C_8
REMARK    7  A    between atoms: C_7  and  C_14
REMARK    8  A    between atoms: C_8  and  N_9
REMARK                            x       y       z     vdW  Elec       q    Type
REMARK                         _______ _______ _______ _____ _____    ______ ____
ROOT
ATOM      1  C   UNL     1       3.307   5.370  18.422  0.00  0.00    +0.000 C 
ENDROOT
BRANCH   1   2
ATOM      2  C   UNL     1       2.574   6.660  18.777  0.00  0.00    +0.000 A 
ATOM      3  C   UNL     1       2.379   7.686  17.838  0.00  0.00    +0.000 A 
ATOM      4  C   UNL     1       1.793   8.896  18.213  0.00  0.00    +0.000 A 
ATOM      5  C   UNL     1       1.380   9.097  19.527  0.00  0.00    +0.000 A 
ATOM      6  C   UNL     1       1.530   8.078  20.463  0.00  0.00    +0.000 A 
ATOM      7  C   UNL     1       2.111   6.865  20.089  0.00  0.00    +0.000 A 
ENDBRANCH   1   2
BRANCH   1   8
ATOM      8  O   UNL     1       2.406   4.429  17.792  0.00  0.00    +0.000 OA
BRANCH   8   9
ATOM      9  C   UNL     1       2.178   3.267  18.458  0.00  0.00    +0.000 C 
ATOM     10  O   UNL     1       2.860   2.255  18.346  0.00  0.00    +0.000 OA
BRANCH   9  11
ATOM     11  C   UNL     1       0.958   3.378  19.339  0.00  0.00    +0.000 C 
BRANCH  11  13
ATOM     12  C   UNL     1       2.258   3.582  21.517  0.00  0.00    +0.000 C 
ATOM     13  C   UNL     1       1.177   2.834  20.749  0.00  0.00    +0.000 C 
ENDBRANCH  11  13
ENDBRANCH   9  11
ENDBRANCH   8   9
ENDBRANCH   1   8
BRANCH   1  14
ATOM     14  C   UNL     1       4.542   5.639  17.522  0.00  0.00    +0.000 C 
BRANCH  14  15
ATOM     15  N   UNL     1       5.825   5.755  18.195  0.00  0.00    +0.000 N 
ATOM     16  C   UNL     1       6.886   6.500  17.750  0.00  0.00    +0.000 A 
ATOM     17  C   UNL     1       7.863   6.344  18.705  0.00  0.00    +0.000 A 
ATOM     18  N   UNL     1       7.424   5.543  19.722  0.00  0.00    +0.000 NA
ATOM     19  C   UNL     1       6.203   5.198  19.383  0.00  0.00    +0.000 A 
ENDBRANCH  14  15
ENDBRANCH   1  14
TORSDOF 7
ENDMDL
MODEL 8
REMARK VINA RESULT:      -6.4      1.021      1.648
REMARK  Name = 
REMARK  8 active torsions:
REMARK  status: ('A' for Active; 'I' for Inactive)
REMARK    1  A    between atoms: C_1  and  C_2
REMARK    2  A    between atoms: C_2  and  C_3
REMARK    3  A    between atoms: C_3  and  C_4
REMARK    4  A    between atoms: C_4  and  O_6
REMARK    5  A    between atoms: O_6  and  C_7
REMARK    6  A    between atoms: C_7  and  C_8
REMARK    7  A    between atoms: C_7  and  C_14
REMARK    8  A    between atoms: C_8  and  N_9
REMARK                            x       y       z     vdW  Elec       q    Type
REMARK                         _______ _______ _______ _____ _____    ______ ____
ROOT
ATOM      1  C   UNL     1       3.072   6.113  18.439  0.00  0.00    +0.000 C 
ENDROOT
BRANCH   1   2
ATOM      2  C   UNL     1       2.401   7.433  18.811  0.00  0.00    +0.000 A 
ATOM      3  C   UNL     1       1.889   7.669  20.096  0.00  0.00    +0.000 A 
ATOM      4  C   UNL     1       1.193   8.845  20.383  0.00  0.00    +0.000 A 
ATOM      5  C   UNL     1       1.009   9.808  19.396  0.00  0.00    +0.000 A 
ATOM      6  C   UNL     1       1.542   9.609  18.127  0.00  0.00    +0.000 A 
ATOM      7  C   UNL     1       2.243   8.436  17.838  0.00  0.00    +0.000 A 
ENDBRANCH   1   2
BRANCH   1   8
ATOM      8  O   UNL     1       2.105   5.189  17.886  0.00  0.00    +0.000 OA
BRANCH   8   9
ATOM      9  C   UNL     1       2.052   3.954  18.450  0.00  0.00    +0.000 C 
ATOM     10  O   UNL     1       2.699   2.987  18.067  0.00  0.00    +0.000 OA
BRANCH   9  11
ATOM     11  C   UNL     1       1.074   3.924  19.599  0.00  0.00    +0.000 C 
BRANCH  11  13
ATOM     12  C   UNL     1       2.134   3.106  21.764  0.00  0.00    +0.000 C 
ATOM     13  C   UNL     1       1.290   2.747  20.548  0.00  0.00    +0.000 C 
ENDBRANCH  11  13
ENDBRANCH   9  11
ENDBRANCH   8   9
ENDBRANCH   1   8
BRANCH   1  14
ATOM     14  C   UNL     1       4.255   6.326  17.459  0.00  0.00    +0.000 C 
BRANCH  14  15
ATOM     15  N   UNL     1       5.514   5.688  17.810  0.00  0.00    +0.000 N 
ATOM     16  C   UNL     1       6.549   5.454  16.942  0.00  0.00    +0.000 A 
ATOM     17  C   UNL     1       7.533   4.870  17.705  0.00  0.00    +0.000 A 
ATOM     18  N   UNL     1       7.136   4.757  19.008  0.00  0.00    +0.000 NA
ATOM     19  C   UNL     1       5.917   5.248  19.037  0.00  0.00    +0.000 A 
ENDBRANCH  14  15
ENDBRANCH   1  14
TORSDOF 7
ENDMDL
MODEL 9
REMARK VINA RESULT:      -6.4      0.552      1.299
REMARK  Name = 
REMARK  8 active torsions:
REMARK  status: ('A' for Active; 'I' for Inactive)
REMARK    1  A    between atoms: C_1  and  C_2
REMARK    2  A    between atoms: C_2  and  C_3
REMARK    3  A    between atoms: C_3  and  C_4
REMARK    4  A    between atoms: C_4  and  O_6
REMARK    5  A    between atoms: O_6  and  C_7
REMARK    6  A    between atoms: C_7  and  C_8
REMARK    7  A    between atoms: C_7  and  C_14
REMARK    8  A    between atoms: C_8  and  N_9
REMARK                            x       y       z     vdW  Elec       q    Type
REMARK                         _______ _______ _______ _____ _____    ______ ____
ROOT
ATOM      1  C   UNL     1       3.843   6.212  17.939  0.00  0.00    +0.000 C 
ENDROOT
BRANCH   1   2
ATOM      2  C   UNL     1       2.917   7.278  18.517  0.00  0.00    +0.000 A 
ATOM      3  C   UNL     1       2.376   7.172  19.808  0.00  0.00    +0.000 A 
ATOM      4  C   UNL     1       1.454   8.110  20.277  0.00  0.00    +0.000 A 
ATOM      5  C   UNL     1       1.068   9.176  19.470  0.00  0.00    +0.000 A 
ATOM      6  C   UNL     1       1.622   9.320  18.202  0.00  0.00    +0.000 A 
ATOM      7  C   UNL     1       2.548   8.386  17.733  0.00  0.00    +0.000 A 
ENDBRANCH   1   2
BRANCH   1   8
ATOM      8  O   UNL     1       3.100   5.012  17.621  0.00  0.00    +0.000 OA
BRANCH   8   9
ATOM      9  C   UNL     1       3.512   3.864  18.220  0.00  0.00    +0.000 C 
ATOM     10  O   UNL     1       4.643   3.670  18.647  0.00  0.00    +0.000 OA
BRANCH   9  11
ATOM     11  C   UNL     1       2.396   2.850  18.272  0.00  0.00    +0.000 C 
BRANCH  11  13
ATOM     12  C   UNL     1       0.976   3.701  20.205  0.00  0.00    +0.000 C 
ATOM     13  C   UNL     1       1.057   3.442  18.707  0.00  0.00    +0.000 C 
ENDBRANCH  11  13
ENDBRANCH   9  11
ENDBRANCH   8   9
ENDBRANCH   1   8
BRANCH   1  14
ATOM     14  C   UNL     1       4.612   6.731  16.697  0.00  0.00    +0.000 C 
BRANCH  14  15
ATOM     15  N   UNL     1       5.674   5.880  16.186  0.00  0.00    +0.000 N 
ATOM     16  C   UNL     1       5.638   5.201  14.995  0.00  0.00    +0.000 A 
ATOM     17  C   UNL     1       6.852   4.562  14.908  0.00  0.00    +0.000 A 
ATOM     18  N   UNL     1       7.630   4.844  15.997  0.00  0.00    +0.000 NA
ATOM     19  C   UNL     1       6.892   5.628  16.750  0.00  0.00    +0.000 A 
ENDBRANCH  14  15
ENDBRANCH   1  14
TORSDOF 7
ENDMDL
