MODEL 1
REMARK VINA RESULT:      -8.3      0.000      0.000
REMARK  Name = 
REMARK  8 active torsions:
REMARK  status: ('A' for Active; 'I' for Inactive)
REMARK    1  A    between atoms: C_1  and  O_2
REMARK    2  A    between atoms: O_2  and  C_3
REMARK    3  A    between atoms: C_6  and  C_7
REMARK    4  A    between atoms: C_15  and  N_16
REMARK    5  A    between atoms: C_17  and  C_19
REMARK    6  A    between atoms: C_19  and  N_20
REMARK    7  A    between atoms: C_23  and  C_24
REMARK    8  A    between atoms: C_24  and  N_25
REMARK                            x       y       z     vdW  Elec       q    Type
REMARK                         _______ _______ _______ _____ _____    ______ ____
ROOT
ATOM      1  C   UNL     1       3.064   6.100  18.719  0.00  0.00    +0.000 A 
ATOM      2  N   UNL     1       2.900   5.308  19.847  0.00  0.00    +0.000 N 
ATOM      3  N   UNL     1       2.317   5.935  20.894  0.00  0.00    +0.000 NA
ATOM      4  C   UNL     1       1.923   7.060  20.328  0.00  0.00    +0.000 A 
ATOM      5  C   UNL     1       2.232   7.166  18.967  0.00  0.00    +0.000 A 
ATOM      6  C   UNL     1       1.708   8.418  18.443  0.00  0.00    +0.000 C 
ATOM      7  O   UNL     1       1.952   8.930  17.367  0.00  0.00    +0.000 OA
ATOM      8  C   UNL     1       0.956   9.019  19.639  0.00  0.00    +0.000 A 
ATOM      9  C   UNL     1       0.203  10.172  19.798  0.00  0.00    +0.000 A 
ATOM     10  C   UNL     1      -0.004  10.634  21.115  0.00  0.00    +0.000 A 
ATOM     11  C   UNL     1       0.424   9.899  22.236  0.00  0.00    +0.000 A 
ATOM     12  C   UNL     1       1.031   8.658  22.072  0.00  0.00    +0.000 A 
ATOM     13  C   UNL     1       1.265   8.238  20.779  0.00  0.00    +0.000 A 
ATOM     14  H   UNL     1       3.247   4.366  19.987  0.00  0.00    +0.000 HD
ENDROOT
BRANCH   1  18
ATOM     15  C   UNL     1       5.832   5.198  15.574  0.00  0.00    +0.000 A 
ATOM     16  C   UNL     1       5.027   4.185  16.107  0.00  0.00    +0.000 A 
ATOM     17  C   UNL     1       4.112   4.453  17.137  0.00  0.00    +0.000 A 
ATOM     18  C   UNL     1       4.015   5.738  17.669  0.00  0.00    +0.000 A 
ATOM     19  C   UNL     1       4.843   6.744  17.135  0.00  0.00    +0.000 A 
ATOM     20  C   UNL     1       5.744   6.479  16.102  0.00  0.00    +0.000 A 
BRANCH  15  22
ATOM     21  C   UNL     1       6.165   3.871  13.646  0.00  0.00    +0.000 C 
ATOM     22  O   UNL     1       6.684   4.825  14.570  0.00  0.00    +0.000 OA
ENDBRANCH  15  22
ENDBRANCH   1  18
BRANCH   9  23
ATOM     23  N   UNL     1      -0.451  10.881  18.787  0.00  0.00    +0.000 N 
ATOM     24  C   UNL     1      -1.578  10.470  18.093  0.00  0.00    +0.000 C 
ATOM     25  O   UNL     1      -2.187   9.422  18.284  0.00  0.00    +0.000 OA
ATOM     26  H   UNL     1      -0.286  11.881  18.697  0.00  0.00    +0.000 HD
BRANCH  24  27
ATOM     27  C   UNL     1      -2.119  11.557  17.145  0.00  0.00    +0.000 C 
BRANCH  27  28
ATOM     28  N   UNL     1      -3.473  12.019  17.558  0.00  0.00    +0.000 NA
ATOM     29  C   UNL     1      -4.514  11.369  16.732  0.00  0.00    +0.000 C 
ATOM     30  C   UNL     1      -5.878  11.956  17.084  0.00  0.00    +0.000 C 
ATOM     31  C   UNL     1      -6.228  11.734  18.563  0.00  0.00    +0.000 C 
ATOM     32  C   UNL     1      -5.071  12.259  19.430  0.00  0.00    +0.000 C 
ATOM     33  C   UNL     1      -3.704  11.722  18.983  0.00  0.00    +0.000 C 
BRANCH  31  34
ATOM     34  C   UNL     1      -6.539  10.261  18.892  0.00  0.00    +0.000 C 
BRANCH  34  35
ATOM     35  N   UNL     1      -7.431  10.139  20.038  0.00  0.00    +0.000 NA
ATOM     36  H   UNL     1      -7.317  10.944  20.652  0.00  0.00    +0.000 HD
ATOM     37  H   UNL     1      -7.175   9.319  20.586  0.00  0.00    +0.000 HD
ENDBRANCH  34  35
ENDBRANCH  31  34
ENDBRANCH  27  28
ENDBRANCH  24  27
ENDBRANCH   9  23
TORSDOF 7
ENDMDL
MODEL 2
REMARK VINA RESULT:      -8.0      3.470     10.210
REMARK  Name = 
REMARK  8 active torsions:
REMARK  status: ('A' for Active; 'I' for Inactive)
REMARK    1  A    between atoms: C_1  and  O_2
REMARK    2  A    between atoms: O_2  and  C_3
REMARK    3  A    between atoms: C_6  and  C_7
REMARK    4  A    between atoms: C_15  and  N_16
REMARK    5  A    between atoms: C_17  and  C_19
REMARK    6  A    between atoms: C_19  and  N_20
REMARK    7  A    between atoms: C_23  and  C_24
REMARK    8  A    between atoms: C_24  and  N_25
REMARK                            x       y       z     vdW  Elec       q    Type
REMARK                         _______ _______ _______ _____ _____    ______ ____
ROOT
ATOM      1  C   UNL     1       1.633   7.953  20.079  0.00  0.00    +0.000 A 
ATOM      2  N   UNL     1       1.295   7.188  21.187  0.00  0.00    +0.000 N 
ATOM      3  N   UNL     1       1.508   5.860  21.040  0.00  0.00    +0.000 NA
ATOM      4  C   UNL     1       2.186   5.837  19.908  0.00  0.00    +0.000 A 
ATOM      5  C   UNL     1       2.410   7.095  19.338  0.00  0.00    +0.000 A 
ATOM      6  C   UNL     1       3.205   6.949  18.129  0.00  0.00    +0.000 C 
ATOM      7  O   UNL     1       3.424   7.793  17.279  0.00  0.00    +0.000 OA
ATOM      8  C   UNL     1       3.517   5.447  18.085  0.00  0.00    +0.000 A 
ATOM      9  C   UNL     1       4.263   4.662  17.220  0.00  0.00    +0.000 A 
ATOM     10  C   UNL     1       4.013   3.273  17.225  0.00  0.00    +0.000 A 
ATOM     11  C   UNL     1       3.136   2.680  18.152  0.00  0.00    +0.000 A 
ATOM     12  C   UNL     1       2.519   3.455  19.130  0.00  0.00    +0.000 A 
ATOM     13  C   UNL     1       2.739   4.815  19.086  0.00  0.00    +0.000 A 
ATOM     14  H   UNL     1       0.834   7.506  22.032  0.00  0.00    +0.000 HD
ENDROOT
BRANCH   1  18
ATOM     15  C   UNL     1      -0.056  11.868  19.651  0.00  0.00    +0.000 A 
ATOM     16  C   UNL     1       0.757  11.345  18.640  0.00  0.00    +0.000 A 
ATOM     17  C   UNL     1       1.323  10.065  18.754  0.00  0.00    +0.000 A 
ATOM     18  C   UNL     1       1.105   9.305  19.902  0.00  0.00    +0.000 A 
ATOM     19  C   UNL     1       0.298   9.849  20.919  0.00  0.00    +0.000 A 
ATOM     20  C   UNL     1      -0.275  11.118  20.799  0.00  0.00    +0.000 A 
BRANCH  15  22
ATOM     21  C   UNL     1      -1.516  13.576  20.385  0.00  0.00    +0.000 C 
ATOM     22  O   UNL     1      -0.559  13.122  19.432  0.00  0.00    +0.000 OA
ENDBRANCH  15  22
ENDBRANCH   1  18
BRANCH   9  23
ATOM     23  N   UNL     1       5.306   5.096  16.398  0.00  0.00    +0.000 N 
ATOM     24  C   UNL     1       6.661   4.907  16.621  0.00  0.00    +0.000 C 
ATOM     25  O   UNL     1       7.146   4.301  17.573  0.00  0.00    +0.000 OA
ATOM     26  H   UNL     1       5.105   5.342  15.431  0.00  0.00    +0.000 HD
BRANCH  24  27
ATOM     27  C   UNL     1       7.529   5.389  15.444  0.00  0.00    +0.000 C 
BRANCH  27  28
ATOM     28  N   UNL     1       6.900   5.070  14.132  0.00  0.00    +0.000 NA
ATOM     29  C   UNL     1       7.917   5.082  13.057  0.00  0.00    +0.000 C 
ATOM     30  C   UNL     1       7.230   4.884  11.709  0.00  0.00    +0.000 C 
ATOM     31  C   UNL     1       6.477   3.546  11.646  0.00  0.00    +0.000 C 
ATOM     32  C   UNL     1       5.533   3.451  12.857  0.00  0.00    +0.000 C 
ATOM     33  C   UNL     1       6.241   3.753  14.185  0.00  0.00    +0.000 C 
BRANCH  31  34
ATOM     34  C   UNL     1       7.420   2.329  11.585  0.00  0.00    +0.000 C 
BRANCH  34  35
ATOM     35  N   UNL     1       6.735   1.138  11.099  0.00  0.00    +0.000 NA
ATOM     36  H   UNL     1       7.395   0.531  10.617  0.00  0.00    +0.000 HD
ATOM     37  H   UNL     1       6.032   1.404  10.410  0.00  0.00    +0.000 HD
ENDBRANCH  34  35
ENDBRANCH  31  34
ENDBRANCH  27  28
ENDBRANCH  24  27
ENDBRANCH   9  23
TORSDOF 7
ENDMDL
MODEL 3
REMARK VINA RESULT:      -7.8      2.968      4.405
REMARK  Name = 
REMARK  8 active torsions:
REMARK  status: ('A' for Active; 'I' for Inactive)
REMARK    1  A    between atoms: C_1  and  O_2
REMARK    2  A    between atoms: O_2  and  C_3
REMARK    3  A    between atoms: C_6  and  C_7
REMARK    4  A    between atoms: C_15  and  N_16
REMARK    5  A    between atoms: C_17  and  C_19
REMARK    6  A    between atoms: C_19  and  N_20
REMARK    7  A    between atoms: C_23  and  C_24
REMARK    8  A    between atoms: C_24  and  N_25
REMARK                            x       y       z     vdW  Elec       q    Type
REMARK                         _______ _______ _______ _____ _____    ______ ____
ROOT
ATOM      1  C   UNL     1       2.880   5.948  18.379  0.00  0.00    +0.000 A 
ATOM      2  N   UNL     1       2.348   4.989  19.228  0.00  0.00    +0.000 N 
ATOM      3  N   UNL     1       1.764   5.486  20.343  0.00  0.00    +0.000 NA
ATOM      4  C   UNL     1       1.749   6.776  20.066  0.00  0.00    +0.000 A 
ATOM      5  C   UNL     1       2.296   7.111  18.822  0.00  0.00    +0.000 A 
ATOM      6  C   UNL     1       2.179   8.545  18.608  0.00  0.00    +0.000 C 
ATOM      7  O   UNL     1       2.714   9.210  17.740  0.00  0.00    +0.000 OA
ATOM      8  C   UNL     1       1.405   9.029  19.841  0.00  0.00    +0.000 A 
ATOM      9  C   UNL     1       0.932  10.272  20.231  0.00  0.00    +0.000 A 
ATOM     10  C   UNL     1       0.624  10.450  21.596  0.00  0.00    +0.000 A 
ATOM     11  C   UNL     1       0.673   9.384  22.513  0.00  0.00    +0.000 A 
ATOM     12  C   UNL     1       0.985   8.099  22.080  0.00  0.00    +0.000 A 
ATOM     13  C   UNL     1       1.324   7.948  20.752  0.00  0.00    +0.000 A 
ATOM     14  H   UNL     1       2.432   3.982  19.142  0.00  0.00    +0.000 HD
ENDROOT
BRANCH   1  18
ATOM     15  C   UNL     1       5.851   4.781  15.519  0.00  0.00    +0.000 A 
ATOM     16  C   UNL     1       5.562   6.137  15.711  0.00  0.00    +0.000 A 
ATOM     17  C   UNL     1       4.594   6.547  16.641  0.00  0.00    +0.000 A 
ATOM     18  C   UNL     1       3.879   5.598  17.370  0.00  0.00    +0.000 A 
ATOM     19  C   UNL     1       4.168   4.236  17.156  0.00  0.00    +0.000 A 
ATOM     20  C   UNL     1       5.140   3.829  16.239  0.00  0.00    +0.000 A 
BRANCH  15  22
ATOM     21  C   UNL     1       6.353   3.878  13.393  0.00  0.00    +0.000 C 
ATOM     22  O   UNL     1       6.816   4.496  14.591  0.00  0.00    +0.000 OA
ENDBRANCH  15  22
ENDBRANCH   1  18
BRANCH   9  23
ATOM     23  N   UNL     1       0.643  11.350  19.389  0.00  0.00    +0.000 N 
ATOM     24  C   UNL     1      -0.617  11.758  18.980  0.00  0.00    +0.000 C 
ATOM     25  O   UNL     1      -1.677  11.239  19.320  0.00  0.00    +0.000 OA
ATOM     26  H   UNL     1       1.346  12.074  19.252  0.00  0.00    +0.000 HD
BRANCH  24  27
ATOM     27  C   UNL     1      -0.583  13.067  18.169  0.00  0.00    +0.000 C 
BRANCH  27  28
ATOM     28  N   UNL     1       0.199  14.124  18.869  0.00  0.00    +0.000 NA
ATOM     29  C   UNL     1       1.523  14.293  18.232  0.00  0.00    +0.000 C 
ATOM     30  C   UNL     1       2.353  15.283  19.043  0.00  0.00    +0.000 C 
ATOM     31  C   UNL     1       1.676  16.661  19.123  0.00  0.00    +0.000 C 
ATOM     32  C   UNL     1       0.236  16.477  19.630  0.00  0.00    +0.000 C 
ATOM     33  C   UNL     1      -0.534  15.402  18.850  0.00  0.00    +0.000 C 
BRANCH  31  34
ATOM     34  C   UNL     1       1.696  17.417  17.780  0.00  0.00    +0.000 C 
BRANCH  34  35
ATOM     35  N   UNL     1       3.002  17.341  17.137  0.00  0.00    +0.000 NA
ATOM     36  H   UNL     1       3.202  18.215  16.654  0.00  0.00    +0.000 HD
ATOM     37  H   UNL     1       2.990  16.612  16.423  0.00  0.00    +0.000 HD
ENDBRANCH  34  35
ENDBRANCH  31  34
ENDBRANCH  27  28
ENDBRANCH  24  27
ENDBRANCH   9  23
TORSDOF 7
ENDMDL
MODEL 4
REMARK VINA RESULT:      -7.7      4.196      8.970
REMARK  Name = 
REMARK  8 active torsions:
REMARK  status: ('A' for Active; 'I' for Inactive)
REMARK    1  A    between atoms: C_1  and  O_2
REMARK    2  A    between atoms: O_2  and  C_3
REMARK    3  A    between atoms: C_6  and  C_7
REMARK    4  A    between atoms: C_15  and  N_16
REMARK    5  A    between atoms: C_17  and  C_19
REMARK    6  A    between atoms: C_19  and  N_20
REMARK    7  A    between atoms: C_23  and  C_24
REMARK    8  A    between atoms: C_24  and  N_25
REMARK                            x       y       z     vdW  Elec       q    Type
REMARK                         _______ _______ _______ _____ _____    ______ ____
ROOT
ATOM      1  C   UNL     1       0.846  14.105  20.630  0.00  0.00    +0.000 A 
ATOM      2  N   UNL     1       0.377  14.351  21.914  0.00  0.00    +0.000 N 
ATOM      3  N   UNL     1      -0.090  13.258  22.561  0.00  0.00    +0.000 NA
ATOM      4  C   UNL     1       0.298  12.296  21.744  0.00  0.00    +0.000 A 
ATOM      5  C   UNL     1       0.992  12.739  20.612  0.00  0.00    +0.000 A 
ATOM      6  C   UNL     1       1.409  11.593  19.817  0.00  0.00    +0.000 C 
ATOM      7  O   UNL     1       1.855  11.601  18.685  0.00  0.00    +0.000 OA
ATOM      8  C   UNL     1       0.963  10.392  20.660  0.00  0.00    +0.000 A 
ATOM      9  C   UNL     1       1.093   9.021  20.495  0.00  0.00    +0.000 A 
ATOM     10  C   UNL     1       0.223   8.193  21.234  0.00  0.00    +0.000 A 
ATOM     11  C   UNL     1      -0.662   8.716  22.195  0.00  0.00    +0.000 A 
ATOM     12  C   UNL     1      -0.667  10.078  22.477  0.00  0.00    +0.000 A 
ATOM     13  C   UNL     1       0.158  10.881  21.718  0.00  0.00    +0.000 A 
ATOM     14  H   UNL     1       0.270  15.254  22.362  0.00  0.00    +0.000 HD
ENDROOT
BRANCH   1  18
ATOM     15  C   UNL     1       1.442  17.321  17.861  0.00  0.00    +0.000 A 
ATOM     16  C   UNL     1       0.144  16.948  18.229  0.00  0.00    +0.000 A 
ATOM     17  C   UNL     1      -0.080  15.899  19.134  0.00  0.00    +0.000 A 
ATOM     18  C   UNL     1       0.998  15.187  19.659  0.00  0.00    +0.000 A 
ATOM     19  C   UNL     1       2.298  15.562  19.268  0.00  0.00    +0.000 A 
ATOM     20  C   UNL     1       2.520  16.614  18.377  0.00  0.00    +0.000 A 
BRANCH  15  22
ATOM     21  C   UNL     1       0.370  18.631  16.210  0.00  0.00    +0.000 C 
ATOM     22  O   UNL     1       1.542  18.360  16.976  0.00  0.00    +0.000 OA
ENDBRANCH  15  22
ENDBRANCH   1  18
BRANCH   9  23
ATOM     23  N   UNL     1       2.065   8.368  19.732  0.00  0.00    +0.000 N 
ATOM     24  C   UNL     1       2.061   8.215  18.354  0.00  0.00    +0.000 C 
ATOM     25  O   UNL     1       1.206   8.657  17.593  0.00  0.00    +0.000 OA
ATOM     26  H   UNL     1       2.985   8.205  20.136  0.00  0.00    +0.000 HD
BRANCH  24  27
ATOM     27  C   UNL     1       3.356   7.568  17.826  0.00  0.00    +0.000 C 
BRANCH  27  28
ATOM     28  N   UNL     1       3.320   6.085  17.957  0.00  0.00    +0.000 NA
ATOM     29  C   UNL     1       3.998   5.661  19.201  0.00  0.00    +0.000 C 
ATOM     30  C   UNL     1       4.064   4.137  19.248  0.00  0.00    +0.000 C 
ATOM     31  C   UNL     1       2.663   3.506  19.223  0.00  0.00    +0.000 C 
ATOM     32  C   UNL     1       1.888   4.069  18.019  0.00  0.00    +0.000 C 
ATOM     33  C   UNL     1       1.927   5.603  17.954  0.00  0.00    +0.000 C 
BRANCH  31  34
ATOM     34  C   UNL     1       1.883   3.725  20.533  0.00  0.00    +0.000 C 
BRANCH  34  35
ATOM     35  N   UNL     1       0.567   3.100  20.489  0.00  0.00    +0.000 NA
ATOM     36  H   UNL     1       0.318   2.752  21.413  0.00  0.00    +0.000 HD
ATOM     37  H   UNL     1       0.593   2.288  19.872  0.00  0.00    +0.000 HD
ENDBRANCH  34  35
ENDBRANCH  31  34
ENDBRANCH  27  28
ENDBRANCH  24  27
ENDBRANCH   9  23
TORSDOF 7
ENDMDL
MODEL 5
REMARK VINA RESULT:      -7.6      2.688      3.884
REMARK  Name = 
REMARK  8 active torsions:
REMARK  status: ('A' for Active; 'I' for Inactive)
REMARK    1  A    between atoms: C_1  and  O_2
REMARK    2  A    between atoms: O_2  and  C_3
REMARK    3  A    between atoms: C_6  and  C_7
REMARK    4  A    between atoms: C_15  and  N_16
REMARK    5  A    between atoms: C_17  and  C_19
REMARK    6  A    between atoms: C_19  and  N_20
REMARK    7  A    between atoms: C_23  and  C_24
REMARK    8  A    between atoms: C_24  and  N_25
REMARK                            x       y       z     vdW  Elec       q    Type
REMARK                         _______ _______ _______ _____ _____    ______ ____
ROOT
ATOM      1  C   UNL     1       3.003   5.811  18.413  0.00  0.00    +0.000 A 
ATOM      2  N   UNL     1       2.538   4.896  19.349  0.00  0.00    +0.000 N 
ATOM      3  N   UNL     1       1.963   5.451  20.440  0.00  0.00    +0.000 NA
ATOM      4  C   UNL     1       1.880   6.714  20.068  0.00  0.00    +0.000 A 
ATOM      5  C   UNL     1       2.378   6.977  18.786  0.00  0.00    +0.000 A 
ATOM      6  C   UNL     1       2.189   8.384  18.469  0.00  0.00    +0.000 C 
ATOM      7  O   UNL     1       2.669   9.003  17.537  0.00  0.00    +0.000 OA
ATOM      8  C   UNL     1       1.426   8.926  19.685  0.00  0.00    +0.000 A 
ATOM      9  C   UNL     1       0.907  10.173  19.995  0.00  0.00    +0.000 A 
ATOM     10  C   UNL     1       0.629  10.442  21.352  0.00  0.00    +0.000 A 
ATOM     11  C   UNL     1       0.752   9.452  22.344  0.00  0.00    +0.000 A 
ATOM     12  C   UNL     1       1.112   8.152  21.999  0.00  0.00    +0.000 A 
ATOM     13  C   UNL     1       1.421   7.915  20.677  0.00  0.00    +0.000 A 
ATOM     14  H   UNL     1       2.667   3.890  19.336  0.00  0.00    +0.000 HD
ENDROOT
BRANCH   1  18
ATOM     15  C   UNL     1       5.840   4.826  15.356  0.00  0.00    +0.000 A 
ATOM     16  C   UNL     1       5.256   3.809  16.120  0.00  0.00    +0.000 A 
ATOM     17  C   UNL     1       4.323   4.103  17.127  0.00  0.00    +0.000 A 
ATOM     18  C   UNL     1       3.989   5.428  17.403  0.00  0.00    +0.000 A 
ATOM     19  C   UNL     1       4.596   6.443  16.639  0.00  0.00    +0.000 A 
ATOM     20  C   UNL     1       5.514   6.149  15.629  0.00  0.00    +0.000 A 
BRANCH  15  22
ATOM     21  C   UNL     1       6.163   3.776  13.263  0.00  0.00    +0.000 C 
ATOM     22  O   UNL     1       6.731   4.425  14.399  0.00  0.00    +0.000 OA
ENDBRANCH  15  22
ENDBRANCH   1  18
BRANCH   9  23
ATOM     23  N   UNL     1       0.546  11.170  19.084  0.00  0.00    +0.000 N 
ATOM     24  C   UNL     1      -0.739  11.625  18.831  0.00  0.00    +0.000 C 
ATOM     25  O   UNL     1      -1.756  11.230  19.394  0.00  0.00    +0.000 OA
ATOM     26  H   UNL     1       1.257  11.818  18.750  0.00  0.00    +0.000 HD
BRANCH  24  27
ATOM     27  C   UNL     1      -0.763  12.830  17.871  0.00  0.00    +0.000 C 
BRANCH  27  28
ATOM     28  N   UNL     1      -0.324  14.080  18.551  0.00  0.00    +0.000 NA
ATOM     29  C   UNL     1      -0.966  14.197  19.879  0.00  0.00    +0.000 C 
ATOM     30  C   UNL     1      -0.605  15.544  20.498  0.00  0.00    +0.000 C 
ATOM     31  C   UNL     1       0.913  15.698  20.680  0.00  0.00    +0.000 C 
ATOM     32  C   UNL     1       1.604  15.414  19.336  0.00  0.00    +0.000 C 
ATOM     33  C   UNL     1       1.142  14.097  18.698  0.00  0.00    +0.000 C 
BRANCH  31  34
ATOM     34  C   UNL     1       1.477  14.795  21.793  0.00  0.00    +0.000 C 
BRANCH  34  35
ATOM     35  N   UNL     1       2.463  15.494  22.609  0.00  0.00    +0.000 NA
ATOM     36  H   UNL     1       3.327  14.956  22.645  0.00  0.00    +0.000 HD
ATOM     37  H   UNL     1       2.126  15.564  23.569  0.00  0.00    +0.000 HD
ENDBRANCH  34  35
ENDBRANCH  31  34
ENDBRANCH  27  28
ENDBRANCH  24  27
ENDBRANCH   9  23
TORSDOF 7
ENDMDL
MODEL 6
REMARK VINA RESULT:      -7.6      1.304      1.844
REMARK  Name = 
REMARK  8 active torsions:
REMARK  status: ('A' for Active; 'I' for Inactive)
REMARK    1  A    between atoms: C_1  and  O_2
REMARK    2  A    between atoms: O_2  and  C_3
REMARK    3  A    between atoms: C_6  and  C_7
REMARK    4  A    between atoms: C_15  and  N_16
REMARK    5  A    between atoms: C_17  and  C_19
REMARK    6  A    between atoms: C_19  and  N_20
REMARK    7  A    between atoms: C_23  and  C_24
REMARK    8  A    between atoms: C_24  and  N_25
REMARK                            x       y       z     vdW  Elec       q    Type
REMARK                         _______ _______ _______ _____ _____    ______ ____
ROOT
ATOM      1  C   UNL     1       3.332   5.904  18.356  0.00  0.00    +0.000 A 
ATOM      2  N   UNL     1       3.297   5.030  19.434  0.00  0.00    +0.000 N 
ATOM      3  N   UNL     1       2.791   5.559  20.571  0.00  0.00    +0.000 NA
ATOM      4  C   UNL     1       2.311   6.705  20.125  0.00  0.00    +0.000 A 
ATOM      5  C   UNL     1       2.493   6.917  18.754  0.00  0.00    +0.000 A 
ATOM      6  C   UNL     1       1.883   8.181  18.371  0.00  0.00    +0.000 C 
ATOM      7  O   UNL     1       2.013   8.776  17.317  0.00  0.00    +0.000 OA
ATOM      8  C   UNL     1       1.224   8.668  19.668  0.00  0.00    +0.000 A 
ATOM      9  C   UNL     1       0.452   9.777  19.977  0.00  0.00    +0.000 A 
ATOM     10  C   UNL     1       0.349  10.138  21.337  0.00  0.00    +0.000 A 
ATOM     11  C   UNL     1       0.900   9.344  22.359  0.00  0.00    +0.000 A 
ATOM     12  C   UNL     1       1.529   8.141  22.053  0.00  0.00    +0.000 A 
ATOM     13  C   UNL     1       1.659   7.822  20.717  0.00  0.00    +0.000 A 
ATOM     14  H   UNL     1       3.685   4.094  19.474  0.00  0.00    +0.000 HD
ENDROOT
BRANCH   1  18
ATOM     15  C   UNL     1       5.928   5.026  15.061  0.00  0.00    +0.000 A 
ATOM     16  C   UNL     1       5.600   6.354  15.356  0.00  0.00    +0.000 A 
ATOM     17  C   UNL     1       4.752   6.670  16.429  0.00  0.00    +0.000 A 
ATOM     18  C   UNL     1       4.196   5.652  17.203  0.00  0.00    +0.000 A 
ATOM     19  C   UNL     1       4.522   4.319  16.887  0.00  0.00    +0.000 A 
ATOM     20  C   UNL     1       5.375   4.007  15.826  0.00  0.00    +0.000 A 
BRANCH  15  22
ATOM     21  C   UNL     1       6.400   3.783  13.107  0.00  0.00    +0.000 C 
ATOM     22  O   UNL     1       6.766   4.835  13.997  0.00  0.00    +0.000 OA
ENDBRANCH  15  22
ENDBRANCH   1  18
BRANCH   9  23
ATOM     23  N   UNL     1      -0.314  10.529  19.081  0.00  0.00    +0.000 N 
ATOM     24  C   UNL     1      -0.145  11.872  18.783  0.00  0.00    +0.000 C 
ATOM     25  O   UNL     1       0.727  12.599  19.250  0.00  0.00    +0.000 OA
ATOM     26  H   UNL     1      -0.874  10.046  18.382  0.00  0.00    +0.000 HD
BRANCH  24  27
ATOM     27  C   UNL     1      -1.070  12.348  17.647  0.00  0.00    +0.000 C 
BRANCH  27  28
ATOM     28  N   UNL     1      -2.358  11.601  17.640  0.00  0.00    +0.000 NA
ATOM     29  C   UNL     1      -3.289  12.170  18.639  0.00  0.00    +0.000 C 
ATOM     30  C   UNL     1      -4.547  11.309  18.706  0.00  0.00    +0.000 C 
ATOM     31  C   UNL     1      -5.270  11.253  17.351  0.00  0.00    +0.000 C 
ATOM     32  C   UNL     1      -4.264  10.820  16.271  0.00  0.00    +0.000 C 
ATOM     33  C   UNL     1      -2.971  11.646  16.300  0.00  0.00    +0.000 C 
BRANCH  31  34
ATOM     34  C   UNL     1      -5.944  12.586  16.975  0.00  0.00    +0.000 C 
BRANCH  34  35
ATOM     35  N   UNL     1      -7.097  12.867  17.821  0.00  0.00    +0.000 NA
ATOM     36  H   UNL     1      -7.642  13.629  17.423  0.00  0.00    +0.000 HD
ATOM     37  H   UNL     1      -6.780  13.185  18.737  0.00  0.00    +0.000 HD
ENDBRANCH  34  35
ENDBRANCH  31  34
ENDBRANCH  27  28
ENDBRANCH  24  27
ENDBRANCH   9  23
TORSDOF 7
ENDMDL
MODEL 7
REMARK VINA RESULT:      -7.6      2.333      3.273
REMARK  Name = 
REMARK  8 active torsions:
REMARK  status: ('A' for Active; 'I' for Inactive)
REMARK    1  A    between atoms: C_1  and  O_2
REMARK    2  A    between atoms: O_2  and  C_3
REMARK    3  A    between atoms: C_6  and  C_7
REMARK    4  A    between atoms: C_15  and  N_16
REMARK    5  A    between atoms: C_17  and  C_19
REMARK    6  A    between atoms: C_19  and  N_20
REMARK    7  A    between atoms: C_23  and  C_24
REMARK    8  A    between atoms: C_24  and  N_25
REMARK                            x       y       z     vdW  Elec       q    Type
REMARK                         _______ _______ _______ _____ _____    ______ ____
ROOT
ATOM      1  C   UNL     1       3.259   5.819  18.189  0.00  0.00    +0.000 A 
ATOM      2  N   UNL     1       2.969   4.881  19.171  0.00  0.00    +0.000 N 
ATOM      3  N   UNL     1       2.437   5.396  20.302  0.00  0.00    +0.000 NA
ATOM      4  C   UNL     1       2.197   6.639  19.925  0.00  0.00    +0.000 A 
ATOM      5  C   UNL     1       2.555   6.924  18.603  0.00  0.00    +0.000 A 
ATOM      6  C   UNL     1       2.200   8.300  18.288  0.00  0.00    +0.000 C 
ATOM      7  O   UNL     1       2.534   8.946  17.312  0.00  0.00    +0.000 OA
ATOM      8  C   UNL     1       1.493   8.787  19.560  0.00  0.00    +0.000 A 
ATOM      9  C   UNL     1       0.880   9.983  19.901  0.00  0.00    +0.000 A 
ATOM     10  C   UNL     1       0.693  10.248  21.274  0.00  0.00    +0.000 A 
ATOM     11  C   UNL     1       0.998   9.294  22.262  0.00  0.00    +0.000 A 
ATOM     12  C   UNL     1       1.455   8.030  21.901  0.00  0.00    +0.000 A 
ATOM     13  C   UNL     1       1.673   7.800  20.559  0.00  0.00    +0.000 A 
ATOM     14  H   UNL     1       3.196   3.892  19.157  0.00  0.00    +0.000 HD
ENDROOT
BRANCH   1  18
ATOM     15  C   UNL     1       6.036   4.791  15.091  0.00  0.00    +0.000 A 
ATOM     16  C   UNL     1       5.744   6.135  15.349  0.00  0.00    +0.000 A 
ATOM     17  C   UNL     1       4.838   6.500  16.358  0.00  0.00    +0.000 A 
ATOM     18  C   UNL     1       4.188   5.516  17.102  0.00  0.00    +0.000 A 
ATOM     19  C   UNL     1       4.479   4.167  16.822  0.00  0.00    +0.000 A 
ATOM     20  C   UNL     1       5.389   3.805  15.827  0.00  0.00    +0.000 A 
BRANCH  15  22
ATOM     21  C   UNL     1       6.438   3.806  12.980  0.00  0.00    +0.000 C 
ATOM     22  O   UNL     1       6.936   4.551  14.090  0.00  0.00    +0.000 OA
ENDBRANCH  15  22
ENDBRANCH   1  18
BRANCH   9  23
ATOM     23  N   UNL     1       0.345  10.922  19.014  0.00  0.00    +0.000 N 
ATOM     24  C   UNL     1      -0.932  10.908  18.476  0.00  0.00    +0.000 C 
ATOM     25  O   UNL     1      -1.797  10.072  18.721  0.00  0.00    +0.000 OA
ATOM     26  H   UNL     1       0.788  11.834  18.933  0.00  0.00    +0.000 HD
BRANCH  24  27
ATOM     27  C   UNL     1      -1.240  12.170  17.648  0.00  0.00    +0.000 C 
BRANCH  27  28
ATOM     28  N   UNL     1      -1.262  13.391  18.499  0.00  0.00    +0.000 NA
ATOM     29  C   UNL     1      -1.744  13.063  19.859  0.00  0.00    +0.000 C 
ATOM     30  C   UNL     1      -1.882  14.348  20.670  0.00  0.00    +0.000 C 
ATOM     31  C   UNL     1      -0.542  15.087  20.798  0.00  0.00    +0.000 C 
ATOM     32  C   UNL     1       0.050  15.288  19.392  0.00  0.00    +0.000 C 
ATOM     33  C   UNL     1       0.082  13.990  18.573  0.00  0.00    +0.000 C 
BRANCH  31  34
ATOM     34  C   UNL     1       0.458  14.361  21.719  0.00  0.00    +0.000 C 
BRANCH  34  35
ATOM     35  N   UNL     1      -0.126  14.062  23.020  0.00  0.00    +0.000 NA
ATOM     36  H   UNL     1       0.512  14.348  23.761  0.00  0.00    +0.000 HD
ATOM     37  H   UNL     1      -0.248  13.054  23.118  0.00  0.00    +0.000 HD
ENDBRANCH  34  35
ENDBRANCH  31  34
ENDBRANCH  27  28
ENDBRANCH  24  27
ENDBRANCH   9  23
TORSDOF 7
ENDMDL
MODEL 8
REMARK VINA RESULT:      -7.5      2.238      3.255
REMARK  Name = 
REMARK  8 active torsions:
REMARK  status: ('A' for Active; 'I' for Inactive)
REMARK    1  A    between atoms: C_1  and  O_2
REMARK    2  A    between atoms: O_2  and  C_3
REMARK    3  A    between atoms: C_6  and  C_7
REMARK    4  A    between atoms: C_15  and  N_16
REMARK    5  A    between atoms: C_17  and  C_19
REMARK    6  A    between atoms: C_19  and  N_20
REMARK    7  A    between atoms: C_23  and  C_24
REMARK    8  A    between atoms: C_24  and  N_25
REMARK                            x       y       z     vdW  Elec       q    Type
REMARK                         _______ _______ _______ _____ _____    ______ ____
ROOT
ATOM      1  C   UNL     1       1.458   8.271  20.564  0.00  0.00    +0.000 A 
ATOM      2  N   UNL     1       1.689   8.585  21.897  0.00  0.00    +0.000 N 
ATOM      3  N   UNL     1       1.449   9.876  22.220  0.00  0.00    +0.000 NA
ATOM      4  C   UNL     1       0.858  10.306  21.121  0.00  0.00    +0.000 A 
ATOM      5  C   UNL     1       0.714   9.338  20.121  0.00  0.00    +0.000 A 
ATOM      6  C   UNL     1       0.009   9.911  18.985  0.00  0.00    +0.000 C 
ATOM      7  O   UNL     1      -0.120   9.430  17.874  0.00  0.00    +0.000 OA
ATOM      8  C   UNL     1      -0.342  11.327  19.459  0.00  0.00    +0.000 A 
ATOM      9  C   UNL     1      -1.043  12.372  18.877  0.00  0.00    +0.000 A 
ATOM     10  C   UNL     1      -0.835  13.665  19.401  0.00  0.00    +0.000 A 
ATOM     11  C   UNL     1      -0.048  13.883  20.547  0.00  0.00    +0.000 A 
ATOM     12  C   UNL     1       0.516  12.809  21.227  0.00  0.00    +0.000 A 
ATOM     13  C   UNL     1       0.340  11.555  20.679  0.00  0.00    +0.000 A 
ATOM     14  H   UNL     1       2.093   7.982  22.605  0.00  0.00    +0.000 HD
ENDROOT
BRANCH   1  18
ATOM     15  C   UNL     1       3.114   4.827  18.624  0.00  0.00    +0.000 A 
ATOM     16  C   UNL     1       2.509   4.697  19.880  0.00  0.00    +0.000 A 
ATOM     17  C   UNL     1       1.959   5.808  20.537  0.00  0.00    +0.000 A 
ATOM     18  C   UNL     1       2.036   7.073  19.956  0.00  0.00    +0.000 A 
ATOM     19  C   UNL     1       2.661   7.193  18.700  0.00  0.00    +0.000 A 
ATOM     20  C   UNL     1       3.198   6.085  18.041  0.00  0.00    +0.000 A 
BRANCH  15  22
ATOM     21  C   UNL     1       4.028   2.680  19.004  0.00  0.00    +0.000 C 
ATOM     22  O   UNL     1       3.612   3.677  18.074  0.00  0.00    +0.000 OA
ENDBRANCH  15  22
ENDBRANCH   1  18
BRANCH   9  23
ATOM     23  N   UNL     1      -2.008  12.264  17.872  0.00  0.00    +0.000 N 
ATOM     24  C   UNL     1      -2.937  11.245  17.732  0.00  0.00    +0.000 C 
ATOM     25  O   UNL     1      -3.064  10.290  18.493  0.00  0.00    +0.000 OA
ATOM     26  H   UNL     1      -2.260  13.092  17.336  0.00  0.00    +0.000 HD
BRANCH  24  27
ATOM     27  C   UNL     1      -3.943  11.511  16.596  0.00  0.00    +0.000 C 
BRANCH  27  28
ATOM     28  N   UNL     1      -5.345  11.519  17.098  0.00  0.00    +0.000 NA
ATOM     29  C   UNL     1      -5.475  10.636  18.278  0.00  0.00    +0.000 C 
ATOM     30  C   UNL     1      -6.941  10.557  18.692  0.00  0.00    +0.000 C 
ATOM     31  C   UNL     1      -7.504  11.939  19.059  0.00  0.00    +0.000 C 
ATOM     32  C   UNL     1      -7.225  12.911  17.900  0.00  0.00    +0.000 C 
ATOM     33  C   UNL     1      -5.758  12.889  17.449  0.00  0.00    +0.000 C 
BRANCH  31  34
ATOM     34  C   UNL     1      -6.937  12.483  20.385  0.00  0.00    +0.000 C 
BRANCH  34  35
ATOM     35  N   UNL     1      -7.239  11.600  21.504  0.00  0.00    +0.000 NA
ATOM     36  H   UNL     1      -6.862  10.671  21.324  0.00  0.00    +0.000 HD
ATOM     37  H   UNL     1      -8.249  11.490  21.591  0.00  0.00    +0.000 HD
ENDBRANCH  34  35
ENDBRANCH  31  34
ENDBRANCH  27  28
ENDBRANCH  24  27
ENDBRANCH   9  23
TORSDOF 7
ENDMDL
MODEL 9
REMARK VINA RESULT:      -7.5      3.041      4.400
REMARK  Name = 
REMARK  8 active torsions:
REMARK  status: ('A' for Active; 'I' for Inactive)
REMARK    1  A    between atoms: C_1  and  O_2
REMARK    2  A    between atoms: O_2  and  C_3
REMARK    3  A    between atoms: C_6  and  C_7
REMARK    4  A    between atoms: C_15  and  N_16
REMARK    5  A    between atoms: C_17  and  C_19
REMARK    6  A    between atoms: C_19  and  N_20
REMARK    7  A    between atoms: C_23  and  C_24
REMARK    8  A    between atoms: C_24  and  N_25
REMARK                            x       y       z     vdW  Elec       q    Type
REMARK                         _______ _______ _______ _____ _____    ______ ____
ROOT
ATOM      1  C   UNL     1       2.864   6.279  19.054  0.00  0.00    +0.000 A 
ATOM      2  N   UNL     1       2.219   5.301  19.798  0.00  0.00    +0.000 N 
ATOM      3  N   UNL     1       1.441   5.776  20.797  0.00  0.00    +0.000 NA
ATOM      4  C   UNL     1       1.440   7.068  20.524  0.00  0.00    +0.000 A 
ATOM      5  C   UNL     1       2.183   7.423  19.393  0.00  0.00    +0.000 A 
ATOM      6  C   UNL     1       2.068   8.855  19.164  0.00  0.00    +0.000 C 
ATOM      7  O   UNL     1       2.726   9.539  18.402  0.00  0.00    +0.000 OA
ATOM      8  C   UNL     1       1.081   9.312  20.247  0.00  0.00    +0.000 A 
ATOM      9  C   UNL     1       0.517  10.541  20.553  0.00  0.00    +0.000 A 
ATOM     10  C   UNL     1      -0.024  10.703  21.846  0.00  0.00    +0.000 A 
ATOM     11  C   UNL     1      -0.106   9.633  22.755  0.00  0.00    +0.000 A 
ATOM     12  C   UNL     1       0.309   8.359  22.380  0.00  0.00    +0.000 A 
ATOM     13  C   UNL     1       0.874   8.224  21.129  0.00  0.00    +0.000 A 
ATOM     14  H   UNL     1       2.343   4.297  19.726  0.00  0.00    +0.000 HD
ENDROOT
BRANCH   1  18
ATOM     15  C   UNL     1       6.182   5.373  16.497  0.00  0.00    +0.000 A 
ATOM     16  C   UNL     1       6.050   4.718  17.727  0.00  0.00    +0.000 A 
ATOM     17  C   UNL     1       4.973   4.995  18.583  0.00  0.00    +0.000 A 
ATOM     18  C   UNL     1       4.029   5.959  18.230  0.00  0.00    +0.000 A 
ATOM     19  C   UNL     1       4.183   6.622  16.997  0.00  0.00    +0.000 A 
ATOM     20  C   UNL     1       5.248   6.337  16.140  0.00  0.00    +0.000 A 
BRANCH  15  22
ATOM     21  C   UNL     1       7.012   4.834  14.350  0.00  0.00    +0.000 C 
ATOM     22  O   UNL     1       7.266   5.021  15.740  0.00  0.00    +0.000 OA
ENDBRANCH  15  22
ENDBRANCH   1  18
BRANCH   9  23
ATOM     23  N   UNL     1       0.348  11.616  19.676  0.00  0.00    +0.000 N 
ATOM     24  C   UNL     1      -0.719  11.814  18.814  0.00  0.00    +0.000 C 
ATOM     25  O   UNL     1      -1.695  11.076  18.711  0.00  0.00    +0.000 OA
ATOM     26  H   UNL     1       0.883  12.469  19.830  0.00  0.00    +0.000 HD
BRANCH  24  27
ATOM     27  C   UNL     1      -0.656  13.174  18.094  0.00  0.00    +0.000 C 
BRANCH  27  28
ATOM     28  N   UNL     1       0.280  14.112  18.775  0.00  0.00    +0.000 NA
ATOM     29  C   UNL     1       1.634  14.003  18.189  0.00  0.00    +0.000 C 
ATOM     30  C   UNL     1       2.602  14.872  18.986  0.00  0.00    +0.000 C 
ATOM     31  C   UNL     1       2.185  16.351  18.967  0.00  0.00    +0.000 C 
ATOM     32  C   UNL     1       0.719  16.459  19.418  0.00  0.00    +0.000 C 
ATOM     33  C   UNL     1      -0.207  15.498  18.659  0.00  0.00    +0.000 C 
BRANCH  31  34
ATOM     34  C   UNL     1       2.389  17.013  17.590  0.00  0.00    +0.000 C 
BRANCH  34  35
ATOM     35  N   UNL     1       1.681  18.284  17.492  0.00  0.00    +0.000 NA
ATOM     36  H   UNL     1       1.986  18.908  18.236  0.00  0.00    +0.000 HD
ATOM     37  H   UNL     1       0.683  18.131  17.633  0.00  0.00    +0.000 HD
ENDBRANCH  34  35
ENDBRANCH  31  34
ENDBRANCH  27  28
ENDBRANCH  24  27
ENDBRANCH   9  23
TORSDOF 7
ENDMDL
