MODEL 1
REMARK VINA RESULT:      -6.7      0.000      0.000
REMARK  Name = 
REMARK  7 active torsions:
REMARK  status: ('A' for Active; 'I' for Inactive)
REMARK    1  A    between atoms: C_1  and  C_2
REMARK    2  A    between atoms: C_5  and  S_6
REMARK    3  A    between atoms: S_6  and  N_9
REMARK    4  A    between atoms: C_15  and  C_16
REMARK    5  A    between atoms: C_16  and  C_17
REMARK    6  A    between atoms: C_17  and  C_18
REMARK    7  A    between atoms: C_17  and  C_19
REMARK                            x       y       z     vdW  Elec       q    Type
REMARK                         _______ _______ _______ _____ _____    ______ ____
ROOT
ATOM      1  N   UNL     1       3.507   4.398  17.399  0.00  0.00    +0.000 NA
ATOM      2  C   UNL     1       2.397   3.437  17.302  0.00  0.00    +0.000 C 
ATOM      3  C   UNL     1       2.217   2.743  18.645  0.00  0.00    +0.000 C 
ATOM      4  C   UNL     1       2.039   3.777  19.750  0.00  0.00    +0.000 C 
ATOM      5 BR   UNL     1       1.864   2.865  21.470  0.00  0.00    +0.000 Br
ATOM      6  C   UNL     1       3.219   4.744  19.801  0.00  0.00    +0.000 C 
ATOM      7  C   UNL     1       3.416   5.452  18.448  0.00  0.00    +0.000 C 
ENDROOT
BRANCH   1   8
ATOM      8  S   UNL     1       4.912   4.135  16.503  0.00  0.00    +0.000 S 
ATOM      9  O   UNL     1       4.632   4.450  15.116  0.00  0.00    +0.000 OA
ATOM     10  O   UNL     1       5.478   2.856  16.878  0.00  0.00    +0.000 OA
BRANCH   8  15
ATOM     11  C   UNL     1       8.613   8.503  18.568  0.00  0.00    +0.000 C 
ATOM     12  C   UNL     1       7.679   7.430  18.087  0.00  0.00    +0.000 A 
ATOM     13  C   UNL     1       6.686   7.723  17.142  0.00  0.00    +0.000 A 
ATOM     14  C   UNL     1       5.844   6.719  16.661  0.00  0.00    +0.000 A 
ATOM     15  C   UNL     1       5.997   5.409  17.120  0.00  0.00    +0.000 A 
ATOM     16  C   UNL     1       6.947   5.112  18.105  0.00  0.00    +0.000 A 
ATOM     17  C   UNL     1       7.792   6.122  18.576  0.00  0.00    +0.000 A 
ENDBRANCH   8  15
ENDBRANCH   1   8
BRANCH   7  18
ATOM     18  C   UNL     1       2.293   6.456  18.098  0.00  0.00    +0.000 C 
BRANCH  18  19
ATOM     19  C   UNL     1       2.444   7.880  18.682  0.00  0.00    +0.000 C 
ATOM     20  C   UNL     1       1.850   8.954  17.771  0.00  0.00    +0.000 C 
ATOM     21  C   UNL     1       1.789   7.947  20.066  0.00  0.00    +0.000 C 
ENDBRANCH  18  19
ENDBRANCH   7  18
TORSDOF 4
ENDMDL
MODEL 2
REMARK VINA RESULT:      -6.7      0.249      1.084
REMARK  Name = 
REMARK  7 active torsions:
REMARK  status: ('A' for Active; 'I' for Inactive)
REMARK    1  A    between atoms: C_1  and  C_2
REMARK    2  A    between atoms: C_5  and  S_6
REMARK    3  A    between atoms: S_6  and  N_9
REMARK    4  A    between atoms: C_15  and  C_16
REMARK    5  A    between atoms: C_16  and  C_17
REMARK    6  A    between atoms: C_17  and  C_18
REMARK    7  A    between atoms: C_17  and  C_19
REMARK                            x       y       z     vdW  Elec       q    Type
REMARK                         _______ _______ _______ _____ _____    ______ ____
ROOT
ATOM      1  N   UNL     1       3.717   4.482  17.344  0.00  0.00    +0.000 NA
ATOM      2  C   UNL     1       2.663   3.458  17.250  0.00  0.00    +0.000 C 
ATOM      3  C   UNL     1       2.541   2.742  18.588  0.00  0.00    +0.000 C 
ATOM      4  C   UNL     1       2.318   3.752  19.706  0.00  0.00    +0.000 C 
ATOM      5 BR   UNL     1       2.219   2.815  21.417  0.00  0.00    +0.000 Br
ATOM      6  C   UNL     1       3.441   4.786  19.753  0.00  0.00    +0.000 C 
ATOM      7  C   UNL     1       3.579   5.517  18.405  0.00  0.00    +0.000 C 
ENDROOT
BRANCH   1   8
ATOM      8  S   UNL     1       5.123   4.309  16.427  0.00  0.00    +0.000 S 
ATOM      9  O   UNL     1       4.823   4.685  15.060  0.00  0.00    +0.000 OA
ATOM     10  O   UNL     1       5.732   3.032  16.733  0.00  0.00    +0.000 OA
BRANCH   8  15
ATOM     11  C   UNL     1       8.699   8.640  18.775  0.00  0.00    +0.000 C 
ATOM     12  C   UNL     1       7.840   7.567  18.168  0.00  0.00    +0.000 A 
ATOM     13  C   UNL     1       7.912   6.248  18.639  0.00  0.00    +0.000 A 
ATOM     14  C   UNL     1       7.085   5.258  18.107  0.00  0.00    +0.000 A 
ATOM     15  C   UNL     1       6.172   5.584  17.102  0.00  0.00    +0.000 A 
ATOM     16  C   UNL     1       6.127   6.884  16.584  0.00  0.00    +0.000 A 
ATOM     17  C   UNL     1       6.954   7.873  17.126  0.00  0.00    +0.000 A 
ENDBRANCH   8  15
ENDBRANCH   1   8
BRANCH   7  18
ATOM     18  C   UNL     1       2.395   6.458  18.080  0.00  0.00    +0.000 C 
BRANCH  18  19
ATOM     19  C   UNL     1       2.474   7.884  18.672  0.00  0.00    +0.000 C 
ATOM     20  C   UNL     1       1.828   8.933  17.766  0.00  0.00    +0.000 C 
ATOM     21  C   UNL     1       1.815   7.911  20.055  0.00  0.00    +0.000 C 
ENDBRANCH  18  19
ENDBRANCH   7  18
TORSDOF 4
ENDMDL
MODEL 3
REMARK VINA RESULT:      -6.5      2.521      4.218
REMARK  Name = 
REMARK  7 active torsions:
REMARK  status: ('A' for Active; 'I' for Inactive)
REMARK    1  A    between atoms: C_1  and  C_2
REMARK    2  A    between atoms: C_5  and  S_6
REMARK    3  A    between atoms: S_6  and  N_9
REMARK    4  A    between atoms: C_15  and  C_16
REMARK    5  A    between atoms: C_16  and  C_17
REMARK    6  A    between atoms: C_17  and  C_18
REMARK    7  A    between atoms: C_17  and  C_19
REMARK                            x       y       z     vdW  Elec       q    Type
REMARK                         _______ _______ _______ _____ _____    ______ ____
ROOT
ATOM      1  N   UNL     1       3.712   5.116  18.968  0.00  0.00    +0.000 NA
ATOM      2  C   UNL     1       3.037   5.662  20.157  0.00  0.00    +0.000 C 
ATOM      3  C   UNL     1       2.740   7.138  19.929  0.00  0.00    +0.000 C 
ATOM      4  C   UNL     1       1.955   7.323  18.638  0.00  0.00    +0.000 C 
ATOM      5 BR   UNL     1       1.634   9.227  18.340  0.00  0.00    +0.000 Br
ATOM      6  C   UNL     1       2.704   6.737  17.443  0.00  0.00    +0.000 C 
ATOM      7  C   UNL     1       3.013   5.245  17.659  0.00  0.00    +0.000 C 
ENDROOT
BRANCH   1   8
ATOM      8  S   UNL     1       5.312   4.592  19.091  0.00  0.00    +0.000 S 
ATOM      9  O   UNL     1       5.304   3.201  19.497  0.00  0.00    +0.000 OA
ATOM     10  O   UNL     1       6.076   5.579  19.824  0.00  0.00    +0.000 OA
BRANCH   8  15
ATOM     11  C   UNL     1       7.164   4.798  13.297  0.00  0.00    +0.000 C 
ATOM     12  C   UNL     1       6.733   4.723  14.734  0.00  0.00    +0.000 A 
ATOM     13  C   UNL     1       7.163   5.688  15.656  0.00  0.00    +0.000 A 
ATOM     14  C   UNL     1       6.729   5.646  16.982  0.00  0.00    +0.000 A 
ATOM     15  C   UNL     1       5.854   4.638  17.393  0.00  0.00    +0.000 A 
ATOM     16  C   UNL     1       5.461   3.637  16.498  0.00  0.00    +0.000 A 
ATOM     17  C   UNL     1       5.894   3.689  15.169  0.00  0.00    +0.000 A 
ENDBRANCH   8  15
ENDBRANCH   1   8
BRANCH   7  18
ATOM     18  C   UNL     1       1.762   4.336  17.631  0.00  0.00    +0.000 C 
BRANCH  18  19
ATOM     19  C   UNL     1       1.847   3.032  18.457  0.00  0.00    +0.000 C 
ATOM     20  C   UNL     1       0.474   2.530  18.906  0.00  0.00    +0.000 C 
ATOM     21  C   UNL     1       2.559   1.946  17.643  0.00  0.00    +0.000 C 
ENDBRANCH  18  19
ENDBRANCH   7  18
TORSDOF 4
ENDMDL
MODEL 4
REMARK VINA RESULT:      -6.5      2.518      4.251
REMARK  Name = 
REMARK  7 active torsions:
REMARK  status: ('A' for Active; 'I' for Inactive)
REMARK    1  A    between atoms: C_1  and  C_2
REMARK    2  A    between atoms: C_5  and  S_6
REMARK    3  A    between atoms: S_6  and  N_9
REMARK    4  A    between atoms: C_15  and  C_16
REMARK    5  A    between atoms: C_16  and  C_17
REMARK    6  A    between atoms: C_17  and  C_18
REMARK    7  A    between atoms: C_17  and  C_19
REMARK                            x       y       z     vdW  Elec       q    Type
REMARK                         _______ _______ _______ _____ _____    ______ ____
ROOT
ATOM      1  N   UNL     1       3.716   5.111  18.982  0.00  0.00    +0.000 NA
ATOM      2  C   UNL     1       3.046   5.662  20.170  0.00  0.00    +0.000 C 
ATOM      3  C   UNL     1       2.748   7.137  19.937  0.00  0.00    +0.000 C 
ATOM      4  C   UNL     1       1.957   7.316  18.648  0.00  0.00    +0.000 C 
ATOM      5 BR   UNL     1       1.634   9.219  18.343  0.00  0.00    +0.000 Br
ATOM      6  C   UNL     1       2.701   6.725  17.453  0.00  0.00    +0.000 C 
ATOM      7  C   UNL     1       3.012   5.233  17.675  0.00  0.00    +0.000 C 
ENDROOT
BRANCH   1   8
ATOM      8  S   UNL     1       5.317   4.588  19.100  0.00  0.00    +0.000 S 
ATOM      9  O   UNL     1       5.311   3.195  19.497  0.00  0.00    +0.000 OA
ATOM     10  O   UNL     1       6.080   5.572  19.839  0.00  0.00    +0.000 OA
BRANCH   8  15
ATOM     11  C   UNL     1       7.166   4.740  13.303  0.00  0.00    +0.000 C 
ATOM     12  C   UNL     1       6.683   4.726  14.725  0.00  0.00    +0.000 A 
ATOM     13  C   UNL     1       5.855   3.692  15.184  0.00  0.00    +0.000 A 
ATOM     14  C   UNL     1       5.439   3.652  16.516  0.00  0.00    +0.000 A 
ATOM     15  C   UNL     1       5.858   4.647  17.402  0.00  0.00    +0.000 A 
ATOM     16  C   UNL     1       6.639   5.715  16.945  0.00  0.00    +0.000 A 
ATOM     17  C   UNL     1       7.057   5.745  15.611  0.00  0.00    +0.000 A 
ENDBRANCH   8  15
ENDBRANCH   1   8
BRANCH   7  18
ATOM     18  C   UNL     1       1.761   4.324  17.657  0.00  0.00    +0.000 C 
BRANCH  18  19
ATOM     19  C   UNL     1       1.857   3.015  18.473  0.00  0.00    +0.000 C 
ATOM     20  C   UNL     1       0.489   2.501  18.923  0.00  0.00    +0.000 C 
ATOM     21  C   UNL     1       2.574   1.939  17.649  0.00  0.00    +0.000 C 
ENDBRANCH  18  19
ENDBRANCH   7  18
TORSDOF 4
ENDMDL
MODEL 5
REMARK VINA RESULT:      -6.4      2.258      3.145
REMARK  Name = 
REMARK  7 active torsions:
REMARK  status: ('A' for Active; 'I' for Inactive)
REMARK    1  A    between atoms: C_1  and  C_2
REMARK    2  A    between atoms: C_5  and  S_6
REMARK    3  A    between atoms: S_6  and  N_9
REMARK    4  A    between atoms: C_15  and  C_16
REMARK    5  A    between atoms: C_16  and  C_17
REMARK    6  A    between atoms: C_17  and  C_18
REMARK    7  A    between atoms: C_17  and  C_19
REMARK                            x       y       z     vdW  Elec       q    Type
REMARK                         _______ _______ _______ _____ _____    ______ ____
ROOT
ATOM      1  N   UNL     1       4.228   5.063  18.228  0.00  0.00    +0.000 NA
ATOM      2  C   UNL     1       3.512   3.907  17.664  0.00  0.00    +0.000 C 
ATOM      3  C   UNL     1       2.954   3.061  18.801  0.00  0.00    +0.000 C 
ATOM      4  C   UNL     1       2.102   3.921  19.726  0.00  0.00    +0.000 C 
ATOM      5 BR   UNL     1       1.444   2.826  21.204  0.00  0.00    +0.000 Br
ATOM      6  C   UNL     1       2.898   5.101  20.277  0.00  0.00    +0.000 C 
ATOM      7  C   UNL     1       3.471   5.965  19.139  0.00  0.00    +0.000 C 
ENDROOT
BRANCH   1   8
ATOM      8  S   UNL     1       5.898   5.186  18.016  0.00  0.00    +0.000 S 
ATOM      9  O   UNL     1       6.532   4.136  18.787  0.00  0.00    +0.000 OA
ATOM     10  O   UNL     1       6.292   6.570  18.175  0.00  0.00    +0.000 OA
BRANCH   8  15
ATOM     11  C   UNL     1       6.533   3.698  12.149  0.00  0.00    +0.000 C 
ATOM     12  C   UNL     1       6.368   4.099  13.587  0.00  0.00    +0.000 A 
ATOM     13  C   UNL     1       5.178   3.814  14.271  0.00  0.00    +0.000 A 
ATOM     14  C   UNL     1       5.036   4.146  15.619  0.00  0.00    +0.000 A 
ATOM     15  C   UNL     1       6.092   4.761  16.295  0.00  0.00    +0.000 A 
ATOM     16  C   UNL     1       7.265   5.102  15.611  0.00  0.00    +0.000 A 
ATOM     17  C   UNL     1       7.402   4.760  14.262  0.00  0.00    +0.000 A 
ENDBRANCH   8  15
ENDBRANCH   1   8
BRANCH   7  18
ATOM     18  C   UNL     1       2.397   6.745  18.345  0.00  0.00    +0.000 C 
BRANCH  18  19
ATOM     19  C   UNL     1       2.229   8.238  18.710  0.00  0.00    +0.000 C 
ATOM     20  C   UNL     1       1.444   9.016  17.653  0.00  0.00    +0.000 C 
ATOM     21  C   UNL     1       1.538   8.366  20.072  0.00  0.00    +0.000 C 
ENDBRANCH  18  19
ENDBRANCH   7  18
TORSDOF 4
ENDMDL
MODEL 6
REMARK VINA RESULT:      -6.2      2.726      4.088
REMARK  Name = 
REMARK  7 active torsions:
REMARK  status: ('A' for Active; 'I' for Inactive)
REMARK    1  A    between atoms: C_1  and  C_2
REMARK    2  A    between atoms: C_5  and  S_6
REMARK    3  A    between atoms: S_6  and  N_9
REMARK    4  A    between atoms: C_15  and  C_16
REMARK    5  A    between atoms: C_16  and  C_17
REMARK    6  A    between atoms: C_17  and  C_18
REMARK    7  A    between atoms: C_17  and  C_19
REMARK                            x       y       z     vdW  Elec       q    Type
REMARK                         _______ _______ _______ _____ _____    ______ ____
ROOT
ATOM      1  N   UNL     1       3.465   4.359  19.040  0.00  0.00    +0.000 NA
ATOM      2  C   UNL     1       4.211   5.437  19.709  0.00  0.00    +0.000 C 
ATOM      3  C   UNL     1       4.090   6.713  18.888  0.00  0.00    +0.000 C 
ATOM      4  C   UNL     1       2.624   7.042  18.642  0.00  0.00    +0.000 C 
ATOM      5 BR   UNL     1       2.496   8.652  17.541  0.00  0.00    +0.000 Br
ATOM      6  C   UNL     1       1.904   5.889  17.947  0.00  0.00    +0.000 C 
ATOM      7  C   UNL     1       2.020   4.589  18.765  0.00  0.00    +0.000 C 
ENDROOT
BRANCH   1   8
ATOM      8  S   UNL     1       4.304   3.036  18.412  0.00  0.00    +0.000 S 
ATOM      9  O   UNL     1       3.346   2.139  17.798  0.00  0.00    +0.000 OA
ATOM     10  O   UNL     1       5.243   2.558  19.406  0.00  0.00    +0.000 OA
BRANCH   8  15
ATOM     11  C   UNL     1       7.538   5.600  13.938  0.00  0.00    +0.000 C 
ATOM     12  C   UNL     1       6.750   4.935  15.030  0.00  0.00    +0.000 A 
ATOM     13  C   UNL     1       7.298   4.784  16.312  0.00  0.00    +0.000 A 
ATOM     14  C   UNL     1       6.552   4.205  17.340  0.00  0.00    +0.000 A 
ATOM     15  C   UNL     1       5.246   3.779  17.092  0.00  0.00    +0.000 A 
ATOM     16  C   UNL     1       4.705   3.871  15.804  0.00  0.00    +0.000 A 
ATOM     17  C   UNL     1       5.456   4.459  14.781  0.00  0.00    +0.000 A 
ENDBRANCH   8  15
ENDBRANCH   1   8
BRANCH   7  18
ATOM     18  C   UNL     1       1.222   4.611  20.090  0.00  0.00    +0.000 C 
BRANCH  18  19
ATOM     19  C   UNL     1       0.846   3.234  20.682  0.00  0.00    +0.000 C 
ATOM     20  C   UNL     1       0.632   2.170  19.606  0.00  0.00    +0.000 C 
ATOM     21  C   UNL     1       1.931   2.775  21.663  0.00  0.00    +0.000 C 
ENDBRANCH  18  19
ENDBRANCH   7  18
TORSDOF 4
ENDMDL
MODEL 7
REMARK VINA RESULT:      -6.1      2.301      3.266
REMARK  Name = 
REMARK  7 active torsions:
REMARK  status: ('A' for Active; 'I' for Inactive)
REMARK    1  A    between atoms: C_1  and  C_2
REMARK    2  A    between atoms: C_5  and  S_6
REMARK    3  A    between atoms: S_6  and  N_9
REMARK    4  A    between atoms: C_15  and  C_16
REMARK    5  A    between atoms: C_16  and  C_17
REMARK    6  A    between atoms: C_17  and  C_18
REMARK    7  A    between atoms: C_17  and  C_19
REMARK                            x       y       z     vdW  Elec       q    Type
REMARK                         _______ _______ _______ _____ _____    ______ ____
ROOT
ATOM      1  N   UNL     1       4.304   4.884  18.266  0.00  0.00    +0.000 NA
ATOM      2  C   UNL     1       3.778   3.564  17.881  0.00  0.00    +0.000 C 
ATOM      3  C   UNL     1       3.370   2.804  19.136  0.00  0.00    +0.000 C 
ATOM      4  C   UNL     1       2.397   3.636  19.961  0.00  0.00    +0.000 C 
ATOM      5 BR   UNL     1       1.930   2.663  21.590  0.00  0.00    +0.000 Br
ATOM      6  C   UNL     1       2.997   4.991  20.328  0.00  0.00    +0.000 C 
ATOM      7  C   UNL     1       3.418   5.771  19.069  0.00  0.00    +0.000 C 
ENDROOT
BRANCH   1   8
ATOM      8  S   UNL     1       5.932   5.239  17.994  0.00  0.00    +0.000 S 
ATOM      9  O   UNL     1       6.734   4.297  18.749  0.00  0.00    +0.000 OA
ATOM     10  O   UNL     1       6.132   6.667  18.129  0.00  0.00    +0.000 OA
BRANCH   8  15
ATOM     11  C   UNL     1       6.618   3.868  12.104  0.00  0.00    +0.000 C 
ATOM     12  C   UNL     1       6.456   4.172  13.566  0.00  0.00    +0.000 A 
ATOM     13  C   UNL     1       7.515   4.726  14.298  0.00  0.00    +0.000 A 
ATOM     14  C   UNL     1       7.354   5.050  15.647  0.00  0.00    +0.000 A 
ATOM     15  C   UNL     1       6.124   4.826  16.270  0.00  0.00    +0.000 A 
ATOM     16  C   UNL     1       5.075   4.222  15.566  0.00  0.00    +0.000 A 
ATOM     17  C   UNL     1       5.242   3.907  14.214  0.00  0.00    +0.000 A 
ENDBRANCH   8  15
ENDBRANCH   1   8
BRANCH   7  18
ATOM     18  C   UNL     1       2.229   6.257  18.208  0.00  0.00    +0.000 C 
BRANCH  18  19
ATOM     19  C   UNL     1       1.943   7.776  18.233  0.00  0.00    +0.000 C 
ATOM     20  C   UNL     1       1.756   8.315  19.652  0.00  0.00    +0.000 C 
ATOM     21  C   UNL     1       3.078   8.531  17.533  0.00  0.00    +0.000 C 
ENDBRANCH  18  19
ENDBRANCH   7  18
TORSDOF 4
ENDMDL
MODEL 8
REMARK VINA RESULT:      -6.1      1.407      1.879
REMARK  Name = 
REMARK  7 active torsions:
REMARK  status: ('A' for Active; 'I' for Inactive)
REMARK    1  A    between atoms: C_1  and  C_2
REMARK    2  A    between atoms: C_5  and  S_6
REMARK    3  A    between atoms: S_6  and  N_9
REMARK    4  A    between atoms: C_15  and  C_16
REMARK    5  A    between atoms: C_16  and  C_17
REMARK    6  A    between atoms: C_17  and  C_18
REMARK    7  A    between atoms: C_17  and  C_19
REMARK                            x       y       z     vdW  Elec       q    Type
REMARK                         _______ _______ _______ _____ _____    ______ ____
ROOT
ATOM      1  N   UNL     1       4.770   5.013  17.597  0.00  0.00    +0.000 NA
ATOM      2  C   UNL     1       4.037   4.372  16.493  0.00  0.00    +0.000 C 
ATOM      3  C   UNL     1       2.987   3.432  17.069  0.00  0.00    +0.000 C 
ATOM      4  C   UNL     1       2.091   4.181  18.047  0.00  0.00    +0.000 C 
ATOM      5 BR   UNL     1       0.788   2.943  18.813  0.00  0.00    +0.000 Br
ATOM      6  C   UNL     1       2.907   4.823  19.167  0.00  0.00    +0.000 C 
ATOM      7  C   UNL     1       3.976   5.775  18.600  0.00  0.00    +0.000 C 
ENDROOT
BRANCH   1   8
ATOM      8  S   UNL     1       6.408   4.671  17.812  0.00  0.00    +0.000 S 
ATOM      9  O   UNL     1       6.915   4.085  16.588  0.00  0.00    +0.000 OA
ATOM     10  O   UNL     1       6.588   4.008  19.087  0.00  0.00    +0.000 OA
BRANCH   8  15
ATOM     11  C   UNL     1       8.827  10.241  18.219  0.00  0.00    +0.000 C 
ATOM     12  C   UNL     1       8.209   8.874  18.146  0.00  0.00    +0.000 A 
ATOM     13  C   UNL     1       7.186   8.605  17.226  0.00  0.00    +0.000 A 
ATOM     14  C   UNL     1       6.639   7.325  17.126  0.00  0.00    +0.000 A 
ATOM     15  C   UNL     1       7.119   6.301  17.945  0.00  0.00    +0.000 A 
ATOM     16  C   UNL     1       8.101   6.568  18.907  0.00  0.00    +0.000 A 
ATOM     17  C   UNL     1       8.649   7.851  18.996  0.00  0.00    +0.000 A 
ENDBRANCH   8  15
ENDBRANCH   1   8
BRANCH   7  18
ATOM     18  C   UNL     1       3.395   7.056  17.958  0.00  0.00    +0.000 C 
BRANCH  18  19
ATOM     19  C   UNL     1       2.028   7.533  18.501  0.00  0.00    +0.000 C 
ATOM     20  C   UNL     1       2.049   7.774  20.011  0.00  0.00    +0.000 C 
ATOM     21  C   UNL     1       1.597   8.812  17.774  0.00  0.00    +0.000 C 
ENDBRANCH  18  19
ENDBRANCH   7  18
TORSDOF 4
ENDMDL
MODEL 9
REMARK VINA RESULT:      -6.0      2.749      3.975
REMARK  Name = 
REMARK  7 active torsions:
REMARK  status: ('A' for Active; 'I' for Inactive)
REMARK    1  A    between atoms: C_1  and  C_2
REMARK    2  A    between atoms: C_5  and  S_6
REMARK    3  A    between atoms: S_6  and  N_9
REMARK    4  A    between atoms: C_15  and  C_16
REMARK    5  A    between atoms: C_16  and  C_17
REMARK    6  A    between atoms: C_17  and  C_18
REMARK    7  A    between atoms: C_17  and  C_19
REMARK                            x       y       z     vdW  Elec       q    Type
REMARK                         _______ _______ _______ _____ _____    ______ ____
ROOT
ATOM      1  N   UNL     1       3.397   4.429  18.754  0.00  0.00    +0.000 NA
ATOM      2  C   UNL     1       4.384   5.419  19.213  0.00  0.00    +0.000 C 
ATOM      3  C   UNL     1       4.158   6.730  18.472  0.00  0.00    +0.000 C 
ATOM      4  C   UNL     1       2.712   7.183  18.635  0.00  0.00    +0.000 C 
ATOM      5 BR   UNL     1       2.433   8.837  17.633  0.00  0.00    +0.000 Br
ATOM      6  C   UNL     1       1.737   6.115  18.145  0.00  0.00    +0.000 C 
ATOM      7  C   UNL     1       1.956   4.782  18.883  0.00  0.00    +0.000 C 
ENDROOT
BRANCH   1   8
ATOM      8  S   UNL     1       3.922   3.067  17.906  0.00  0.00    +0.000 S 
ATOM      9  O   UNL     1       2.798   2.535  17.161  0.00  0.00    +0.000 OA
ATOM     10  O   UNL     1       4.694   2.226  18.795  0.00  0.00    +0.000 OA
BRANCH   8  15
ATOM     11  C   UNL     1       7.742   5.461  13.817  0.00  0.00    +0.000 C 
ATOM     12  C   UNL     1       6.794   4.903  14.839  0.00  0.00    +0.000 A 
ATOM     13  C   UNL     1       5.455   4.655  14.506  0.00  0.00    +0.000 A 
ATOM     14  C   UNL     1       4.582   4.097  15.441  0.00  0.00    +0.000 A 
ATOM     15  C   UNL     1       5.048   3.776  16.718  0.00  0.00    +0.000 A 
ATOM     16  C   UNL     1       6.367   4.069  17.083  0.00  0.00    +0.000 A 
ATOM     17  C   UNL     1       7.238   4.622  16.138  0.00  0.00    +0.000 A 
ENDBRANCH   8  15
ENDBRANCH   1   8
BRANCH   7  18
ATOM     18  C   UNL     1       1.547   4.818  20.373  0.00  0.00    +0.000 C 
BRANCH  18  19
ATOM     19  C   UNL     1       1.138   3.466  21.002  0.00  0.00    +0.000 C 
ATOM     20  C   UNL     1       0.649   2.459  19.961  0.00  0.00    +0.000 C 
ATOM     21  C   UNL     1       2.316   2.878  21.785  0.00  0.00    +0.000 C 
ENDBRANCH  18  19
ENDBRANCH   7  18
TORSDOF 4
ENDMDL
