MODEL 1
REMARK VINA RESULT:      -8.2      0.000      0.000
REMARK  Name = 
REMARK  3 active torsions:
REMARK  status: ('A' for Active; 'I' for Inactive)
REMARK    1  A    between atoms: C_6  and  C_7
REMARK    2  A    between atoms: C_8  and  C_9
REMARK    3  A    between atoms: N_18  and  C_19
REMARK                            x       y       z     vdW  Elec       q    Type
REMARK                         _______ _______ _______ _____ _____    ______ ____
ROOT
ATOM      1  C   UNL     1       2.795   6.545  18.743  0.00  0.00    +0.000 A 
ATOM      2  C   UNL     1       2.357   7.871  18.839  0.00  0.00    +0.000 A 
ATOM      3  N   UNL     1       2.949   8.661  17.889  0.00  0.00    +0.000 NA
ATOM      4  C   UNL     1       3.730   7.864  17.214  0.00  0.00    +0.000 A 
ATOM      5  N   UNL     1       3.692   6.575  17.676  0.00  0.00    +0.000 N 
ENDROOT
BRANCH   1  11
ATOM      6  N   UNL     1       0.295   2.600  18.742  0.00  0.00    +0.000 N 
ATOM      7  C   UNL     1       1.180   3.406  19.430  0.00  0.00    +0.000 A 
ATOM      8  N   UNL     1       1.356   3.157  20.727  0.00  0.00    +0.000 NA
ATOM      9  C   UNL     1       2.078   4.056  21.414  0.00  0.00    +0.000 A 
ATOM     10  C   UNL     1       2.577   5.209  20.861  0.00  0.00    +0.000 A 
ATOM     11  C   UNL     1       2.378   5.358  19.506  0.00  0.00    +0.000 A 
ATOM     12  N   UNL     1       1.691   4.454  18.784  0.00  0.00    +0.000 NA
ATOM     13  H   UNL     1      -0.343   2.174  19.401  0.00  0.00    +0.000 HD
ATOM     14  H   UNL     1      -0.123   3.137  17.993  0.00  0.00    +0.000 HD
ENDBRANCH   1  11
BRANCH   5  15
ATOM     15  C   UNL     1       4.443   5.461  17.097  0.00  0.00    +0.000 C 
ATOM     16  C   UNL     1       4.888   4.406  18.127  0.00  0.00    +0.000 C 
ATOM     17  C   UNL     1       6.084   4.790  18.980  0.00  0.00    +0.000 C 
ATOM     18  S   UNL     1       7.490   5.315  18.007  0.00  0.00    +0.000 S 
ATOM     19  O   UNL     1       8.359   6.075  18.874  0.00  0.00    +0.000 OA
ATOM     20  O   UNL     1       7.965   4.144  17.297  0.00  0.00    +0.000 OA
ATOM     21  C   UNL     1       6.808   6.428  16.799  0.00  0.00    +0.000 C 
ATOM     22  C   UNL     1       5.561   5.881  16.134  0.00  0.00    +0.000 C 
ENDBRANCH   5  15
BRANCH   2  23
ATOM     23  C   UNL     1       1.390   8.449  19.767  0.00  0.00    +0.000 A 
ATOM     24  C   UNL     1       0.422   9.374  19.352  0.00  0.00    +0.000 A 
ATOM     25  C   UNL     1      -0.452   9.952  20.273  0.00  0.00    +0.000 A 
ATOM     26  C   UNL     1      -0.395   9.566  21.604  0.00  0.00    +0.000 A 
ATOM     27  F   UNL     1      -1.237  10.121  22.485  0.00  0.00    +0.000 F 
ATOM     28  C   UNL     1       0.516   8.609  22.033  0.00  0.00    +0.000 A 
ATOM     29  C   UNL     1       1.410   8.053  21.116  0.00  0.00    +0.000 A 
ENDBRANCH   2  23
TORSDOF 3
ENDMDL
MODEL 2
REMARK VINA RESULT:      -8.1      5.021      7.879
REMARK  Name = 
REMARK  3 active torsions:
REMARK  status: ('A' for Active; 'I' for Inactive)
REMARK    1  A    between atoms: C_6  and  C_7
REMARK    2  A    between atoms: C_8  and  C_9
REMARK    3  A    between atoms: N_18  and  C_19
REMARK                            x       y       z     vdW  Elec       q    Type
REMARK                         _______ _______ _______ _____ _____    ______ ____
ROOT
ATOM      1  C   UNL     1       5.415   4.371  17.199  0.00  0.00    +0.000 A 
ATOM      2  C   UNL     1       5.167   3.892  15.907  0.00  0.00    +0.000 A 
ATOM      3  N   UNL     1       4.062   3.081  15.881  0.00  0.00    +0.000 NA
ATOM      4  C   UNL     1       3.626   3.052  17.110  0.00  0.00    +0.000 A 
ATOM      5  N   UNL     1       4.395   3.803  17.959  0.00  0.00    +0.000 N 
ENDROOT
BRANCH   1  11
ATOM      6  N   UNL     1       8.702   5.262  20.395  0.00  0.00    +0.000 N 
ATOM      7  C   UNL     1       8.080   5.672  19.233  0.00  0.00    +0.000 A 
ATOM      8  N   UNL     1       8.300   6.922  18.828  0.00  0.00    +0.000 NA
ATOM      9  C   UNL     1       7.553   7.357  17.802  0.00  0.00    +0.000 A 
ATOM     10  C   UNL     1       6.567   6.605  17.212  0.00  0.00    +0.000 A 
ATOM     11  C   UNL     1       6.442   5.314  17.671  0.00  0.00    +0.000 A 
ATOM     12  N   UNL     1       7.205   4.838  18.673  0.00  0.00    +0.000 NA
ATOM     13  H   UNL     1       8.944   6.075  20.944  0.00  0.00    +0.000 HD
ATOM     14  H   UNL     1       8.122   4.567  20.850  0.00  0.00    +0.000 HD
ENDBRANCH   1  11
BRANCH   5  15
ATOM     15  C   UNL     1       4.129   3.977  19.387  0.00  0.00    +0.000 C 
ATOM     16  C   UNL     1       3.938   2.654  20.152  0.00  0.00    +0.000 C 
ATOM     17  C   UNL     1       2.589   1.980  19.966  0.00  0.00    +0.000 C 
ATOM     18  S   UNL     1       1.215   3.075  20.301  0.00  0.00    +0.000 S 
ATOM     19  O   UNL     1       0.048   2.515  19.665  0.00  0.00    +0.000 OA
ATOM     20  O   UNL     1       1.242   3.353  21.723  0.00  0.00    +0.000 OA
ATOM     21  C   UNL     1       1.630   4.585  19.458  0.00  0.00    +0.000 C 
ATOM     22  C   UNL     1       3.058   5.026  19.710  0.00  0.00    +0.000 C 
ENDBRANCH   5  15
BRANCH   2  23
ATOM     23  C   UNL     1       5.898   4.164  14.674  0.00  0.00    +0.000 A 
ATOM     24  C   UNL     1       7.058   4.950  14.655  0.00  0.00    +0.000 A 
ATOM     25  C   UNL     1       7.704   5.239  13.453  0.00  0.00    +0.000 A 
ATOM     26  C   UNL     1       7.220   4.698  12.271  0.00  0.00    +0.000 A 
ATOM     27  F   UNL     1       7.844   4.975  11.119  0.00  0.00    +0.000 F 
ATOM     28  C   UNL     1       6.106   3.868  12.267  0.00  0.00    +0.000 A 
ATOM     29  C   UNL     1       5.443   3.604  13.467  0.00  0.00    +0.000 A 
ENDBRANCH   2  23
TORSDOF 3
ENDMDL
MODEL 3
REMARK VINA RESULT:      -7.9      0.645      1.239
REMARK  Name = 
REMARK  3 active torsions:
REMARK  status: ('A' for Active; 'I' for Inactive)
REMARK    1  A    between atoms: C_6  and  C_7
REMARK    2  A    between atoms: C_8  and  C_9
REMARK    3  A    between atoms: N_18  and  C_19
REMARK                            x       y       z     vdW  Elec       q    Type
REMARK                         _______ _______ _______ _____ _____    ______ ____
ROOT
ATOM      1  C   UNL     1       2.730   6.557  18.511  0.00  0.00    +0.000 A 
ATOM      2  C   UNL     1       2.419   7.903  18.741  0.00  0.00    +0.000 A 
ATOM      3  N   UNL     1       3.199   8.731  17.976  0.00  0.00    +0.000 NA
ATOM      4  C   UNL     1       3.972   7.938  17.287  0.00  0.00    +0.000 A 
ATOM      5  N   UNL     1       3.748   6.615  17.562  0.00  0.00    +0.000 N 
ENDROOT
BRANCH   1  11
ATOM      6  N   UNL     1       2.436   3.625  22.134  0.00  0.00    +0.000 N 
ATOM      7  C   UNL     1       1.960   3.967  20.885  0.00  0.00    +0.000 A 
ATOM      8  N   UNL     1       1.206   3.072  20.248  0.00  0.00    +0.000 NA
ATOM      9  C   UNL     1       0.902   3.349  18.970  0.00  0.00    +0.000 A 
ATOM     10  C   UNL     1       1.369   4.454  18.304  0.00  0.00    +0.000 A 
ATOM     11  C   UNL     1       2.106   5.341  19.056  0.00  0.00    +0.000 A 
ATOM     12  N   UNL     1       2.393   5.109  20.351  0.00  0.00    +0.000 NA
ATOM     13  H   UNL     1       2.433   2.618  22.223  0.00  0.00    +0.000 HD
ATOM     14  H   UNL     1       3.323   4.088  22.285  0.00  0.00    +0.000 HD
ENDBRANCH   1  11
BRANCH   5  15
ATOM     15  C   UNL     1       4.448   5.502  16.919  0.00  0.00    +0.000 C 
ATOM     16  C   UNL     1       4.806   4.353  17.880  0.00  0.00    +0.000 C 
ATOM     17  C   UNL     1       6.001   4.606  18.783  0.00  0.00    +0.000 C 
ATOM     18  S   UNL     1       7.459   5.113  17.879  0.00  0.00    +0.000 S 
ATOM     19  O   UNL     1       8.348   5.758  18.815  0.00  0.00    +0.000 OA
ATOM     20  O   UNL     1       7.883   3.969  17.097  0.00  0.00    +0.000 OA
ATOM     21  C   UNL     1       6.872   6.347  16.740  0.00  0.00    +0.000 C 
ATOM     22  C   UNL     1       5.612   5.923  16.013  0.00  0.00    +0.000 C 
ENDBRANCH   5  15
BRANCH   2  23
ATOM     23  C   UNL     1       1.410   8.470  19.629  0.00  0.00    +0.000 A 
ATOM     24  C   UNL     1       0.449   9.383  19.177  0.00  0.00    +0.000 A 
ATOM     25  C   UNL     1      -0.467   9.952  20.062  0.00  0.00    +0.000 A 
ATOM     26  C   UNL     1      -0.459   9.566  21.395  0.00  0.00    +0.000 A 
ATOM     27  F   UNL     1      -1.341  10.110  22.241  0.00  0.00    +0.000 F 
ATOM     28  C   UNL     1       0.445   8.619  21.859  0.00  0.00    +0.000 A 
ATOM     29  C   UNL     1       1.381   8.073  20.978  0.00  0.00    +0.000 A 
ENDBRANCH   2  23
TORSDOF 3
ENDMDL
MODEL 4
REMARK VINA RESULT:      -7.8      0.586      1.119
REMARK  Name = 
REMARK  3 active torsions:
REMARK  status: ('A' for Active; 'I' for Inactive)
REMARK    1  A    between atoms: C_6  and  C_7
REMARK    2  A    between atoms: C_8  and  C_9
REMARK    3  A    between atoms: N_18  and  C_19
REMARK                            x       y       z     vdW  Elec       q    Type
REMARK                         _______ _______ _______ _____ _____    ______ ____
ROOT
ATOM      1  C   UNL     1       2.975   6.623  18.403  0.00  0.00    +0.000 A 
ATOM      2  C   UNL     1       2.542   7.951  18.304  0.00  0.00    +0.000 A 
ATOM      3  N   UNL     1       3.215   8.621  17.317  0.00  0.00    +0.000 NA
ATOM      4  C   UNL     1       4.041   7.749  16.808  0.00  0.00    +0.000 A 
ATOM      5  N   UNL     1       3.954   6.525  17.416  0.00  0.00    +0.000 N 
ENDROOT
BRANCH   1  11
ATOM      6  N   UNL     1       0.355   2.768  18.701  0.00  0.00    +0.000 N 
ATOM      7  C   UNL     1       1.233   3.620  19.341  0.00  0.00    +0.000 A 
ATOM      8  N   UNL     1       1.343   3.506  20.664  0.00  0.00    +0.000 NA
ATOM      9  C   UNL     1       2.062   4.454  21.286  0.00  0.00    +0.000 A 
ATOM     10  C   UNL     1       2.621   5.528  20.637  0.00  0.00    +0.000 A 
ATOM     11  C   UNL     1       2.487   5.536  19.267  0.00  0.00    +0.000 A 
ATOM     12  N   UNL     1       1.805   4.578  18.612  0.00  0.00    +0.000 NA
ATOM     13  H   UNL     1      -0.324   2.432  19.370  0.00  0.00    +0.000 HD
ATOM     14  H   UNL     1      -0.013   3.232  17.880  0.00  0.00    +0.000 HD
ENDBRANCH   1  11
BRANCH   5  15
ATOM     15  C   UNL     1       4.738   5.350  17.037  0.00  0.00    +0.000 C 
ATOM     16  C   UNL     1       5.062   4.409  18.213  0.00  0.00    +0.000 C 
ATOM     17  C   UNL     1       6.174   4.875  19.135  0.00  0.00    +0.000 C 
ATOM     18  S   UNL     1       7.678   5.282  18.258  0.00  0.00    +0.000 S 
ATOM     19  O   UNL     1       8.471   6.125  19.120  0.00  0.00    +0.000 OA
ATOM     20  O   UNL     1       8.200   4.039  17.727  0.00  0.00    +0.000 OA
ATOM     21  C   UNL     1       7.139   6.263  16.875  0.00  0.00    +0.000 C 
ATOM     22  C   UNL     1       5.953   5.656  16.152  0.00  0.00    +0.000 C 
ENDBRANCH   5  15
BRANCH   2  23
ATOM     23  C   UNL     1       1.509   8.636  19.074  0.00  0.00    +0.000 A 
ATOM     24  C   UNL     1       1.348   8.430  20.451  0.00  0.00    +0.000 A 
ATOM     25  C   UNL     1       0.316   9.056  21.150  0.00  0.00    +0.000 A 
ATOM     26  C   UNL     1      -0.527   9.933  20.482  0.00  0.00    +0.000 A 
ATOM     27  F   UNL     1      -1.515  10.534  21.156  0.00  0.00    +0.000 F 
ATOM     28  C   UNL     1      -0.355  10.201  19.130  0.00  0.00    +0.000 A 
ATOM     29  C   UNL     1       0.660   9.550  18.425  0.00  0.00    +0.000 A 
ENDBRANCH   2  23
TORSDOF 3
ENDMDL
MODEL 5
REMARK VINA RESULT:      -7.6      0.831      1.265
REMARK  Name = 
REMARK  3 active torsions:
REMARK  status: ('A' for Active; 'I' for Inactive)
REMARK    1  A    between atoms: C_6  and  C_7
REMARK    2  A    between atoms: C_8  and  C_9
REMARK    3  A    between atoms: N_18  and  C_19
REMARK                            x       y       z     vdW  Elec       q    Type
REMARK                         _______ _______ _______ _____ _____    ______ ____
ROOT
ATOM      1  C   UNL     1       2.688   6.349  18.993  0.00  0.00    +0.000 A 
ATOM      2  C   UNL     1       2.288   7.690  19.048  0.00  0.00    +0.000 A 
ATOM      3  N   UNL     1       2.838   8.415  18.023  0.00  0.00    +0.000 NA
ATOM      4  C   UNL     1       3.557   7.564  17.345  0.00  0.00    +0.000 A 
ATOM      5  N   UNL     1       3.517   6.302  17.874  0.00  0.00    +0.000 N 
ENDROOT
BRANCH   1  11
ATOM      6  N   UNL     1       0.025   2.533  19.388  0.00  0.00    +0.000 N 
ATOM      7  C   UNL     1       1.005   3.321  19.958  0.00  0.00    +0.000 A 
ATOM      8  N   UNL     1       1.290   3.113  21.242  0.00  0.00    +0.000 NA
ATOM      9  C   UNL     1       2.112   4.001  21.822  0.00  0.00    +0.000 A 
ATOM     10  C   UNL     1       2.608   5.107  21.177  0.00  0.00    +0.000 A 
ATOM     11  C   UNL     1       2.291   5.214  19.841  0.00  0.00    +0.000 A 
ATOM     12  N   UNL     1       1.501   4.317  19.223  0.00  0.00    +0.000 NA
ATOM     13  H   UNL     1      -0.567   2.164  20.119  0.00  0.00    +0.000 HD
ATOM     14  H   UNL     1      -0.436   3.060  18.658  0.00  0.00    +0.000 HD
ENDBRANCH   1  11
BRANCH   5  15
ATOM     15  C   UNL     1       4.203   5.140  17.308  0.00  0.00    +0.000 C 
ATOM     16  C   UNL     1       5.362   4.616  18.177  0.00  0.00    +0.000 C 
ATOM     17  C   UNL     1       6.645   5.427  18.114  0.00  0.00    +0.000 C 
ATOM     18  S   UNL     1       7.217   5.689  16.440  0.00  0.00    +0.000 S 
ATOM     19  O   UNL     1       8.122   6.813  16.461  0.00  0.00    +0.000 OA
ATOM     20  O   UNL     1       7.629   4.396  15.933  0.00  0.00    +0.000 OA
ATOM     21  C   UNL     1       5.761   6.173  15.539  0.00  0.00    +0.000 C 
ATOM     22  C   UNL     1       4.570   5.280  15.825  0.00  0.00    +0.000 C 
ENDBRANCH   5  15
BRANCH   2  23
ATOM     23  C   UNL     1       1.395   8.340  20.001  0.00  0.00    +0.000 A 
ATOM     24  C   UNL     1       1.463   8.085  21.377  0.00  0.00    +0.000 A 
ATOM     25  C   UNL     1       0.558   8.678  22.258  0.00  0.00    +0.000 A 
ATOM     26  C   UNL     1      -0.384   9.572  21.769  0.00  0.00    +0.000 A 
ATOM     27  F   UNL     1      -1.249  10.142  22.617  0.00  0.00    +0.000 F 
ATOM     28  C   UNL     1      -0.437   9.889  20.418  0.00  0.00    +0.000 A 
ATOM     29  C   UNL     1       0.449   9.271  19.533  0.00  0.00    +0.000 A 
ENDBRANCH   2  23
TORSDOF 3
ENDMDL
MODEL 6
REMARK VINA RESULT:      -7.5      1.594      2.249
REMARK  Name = 
REMARK  3 active torsions:
REMARK  status: ('A' for Active; 'I' for Inactive)
REMARK    1  A    between atoms: C_6  and  C_7
REMARK    2  A    between atoms: C_8  and  C_9
REMARK    3  A    between atoms: N_18  and  C_19
REMARK                            x       y       z     vdW  Elec       q    Type
REMARK                         _______ _______ _______ _____ _____    ______ ____
ROOT
ATOM      1  C   UNL     1       3.003   5.933  18.548  0.00  0.00    +0.000 A 
ATOM      2  C   UNL     1       2.863   7.325  18.608  0.00  0.00    +0.000 A 
ATOM      3  N   UNL     1       3.810   7.954  17.844  0.00  0.00    +0.000 NA
ATOM      4  C   UNL     1       4.522   6.996  17.318  0.00  0.00    +0.000 A 
ATOM      5  N   UNL     1       4.095   5.752  17.702  0.00  0.00    +0.000 N 
ENDROOT
BRANCH   1  11
ATOM      6  N   UNL     1       2.244   3.239  22.287  0.00  0.00    +0.000 N 
ATOM      7  C   UNL     1       1.813   3.622  21.033  0.00  0.00    +0.000 A 
ATOM      8  N   UNL     1       0.890   2.863  20.444  0.00  0.00    +0.000 NA
ATOM      9  C   UNL     1       0.615   3.147  19.161  0.00  0.00    +0.000 A 
ATOM     10  C   UNL     1       1.266   4.120  18.445  0.00  0.00    +0.000 A 
ATOM     11  C   UNL     1       2.173   4.878  19.150  0.00  0.00    +0.000 A 
ATOM     12  N   UNL     1       2.441   4.641  20.448  0.00  0.00    +0.000 NA
ATOM     13  H   UNL     1       2.054   2.255  22.415  0.00  0.00    +0.000 HD
ATOM     14  H   UNL     1       3.206   3.532  22.406  0.00  0.00    +0.000 HD
ENDBRANCH   1  11
BRANCH   5  15
ATOM     15  C   UNL     1       4.685   4.493  17.247  0.00  0.00    +0.000 C 
ATOM     16  C   UNL     1       6.177   4.340  17.599  0.00  0.00    +0.000 C 
ATOM     17  C   UNL     1       7.138   5.127  16.724  0.00  0.00    +0.000 C 
ATOM     18  S   UNL     1       6.896   4.821  14.979  0.00  0.00    +0.000 S 
ATOM     19  O   UNL     1       7.498   5.917  14.258  0.00  0.00    +0.000 OA
ATOM     20  O   UNL     1       7.292   3.448  14.738  0.00  0.00    +0.000 OA
ATOM     21  C   UNL     1       5.134   4.914  14.749  0.00  0.00    +0.000 C 
ATOM     22  C   UNL     1       4.364   4.130  15.792  0.00  0.00    +0.000 C 
ENDBRANCH   5  15
BRANCH   2  23
ATOM     23  C   UNL     1       1.871   8.114  19.331  0.00  0.00    +0.000 A 
ATOM     24  C   UNL     1       1.570   7.877  20.679  0.00  0.00    +0.000 A 
ATOM     25  C   UNL     1       0.577   8.610  21.328  0.00  0.00    +0.000 A 
ATOM     26  C   UNL     1      -0.083   9.621  20.644  0.00  0.00    +0.000 A 
ATOM     27  F   UNL     1      -1.034  10.325  21.270  0.00  0.00    +0.000 F 
ATOM     28  C   UNL     1       0.235   9.917  19.324  0.00  0.00    +0.000 A 
ATOM     29  C   UNL     1       1.208   9.162  18.667  0.00  0.00    +0.000 A 
ENDBRANCH   2  23
TORSDOF 3
ENDMDL
MODEL 7
REMARK VINA RESULT:      -7.4      4.270      6.452
REMARK  Name = 
REMARK  3 active torsions:
REMARK  status: ('A' for Active; 'I' for Inactive)
REMARK    1  A    between atoms: C_6  and  C_7
REMARK    2  A    between atoms: C_8  and  C_9
REMARK    3  A    between atoms: N_18  and  C_19
REMARK                            x       y       z     vdW  Elec       q    Type
REMARK                         _______ _______ _______ _____ _____    ______ ____
ROOT
ATOM      1  C   UNL     1       2.449   6.910  18.753  0.00  0.00    +0.000 A 
ATOM      2  C   UNL     1       3.453   7.253  17.839  0.00  0.00    +0.000 A 
ATOM      3  N   UNL     1       3.337   8.558  17.438  0.00  0.00    +0.000 NA
ATOM      4  C   UNL     1       2.300   9.025  18.077  0.00  0.00    +0.000 A 
ATOM      5  N   UNL     1       1.713   8.086  18.884  0.00  0.00    +0.000 N 
ENDROOT
BRANCH   1  11
ATOM      6  N   UNL     1       0.540   2.648  18.683  0.00  0.00    +0.000 N 
ATOM      7  C   UNL     1       1.323   3.551  19.373  0.00  0.00    +0.000 A 
ATOM      8  N   UNL     1       1.578   3.289  20.654  0.00  0.00    +0.000 NA
ATOM      9  C   UNL     1       2.188   4.260  21.352  0.00  0.00    +0.000 A 
ATOM     10  C   UNL     1       2.497   5.490  20.826  0.00  0.00    +0.000 A 
ATOM     11  C   UNL     1       2.232   5.652  19.485  0.00  0.00    +0.000 A 
ATOM     12  N   UNL     1       1.658   4.681  18.750  0.00  0.00    +0.000 NA
ATOM     13  H   UNL     1      -0.007   2.114  19.344  0.00  0.00    +0.000 HD
ATOM     14  H   UNL     1       0.024   3.143  17.966  0.00  0.00    +0.000 HD
ENDBRANCH   1  11
BRANCH   5  15
ATOM     15  C   UNL     1       0.552   8.333  19.739  0.00  0.00    +0.000 C 
ATOM     16  C   UNL     1      -0.353   9.479  19.246  0.00  0.00    +0.000 C 
ATOM     17  C   UNL     1       0.165  10.882  19.515  0.00  0.00    +0.000 C 
ATOM     18  S   UNL     1       0.593  11.146  21.231  0.00  0.00    +0.000 S 
ATOM     19  O   UNL     1       1.477  12.285  21.287  0.00  0.00    +0.000 OA
ATOM     20  O   UNL     1      -0.647  11.113  21.979  0.00  0.00    +0.000 OA
ATOM     21  C   UNL     1       1.527   9.702  21.687  0.00  0.00    +0.000 C 
ATOM     22  C   UNL     1       0.871   8.412  21.237  0.00  0.00    +0.000 C 
ENDBRANCH   5  15
BRANCH   2  23
ATOM     23  C   UNL     1       4.541   6.428  17.324  0.00  0.00    +0.000 A 
ATOM     24  C   UNL     1       4.317   5.159  16.774  0.00  0.00    +0.000 A 
ATOM     25  C   UNL     1       5.383   4.370  16.342  0.00  0.00    +0.000 A 
ATOM     26  C   UNL     1       6.675   4.872  16.410  0.00  0.00    +0.000 A 
ATOM     27  F   UNL     1       7.696   4.114  15.992  0.00  0.00    +0.000 F 
ATOM     28  C   UNL     1       6.922   6.149  16.897  0.00  0.00    +0.000 A 
ATOM     29  C   UNL     1       5.856   6.926  17.357  0.00  0.00    +0.000 A 
ENDBRANCH   2  23
TORSDOF 3
ENDMDL
MODEL 8
REMARK VINA RESULT:      -7.3      6.841      9.496
REMARK  Name = 
REMARK  3 active torsions:
REMARK  status: ('A' for Active; 'I' for Inactive)
REMARK    1  A    between atoms: C_6  and  C_7
REMARK    2  A    between atoms: C_8  and  C_9
REMARK    3  A    between atoms: N_18  and  C_19
REMARK                            x       y       z     vdW  Elec       q    Type
REMARK                         _______ _______ _______ _____ _____    ______ ____
ROOT
ATOM      1  C   UNL     1      -1.475  11.681  19.734  0.00  0.00    +0.000 A 
ATOM      2  C   UNL     1      -2.678  11.752  19.021  0.00  0.00    +0.000 A 
ATOM      3  N   UNL     1      -3.636  12.429  19.728  0.00  0.00    +0.000 NA
ATOM      4  C   UNL     1      -3.060  12.777  20.846  0.00  0.00    +0.000 A 
ATOM      5  N   UNL     1      -1.759  12.356  20.920  0.00  0.00    +0.000 N 
ENDROOT
BRANCH   1  11
ATOM      6  N   UNL     1       2.559  12.397  17.491  0.00  0.00    +0.000 N 
ATOM      7  C   UNL     1       1.807  11.541  18.270  0.00  0.00    +0.000 A 
ATOM      8  N   UNL     1       2.218  10.277  18.364  0.00  0.00    +0.000 NA
ATOM      9  C   UNL     1       1.383   9.422  18.976  0.00  0.00    +0.000 A 
ATOM     10  C   UNL     1       0.142   9.779  19.442  0.00  0.00    +0.000 A 
ATOM     11  C   UNL     1      -0.177  11.114  19.336  0.00  0.00    +0.000 A 
ATOM     12  N   UNL     1       0.657  12.002  18.763  0.00  0.00    +0.000 NA
ATOM     13  H   UNL     1       3.101  11.855  16.834  0.00  0.00    +0.000 HD
ATOM     14  H   UNL     1       1.949  13.103  17.098  0.00  0.00    +0.000 HD
ENDBRANCH   1  11
BRANCH   5  15
ATOM     15  C   UNL     1      -0.861  12.625  22.043  0.00  0.00    +0.000 C 
ATOM     16  C   UNL     1      -1.556  12.602  23.417  0.00  0.00    +0.000 C 
ATOM     17  C   UNL     1      -2.376  13.835  23.755  0.00  0.00    +0.000 C 
ATOM     18  S   UNL     1      -1.451  15.354  23.572  0.00  0.00    +0.000 S 
ATOM     19  O   UNL     1      -2.403  16.432  23.456  0.00  0.00    +0.000 OA
ATOM     20  O   UNL     1      -0.435  15.350  24.606  0.00  0.00    +0.000 OA
ATOM     21  C   UNL     1      -0.617  15.186  22.010  0.00  0.00    +0.000 C 
ATOM     22  C   UNL     1       0.056  13.838  21.846  0.00  0.00    +0.000 C 
ENDBRANCH   5  15
BRANCH   2  23
ATOM     23  C   UNL     1      -2.984  11.234  17.692  0.00  0.00    +0.000 A 
ATOM     24  C   UNL     1      -2.141  10.330  17.032  0.00  0.00    +0.000 A 
ATOM     25  C   UNL     1      -2.432   9.897  15.739  0.00  0.00    +0.000 A 
ATOM     26  C   UNL     1      -3.598  10.326  15.121  0.00  0.00    +0.000 A 
ATOM     27  F   UNL     1      -3.876   9.906  13.880  0.00  0.00    +0.000 F 
ATOM     28  C   UNL     1      -4.482  11.176  15.773  0.00  0.00    +0.000 A 
ATOM     29  C   UNL     1      -4.174  11.633  17.056  0.00  0.00    +0.000 A 
ENDBRANCH   2  23
TORSDOF 3
ENDMDL
MODEL 9
REMARK VINA RESULT:      -7.3      8.447     10.944
REMARK  Name = 
REMARK  3 active torsions:
REMARK  status: ('A' for Active; 'I' for Inactive)
REMARK    1  A    between atoms: C_6  and  C_7
REMARK    2  A    between atoms: C_8  and  C_9
REMARK    3  A    between atoms: N_18  and  C_19
REMARK                            x       y       z     vdW  Elec       q    Type
REMARK                         _______ _______ _______ _____ _____    ______ ____
ROOT
ATOM      1  C   UNL     1      -2.836  12.327  20.095  0.00  0.00    +0.000 A 
ATOM      2  C   UNL     1      -3.736  11.906  19.108  0.00  0.00    +0.000 A 
ATOM      3  N   UNL     1      -5.031  12.161  19.475  0.00  0.00    +0.000 NA
ATOM      4  C   UNL     1      -4.954  12.725  20.648  0.00  0.00    +0.000 A 
ATOM      5  N   UNL     1      -3.663  12.853  21.086  0.00  0.00    +0.000 N 
ENDROOT
BRANCH   1  11
ATOM      6  N   UNL     1       1.033  10.168  21.571  0.00  0.00    +0.000 N 
ATOM      7  C   UNL     1       0.499  11.181  20.800  0.00  0.00    +0.000 A 
ATOM      8  N   UNL     1       1.332  12.125  20.364  0.00  0.00    +0.000 NA
ATOM      9  C   UNL     1       0.769  13.189  19.771  0.00  0.00    +0.000 A 
ATOM     10  C   UNL     1      -0.588  13.359  19.651  0.00  0.00    +0.000 A 
ATOM     11  C   UNL     1      -1.365  12.313  20.095  0.00  0.00    +0.000 A 
ATOM     12  N   UNL     1      -0.826  11.215  20.658  0.00  0.00    +0.000 NA
ATOM     13  H   UNL     1       1.902  10.486  21.977  0.00  0.00    +0.000 HD
ATOM     14  H   UNL     1       0.327   9.841  22.218  0.00  0.00    +0.000 HD
ENDBRANCH   1  11
BRANCH   5  15
ATOM     15  C   UNL     1      -3.272  13.472  22.353  0.00  0.00    +0.000 C 
ATOM     16  C   UNL     1      -4.211  13.139  23.527  0.00  0.00    +0.000 C 
ATOM     17  C   UNL     1      -5.529  13.894  23.544  0.00  0.00    +0.000 C 
ATOM     18  S   UNL     1      -5.314  15.665  23.428  0.00  0.00    +0.000 S 
ATOM     19  O   UNL     1      -6.569  16.228  22.991  0.00  0.00    +0.000 OA
ATOM     20  O   UNL     1      -4.684  16.090  24.662  0.00  0.00    +0.000 OA
ATOM     21  C   UNL     1      -4.127  15.888  22.122  0.00  0.00    +0.000 C 
ATOM     22  C   UNL     1      -2.932  14.965  22.251  0.00  0.00    +0.000 C 
ENDBRANCH   5  15
BRANCH   2  23
ATOM     23  C   UNL     1      -3.453  11.288  17.817  0.00  0.00    +0.000 A 
ATOM     24  C   UNL     1      -2.404  10.376  17.642  0.00  0.00    +0.000 A 
ATOM     25  C   UNL     1      -2.122   9.846  16.382  0.00  0.00    +0.000 A 
ATOM     26  C   UNL     1      -2.926  10.186  15.303  0.00  0.00    +0.000 A 
ATOM     27  F   UNL     1      -2.655   9.673  14.097  0.00  0.00    +0.000 F 
ATOM     28  C   UNL     1      -4.008  11.043  15.459  0.00  0.00    +0.000 A 
ATOM     29  C   UNL     1      -4.270  11.596  16.714  0.00  0.00    +0.000 A 
ENDBRANCH   2  23
TORSDOF 3
ENDMDL
