MODEL 1
REMARK VINA RESULT:      -8.0      0.000      0.000
REMARK  Name = 
REMARK  11 active torsions:
REMARK  status: ('A' for Active; 'I' for Inactive)
REMARK    1  A    between atoms: C_2  and  C_3
REMARK    2  A    between atoms: C_2  and  C_21
REMARK    3  A    between atoms: C_4  and  C_5
REMARK    4  A    between atoms: C_9  and  N_10
REMARK    5  A    between atoms: N_13  and  C_14
REMARK    6  A    between atoms: C_21  and  C_22
REMARK    7  A    between atoms: C_24  and  C_25
REMARK    8  A    between atoms: C_25  and  O_26
REMARK    9  A    between atoms: C_27  and  O_28
REMARK   10  A    between atoms: C_29  and  O_30
REMARK   11  A    between atoms: C_31  and  O_32
REMARK                            x       y       z     vdW  Elec       q    Type
REMARK                         _______ _______ _______ _____ _____    ______ ____
ROOT
ATOM      1  C   UNL     1       7.836   8.456  17.571  0.00  0.00    +0.000 C 
ATOM      2  C   UNL     1       8.673   8.754  18.577  0.00  0.00    +0.000 C 
ENDROOT
BRANCH   2   3
ATOM      3  C   UNL     1       9.039  10.114  19.012  0.00  0.00    +0.000 A 
ATOM      4  C   UNL     1       9.321  11.148  18.111  0.00  0.00    +0.000 A 
ATOM      5  C   UNL     1       9.653  12.420  18.576  0.00  0.00    +0.000 A 
ATOM      6  C   UNL     1       9.698  12.674  19.946  0.00  0.00    +0.000 A 
ATOM      7  C   UNL     1       9.414  11.669  20.870  0.00  0.00    +0.000 A 
ATOM      8  C   UNL     1       9.112  10.384  20.394  0.00  0.00    +0.000 A 
BRANCH   7   9
ATOM      9  N   UNL     1       9.440  11.892  22.268  0.00  0.00    +0.000 N 
ATOM     10  C   UNL     1       8.320  12.160  23.040  0.00  0.00    +0.000 C 
ATOM     11  O   UNL     1       7.165  12.088  22.641  0.00  0.00    +0.000 OA
ATOM     12  N   UNL     1       8.671  12.554  24.327  0.00  0.00    +0.000 N 
ATOM     13  H   UNL     1      10.250  11.567  22.777  0.00  0.00    +0.000 HD
ATOM     14  H   UNL     1       9.520  13.099  24.373  0.00  0.00    +0.000 HD
BRANCH  12  15
ATOM     15  C   UNL     1       7.676  12.857  25.287  0.00  0.00    +0.000 A 
ATOM     16  C   UNL     1       7.216  14.164  25.472  0.00  0.00    +0.000 A 
ATOM     17  C   UNL     1       6.278  14.449  26.467  0.00  0.00    +0.000 A 
ATOM     18  C   UNL     1       5.807  13.429  27.289  0.00  0.00    +0.000 A 
ATOM     19  C   UNL     1       6.250  12.120  27.097  0.00  0.00    +0.000 A 
ATOM     20  C   UNL     1       7.165  11.828  26.080  0.00  0.00    +0.000 A 
ENDBRANCH  12  15
ENDBRANCH   7   9
ENDBRANCH   2   3
BRANCH   1  22
ATOM     21  O   UNL     1       7.640   6.511  16.232  0.00  0.00    +0.000 OA
ATOM     22  C   UNL     1       7.447   7.035  17.328  0.00  0.00    +0.000 C 
BRANCH  22  23
ATOM     23  C   UNL     1       6.808   6.265  18.473  0.00  0.00    +0.000 C 
BRANCH  23  24
ATOM     24  C   UNL     1       5.453   5.635  18.123  0.00  0.00    +0.000 C 
ATOM     25  O   UNL     1       4.510   6.011  19.129  0.00  0.00    +0.000 OA
ATOM     26  C   UNL     1       3.182   5.528  18.918  0.00  0.00    +0.000 C 
ATOM     27  C   UNL     1       3.165   3.991  18.840  0.00  0.00    +0.000 C 
ATOM     28  C   UNL     1       4.117   3.526  17.728  0.00  0.00    +0.000 C 
ATOM     29  C   UNL     1       5.527   4.109  17.934  0.00  0.00    +0.000 C 
BRANCH  27  30
ATOM     30  O   UNL     1       1.832   3.512  18.627  0.00  0.00    +0.000 OA
ATOM     31  H   UNL     1       1.244   4.279  18.497  0.00  0.00    +0.000 HD
ENDBRANCH  27  30
BRANCH  28  32
ATOM     32  O   UNL     1       4.165   2.096  17.665  0.00  0.00    +0.000 OA
ATOM     33  H   UNL     1       3.650   1.736  18.410  0.00  0.00    +0.000 HD
ENDBRANCH  28  32
BRANCH  29  34
ATOM     34  O   UNL     1       6.382   3.803  16.830  0.00  0.00    +0.000 OA
ATOM     35  H   UNL     1       7.187   3.364  17.159  0.00  0.00    +0.000 HD
ENDBRANCH  29  34
BRANCH  26  36
ATOM     36  C   UNL     1       2.308   6.042  20.073  0.00  0.00    +0.000 C 
BRANCH  36  37
ATOM     37  O   UNL     1       2.360   5.197  21.214  0.00  0.00    +0.000 OA
ATOM     38  H   UNL     1       1.936   5.686  21.950  0.00  0.00    +0.000 HD
ENDBRANCH  36  37
ENDBRANCH  26  36
ENDBRANCH  23  24
ENDBRANCH  22  23
ENDBRANCH   1  22
TORSDOF 11
ENDMDL
MODEL 2
REMARK VINA RESULT:      -7.8      6.063      7.621
REMARK  Name = 
REMARK  11 active torsions:
REMARK  status: ('A' for Active; 'I' for Inactive)
REMARK    1  A    between atoms: C_2  and  C_3
REMARK    2  A    between atoms: C_2  and  C_21
REMARK    3  A    between atoms: C_4  and  C_5
REMARK    4  A    between atoms: C_9  and  N_10
REMARK    5  A    between atoms: N_13  and  C_14
REMARK    6  A    between atoms: C_21  and  C_22
REMARK    7  A    between atoms: C_24  and  C_25
REMARK    8  A    between atoms: C_25  and  O_26
REMARK    9  A    between atoms: C_27  and  O_28
REMARK   10  A    between atoms: C_29  and  O_30
REMARK   11  A    between atoms: C_31  and  O_32
REMARK                            x       y       z     vdW  Elec       q    Type
REMARK                         _______ _______ _______ _____ _____    ______ ____
ROOT
ATOM      1  C   UNL     1       2.189   5.383  18.510  0.00  0.00    +0.000 C 
ATOM      2  C   UNL     1       2.266   6.303  19.484  0.00  0.00    +0.000 C 
ENDROOT
BRANCH   2   3
ATOM      3  C   UNL     1       1.922   7.729  19.345  0.00  0.00    +0.000 A 
ATOM      4  C   UNL     1       2.068   8.431  18.142  0.00  0.00    +0.000 A 
ATOM      5  C   UNL     1       1.717   9.778  18.062  0.00  0.00    +0.000 A 
ATOM      6  C   UNL     1       1.208  10.436  19.181  0.00  0.00    +0.000 A 
ATOM      7  C   UNL     1       1.041   9.763  20.392  0.00  0.00    +0.000 A 
ATOM      8  C   UNL     1       1.426   8.417  20.472  0.00  0.00    +0.000 A 
BRANCH   7   9
ATOM      9  N   UNL     1       0.517  10.395  21.546  0.00  0.00    +0.000 N 
ATOM     10  C   UNL     1      -0.634  11.167  21.563  0.00  0.00    +0.000 C 
ATOM     11  O   UNL     1      -1.416  11.273  20.626  0.00  0.00    +0.000 OA
ATOM     12  N   UNL     1      -0.780  11.837  22.773  0.00  0.00    +0.000 N 
ATOM     13  H   UNL     1       0.820  10.049  22.445  0.00  0.00    +0.000 HD
ATOM     14  H   UNL     1       0.092  12.133  23.187  0.00  0.00    +0.000 HD
BRANCH  12  15
ATOM     15  C   UNL     1      -1.902  12.667  23.009  0.00  0.00    +0.000 A 
ATOM     16  C   UNL     1      -1.869  14.036  22.725  0.00  0.00    +0.000 A 
ATOM     17  C   UNL     1      -2.966  14.847  23.023  0.00  0.00    +0.000 A 
ATOM     18  C   UNL     1      -4.097  14.292  23.617  0.00  0.00    +0.000 A 
ATOM     19  C   UNL     1      -4.142  12.924  23.886  0.00  0.00    +0.000 A 
ATOM     20  C   UNL     1      -3.055  12.106  23.559  0.00  0.00    +0.000 A 
ENDBRANCH  12  15
ENDBRANCH   7   9
ENDBRANCH   2   3
BRANCH   1  22
ATOM     21  O   UNL     1       1.816   3.387  19.729  0.00  0.00    +0.000 OA
ATOM     22  C   UNL     1       2.438   3.946  18.828  0.00  0.00    +0.000 C 
BRANCH  22  23
ATOM     23  C   UNL     1       3.481   3.205  18.006  0.00  0.00    +0.000 C 
BRANCH  23  24
ATOM     24  C   UNL     1       4.519   4.120  17.342  0.00  0.00    +0.000 C 
ATOM     25  O   UNL     1       4.560   3.812  15.946  0.00  0.00    +0.000 OA
ATOM     26  C   UNL     1       5.460   4.615  15.180  0.00  0.00    +0.000 C 
ATOM     27  C   UNL     1       6.898   4.483  15.711  0.00  0.00    +0.000 C 
ATOM     28  C   UNL     1       6.930   4.865  17.199  0.00  0.00    +0.000 C 
ATOM     29  C   UNL     1       5.908   4.035  17.999  0.00  0.00    +0.000 C 
BRANCH  27  30
ATOM     30  O   UNL     1       7.795   5.291  14.940  0.00  0.00    +0.000 OA
ATOM     31  H   UNL     1       8.375   5.782  15.552  0.00  0.00    +0.000 HD
ENDBRANCH  27  30
BRANCH  28  32
ATOM     32  O   UNL     1       8.247   4.700  17.737  0.00  0.00    +0.000 OA
ATOM     33  H   UNL     1       8.891   4.782  17.010  0.00  0.00    +0.000 HD
ENDBRANCH  28  32
BRANCH  29  34
ATOM     34  O   UNL     1       5.826   4.481  19.354  0.00  0.00    +0.000 OA
ATOM     35  H   UNL     1       5.349   3.816  19.883  0.00  0.00    +0.000 HD
ENDBRANCH  29  34
BRANCH  26  36
ATOM     36  C   UNL     1       5.358   4.164  13.715  0.00  0.00    +0.000 C 
BRANCH  36  37
ATOM     37  O   UNL     1       6.380   3.247  13.354  0.00  0.00    +0.000 OA
ATOM     38  H   UNL     1       7.053   3.275  14.067  0.00  0.00    +0.000 HD
ENDBRANCH  36  37
ENDBRANCH  26  36
ENDBRANCH  23  24
ENDBRANCH  22  23
ENDBRANCH   1  22
TORSDOF 11
ENDMDL
MODEL 3
REMARK VINA RESULT:      -7.7      6.646     10.912
REMARK  Name = 
REMARK  11 active torsions:
REMARK  status: ('A' for Active; 'I' for Inactive)
REMARK    1  A    between atoms: C_2  and  C_3
REMARK    2  A    between atoms: C_2  and  C_21
REMARK    3  A    between atoms: C_4  and  C_5
REMARK    4  A    between atoms: C_9  and  N_10
REMARK    5  A    between atoms: N_13  and  C_14
REMARK    6  A    between atoms: C_21  and  C_22
REMARK    7  A    between atoms: C_24  and  C_25
REMARK    8  A    between atoms: C_25  and  O_26
REMARK    9  A    between atoms: C_27  and  O_28
REMARK   10  A    between atoms: C_29  and  O_30
REMARK   11  A    between atoms: C_31  and  O_32
REMARK                            x       y       z     vdW  Elec       q    Type
REMARK                         _______ _______ _______ _____ _____    ______ ____
ROOT
ATOM      1  C   UNL     1       1.810   8.125  18.652  0.00  0.00    +0.000 C 
ATOM      2  C   UNL     1       2.233   7.430  19.720  0.00  0.00    +0.000 C 
ENDROOT
BRANCH   2   3
ATOM      3  C   UNL     1       2.599   6.002  19.723  0.00  0.00    +0.000 A 
ATOM      4  C   UNL     1       1.933   5.049  20.503  0.00  0.00    +0.000 A 
ATOM      5  C   UNL     1       2.314   3.708  20.460  0.00  0.00    +0.000 A 
ATOM      6  C   UNL     1       3.359   3.304  19.630  0.00  0.00    +0.000 A 
ATOM      7  C   UNL     1       4.037   4.226  18.833  0.00  0.00    +0.000 A 
ATOM      8  C   UNL     1       3.668   5.578  18.907  0.00  0.00    +0.000 A 
BRANCH   7   9
ATOM      9  N   UNL     1       5.096   3.852  17.971  0.00  0.00    +0.000 N 
ATOM     10  C   UNL     1       5.269   4.338  16.684  0.00  0.00    +0.000 C 
ATOM     11  O   UNL     1       4.622   5.255  16.193  0.00  0.00    +0.000 OA
ATOM     12  N   UNL     1       6.253   3.632  16.001  0.00  0.00    +0.000 N 
ATOM     13  H   UNL     1       5.916   3.438  18.392  0.00  0.00    +0.000 HD
ATOM     14  H   UNL     1       6.291   2.650  16.232  0.00  0.00    +0.000 HD
BRANCH  12  15
ATOM     15  C   UNL     1       6.603   3.980  14.675  0.00  0.00    +0.000 A 
ATOM     16  C   UNL     1       7.524   4.997  14.406  0.00  0.00    +0.000 A 
ATOM     17  C   UNL     1       7.808   5.365  13.090  0.00  0.00    +0.000 A 
ATOM     18  C   UNL     1       7.161   4.724  12.036  0.00  0.00    +0.000 A 
ATOM     19  C   UNL     1       6.255   3.696  12.297  0.00  0.00    +0.000 A 
ATOM     20  C   UNL     1       5.994   3.306  13.615  0.00  0.00    +0.000 A 
ENDBRANCH  12  15
ENDBRANCH   7   9
ENDBRANCH   2   3
BRANCH   1  22
ATOM     21  O   UNL     1       2.045  10.359  17.901  0.00  0.00    +0.000 OA
ATOM     22  C   UNL     1       1.606   9.599  18.763  0.00  0.00    +0.000 C 
BRANCH  22  23
ATOM     23  C   UNL     1       0.844  10.124  19.970  0.00  0.00    +0.000 C 
BRANCH  23  24
ATOM     24  C   UNL     1      -0.630  10.445  19.686  0.00  0.00    +0.000 C 
ATOM     25  O   UNL     1      -0.890  10.177  18.306  0.00  0.00    +0.000 OA
ATOM     26  C   UNL     1      -2.242  10.393  17.896  0.00  0.00    +0.000 C 
ATOM     27  C   UNL     1      -2.666  11.848  18.158  0.00  0.00    +0.000 C 
ATOM     28  C   UNL     1      -2.469  12.178  19.646  0.00  0.00    +0.000 C 
ATOM     29  C   UNL     1      -1.025  11.878  20.086  0.00  0.00    +0.000 C 
BRANCH  27  30
ATOM     30  O   UNL     1      -4.023  12.059  17.747  0.00  0.00    +0.000 OA
ATOM     31  H   UNL     1      -4.463  12.625  18.408  0.00  0.00    +0.000 HD
ENDBRANCH  27  30
BRANCH  28  32
ATOM     32  O   UNL     1      -2.806  13.545  19.912  0.00  0.00    +0.000 OA
ATOM     33  H   UNL     1      -3.638  13.566  20.420  0.00  0.00    +0.000 HD
ENDBRANCH  28  32
BRANCH  29  34
ATOM     34  O   UNL     1      -0.868  12.043  21.497  0.00  0.00    +0.000 OA
ATOM     35  H   UNL     1       0.080  12.025  21.719  0.00  0.00    +0.000 HD
ENDBRANCH  29  34
BRANCH  26  36
ATOM     36  C   UNL     1      -2.341  10.038  16.405  0.00  0.00    +0.000 C 
BRANCH  36  37
ATOM     37  O   UNL     1      -2.541  11.180  15.585  0.00  0.00    +0.000 OA
ATOM     38  H   UNL     1      -3.487  11.426  15.665  0.00  0.00    +0.000 HD
ENDBRANCH  36  37
ENDBRANCH  26  36
ENDBRANCH  23  24
ENDBRANCH  22  23
ENDBRANCH   1  22
TORSDOF 11
ENDMDL
MODEL 4
REMARK VINA RESULT:      -7.7      5.343      7.306
REMARK  Name = 
REMARK  11 active torsions:
REMARK  status: ('A' for Active; 'I' for Inactive)
REMARK    1  A    between atoms: C_2  and  C_3
REMARK    2  A    between atoms: C_2  and  C_21
REMARK    3  A    between atoms: C_4  and  C_5
REMARK    4  A    between atoms: C_9  and  N_10
REMARK    5  A    between atoms: N_13  and  C_14
REMARK    6  A    between atoms: C_21  and  C_22
REMARK    7  A    between atoms: C_24  and  C_25
REMARK    8  A    between atoms: C_25  and  O_26
REMARK    9  A    between atoms: C_27  and  O_28
REMARK   10  A    between atoms: C_29  and  O_30
REMARK   11  A    between atoms: C_31  and  O_32
REMARK                            x       y       z     vdW  Elec       q    Type
REMARK                         _______ _______ _______ _____ _____    ______ ____
ROOT
ATOM      1  C   UNL     1       2.237   5.240  18.772  0.00  0.00    +0.000 C 
ATOM      2  C   UNL     1       2.774   6.371  19.259  0.00  0.00    +0.000 C 
ENDROOT
BRANCH   2   3
ATOM      3  C   UNL     1       2.157   7.708  19.195  0.00  0.00    +0.000 A 
ATOM      4  C   UNL     1       2.124   8.473  18.023  0.00  0.00    +0.000 A 
ATOM      5  C   UNL     1       1.519   9.729  18.015  0.00  0.00    +0.000 A 
ATOM      6  C   UNL     1       0.933  10.231  19.177  0.00  0.00    +0.000 A 
ATOM      7  C   UNL     1       0.940   9.490  20.359  0.00  0.00    +0.000 A 
ATOM      8  C   UNL     1       1.579   8.241  20.366  0.00  0.00    +0.000 A 
BRANCH   7   9
ATOM      9  N   UNL     1       0.346   9.961  21.555  0.00  0.00    +0.000 N 
ATOM     10  C   UNL     1      -0.585  10.987  21.616  0.00  0.00    +0.000 C 
ATOM     11  O   UNL     1      -1.117  11.504  20.642  0.00  0.00    +0.000 OA
ATOM     12  N   UNL     1      -0.821  11.382  22.929  0.00  0.00    +0.000 N 
ATOM     13  H   UNL     1       0.376   9.354  22.361  0.00  0.00    +0.000 HD
ATOM     14  H   UNL     1      -0.008  11.335  23.525  0.00  0.00    +0.000 HD
BRANCH  12  15
ATOM     15  C   UNL     1      -1.755  12.405  23.219  0.00  0.00    +0.000 A 
ATOM     16  C   UNL     1      -1.372  13.748  23.275  0.00  0.00    +0.000 A 
ATOM     17  C   UNL     1      -2.297  14.734  23.623  0.00  0.00    +0.000 A 
ATOM     18  C   UNL     1      -3.608  14.378  23.928  0.00  0.00    +0.000 A 
ATOM     19  C   UNL     1      -4.001  13.041  23.856  0.00  0.00    +0.000 A 
ATOM     20  C   UNL     1      -3.082  12.057  23.477  0.00  0.00    +0.000 A 
ENDBRANCH  12  15
ENDBRANCH   7   9
ENDBRANCH   2   3
BRANCH   1  22
ATOM     21  O   UNL     1       2.329   2.874  18.793  0.00  0.00    +0.000 OA
ATOM     22  C   UNL     1       2.909   3.932  19.029  0.00  0.00    +0.000 C 
BRANCH  22  23
ATOM     23  C   UNL     1       4.323   3.955  19.588  0.00  0.00    +0.000 C 
BRANCH  23  24
ATOM     24  C   UNL     1       5.416   4.079  18.518  0.00  0.00    +0.000 C 
ATOM     25  O   UNL     1       6.031   5.363  18.653  0.00  0.00    +0.000 OA
ATOM     26  C   UNL     1       7.104   5.613  17.742  0.00  0.00    +0.000 C 
ATOM     27  C   UNL     1       6.622   5.497  16.286  0.00  0.00    +0.000 C 
ATOM     28  C   UNL     1       6.006   4.108  16.061  0.00  0.00    +0.000 C 
ATOM     29  C   UNL     1       4.897   3.828  17.091  0.00  0.00    +0.000 C 
BRANCH  27  30
ATOM     30  O   UNL     1       7.702   5.747  15.377  0.00  0.00    +0.000 OA
ATOM     31  H   UNL     1       8.490   5.266  15.691  0.00  0.00    +0.000 HD
ENDBRANCH  27  30
BRANCH  28  32
ATOM     32  O   UNL     1       5.500   3.986  14.727  0.00  0.00    +0.000 OA
ATOM     33  H   UNL     1       4.613   3.582  14.768  0.00  0.00    +0.000 HD
ENDBRANCH  28  32
BRANCH  29  34
ATOM     34  O   UNL     1       4.417   2.486  16.985  0.00  0.00    +0.000 OA
ATOM     35  H   UNL     1       4.453   2.061  17.861  0.00  0.00    +0.000 HD
ENDBRANCH  29  34
BRANCH  26  36
ATOM     36  C   UNL     1       7.654   7.016  18.042  0.00  0.00    +0.000 C 
BRANCH  36  37
ATOM     37  O   UNL     1       7.304   7.964  17.044  0.00  0.00    +0.000 OA
ATOM     38  H   UNL     1       6.493   8.419  17.355  0.00  0.00    +0.000 HD
ENDBRANCH  36  37
ENDBRANCH  26  36
ENDBRANCH  23  24
ENDBRANCH  22  23
ENDBRANCH   1  22
TORSDOF 11
ENDMDL
MODEL 5
REMARK VINA RESULT:      -7.7      6.319     10.969
REMARK  Name = 
REMARK  11 active torsions:
REMARK  status: ('A' for Active; 'I' for Inactive)
REMARK    1  A    between atoms: C_2  and  C_3
REMARK    2  A    between atoms: C_2  and  C_21
REMARK    3  A    between atoms: C_4  and  C_5
REMARK    4  A    between atoms: C_9  and  N_10
REMARK    5  A    between atoms: N_13  and  C_14
REMARK    6  A    between atoms: C_21  and  C_22
REMARK    7  A    between atoms: C_24  and  C_25
REMARK    8  A    between atoms: C_25  and  O_26
REMARK    9  A    between atoms: C_27  and  O_28
REMARK   10  A    between atoms: C_29  and  O_30
REMARK   11  A    between atoms: C_31  and  O_32
REMARK                            x       y       z     vdW  Elec       q    Type
REMARK                         _______ _______ _______ _____ _____    ______ ____
ROOT
ATOM      1  C   UNL     1       1.798   7.664  20.729  0.00  0.00    +0.000 C 
ATOM      2  C   UNL     1       1.328   6.431  20.974  0.00  0.00    +0.000 C 
ENDROOT
BRANCH   2   3
ATOM      3  C   UNL     1       1.950   5.173  20.524  0.00  0.00    +0.000 A 
ATOM      4  C   UNL     1       1.418   3.913  20.826  0.00  0.00    +0.000 A 
ATOM      5  C   UNL     1       2.041   2.754  20.366  0.00  0.00    +0.000 A 
ATOM      6  C   UNL     1       3.198   2.841  19.592  0.00  0.00    +0.000 A 
ATOM      7  C   UNL     1       3.748   4.080  19.266  0.00  0.00    +0.000 A 
ATOM      8  C   UNL     1       3.133   5.240  19.759  0.00  0.00    +0.000 A 
BRANCH   7   9
ATOM      9  N   UNL     1       4.915   4.208  18.475  0.00  0.00    +0.000 N 
ATOM     10  C   UNL     1       4.919   4.289  17.091  0.00  0.00    +0.000 C 
ATOM     11  O   UNL     1       3.918   4.411  16.397  0.00  0.00    +0.000 OA
ATOM     12  N   UNL     1       6.208   4.183  16.578  0.00  0.00    +0.000 N 
ATOM     13  H   UNL     1       5.754   4.539  18.931  0.00  0.00    +0.000 HD
ATOM     14  H   UNL     1       6.808   3.560  17.099  0.00  0.00    +0.000 HD
BRANCH  12  15
ATOM     15  C   UNL     1       6.440   4.260  15.184  0.00  0.00    +0.000 A 
ATOM     16  C   UNL     1       5.717   3.477  14.280  0.00  0.00    +0.000 A 
ATOM     17  C   UNL     1       6.004   3.524  12.914  0.00  0.00    +0.000 A 
ATOM     18  C   UNL     1       7.026   4.348  12.450  0.00  0.00    +0.000 A 
ATOM     19  C   UNL     1       7.739   5.145  13.345  0.00  0.00    +0.000 A 
ATOM     20  C   UNL     1       7.431   5.121  14.709  0.00  0.00    +0.000 A 
ENDBRANCH  12  15
ENDBRANCH   7   9
ENDBRANCH   2   3
BRANCH   1  22
ATOM     21  O   UNL     1       1.614   9.355  22.379  0.00  0.00    +0.000 OA
ATOM     22  C   UNL     1       1.141   8.846  21.363  0.00  0.00    +0.000 C 
BRANCH  22  23
ATOM     23  C   UNL     1      -0.123   9.391  20.717  0.00  0.00    +0.000 C 
BRANCH  23  24
ATOM     24  C   UNL     1       0.066  10.747  20.023  0.00  0.00    +0.000 C 
ATOM     25  O   UNL     1      -0.193  11.779  20.978  0.00  0.00    +0.000 OA
ATOM     26  C   UNL     1      -0.019  13.110  20.487  0.00  0.00    +0.000 C 
ATOM     27  C   UNL     1      -0.939  13.372  19.282  0.00  0.00    +0.000 C 
ATOM     28  C   UNL     1      -0.660  12.328  18.190  0.00  0.00    +0.000 C 
ATOM     29  C   UNL     1      -0.788  10.900  18.752  0.00  0.00    +0.000 C 
BRANCH  27  30
ATOM     30  O   UNL     1      -0.759  14.707  18.792  0.00  0.00    +0.000 OA
ATOM     31  H   UNL     1      -1.634  15.130  18.714  0.00  0.00    +0.000 HD
ENDBRANCH  27  30
BRANCH  28  32
ATOM     32  O   UNL     1      -1.539  12.512  17.074  0.00  0.00    +0.000 OA
ATOM     33  H   UNL     1      -1.979  13.378  17.166  0.00  0.00    +0.000 HD
ENDBRANCH  28  32
BRANCH  29  34
ATOM     34  O   UNL     1      -0.391   9.924  17.787  0.00  0.00    +0.000 OA
ATOM     35  H   UNL     1       0.387  10.252  17.300  0.00  0.00    +0.000 HD
ENDBRANCH  29  34
BRANCH  26  36
ATOM     36  C   UNL     1      -0.316  14.078  21.642  0.00  0.00    +0.000 C 
BRANCH  36  37
ATOM     37  O   UNL     1       0.798  14.255  22.505  0.00  0.00    +0.000 OA
ATOM     38  H   UNL     1       1.244  13.384  22.578  0.00  0.00    +0.000 HD
ENDBRANCH  36  37
ENDBRANCH  26  36
ENDBRANCH  23  24
ENDBRANCH  22  23
ENDBRANCH   1  22
TORSDOF 11
ENDMDL
MODEL 6
REMARK VINA RESULT:      -7.6      6.484     10.810
REMARK  Name = 
REMARK  11 active torsions:
REMARK  status: ('A' for Active; 'I' for Inactive)
REMARK    1  A    between atoms: C_2  and  C_3
REMARK    2  A    between atoms: C_2  and  C_21
REMARK    3  A    between atoms: C_4  and  C_5
REMARK    4  A    between atoms: C_9  and  N_10
REMARK    5  A    between atoms: N_13  and  C_14
REMARK    6  A    between atoms: C_21  and  C_22
REMARK    7  A    between atoms: C_24  and  C_25
REMARK    8  A    between atoms: C_25  and  O_26
REMARK    9  A    between atoms: C_27  and  O_28
REMARK   10  A    between atoms: C_29  and  O_30
REMARK   11  A    between atoms: C_31  and  O_32
REMARK                            x       y       z     vdW  Elec       q    Type
REMARK                         _______ _______ _______ _____ _____    ______ ____
ROOT
ATOM      1  C   UNL     1       1.768   8.123  18.099  0.00  0.00    +0.000 C 
ATOM      2  C   UNL     1       2.146   7.586  19.270  0.00  0.00    +0.000 C 
ENDROOT
BRANCH   2   3
ATOM      3  C   UNL     1       2.596   6.197  19.470  0.00  0.00    +0.000 A 
ATOM      4  C   UNL     1       2.051   5.356  20.448  0.00  0.00    +0.000 A 
ATOM      5  C   UNL     1       2.506   4.046  20.588  0.00  0.00    +0.000 A 
ATOM      6  C   UNL     1       3.505   3.559  19.746  0.00  0.00    +0.000 A 
ATOM      7  C   UNL     1       4.062   4.367  18.756  0.00  0.00    +0.000 A 
ATOM      8  C   UNL     1       3.621   5.694  18.642  0.00  0.00    +0.000 A 
BRANCH   7   9
ATOM      9  N   UNL     1       5.071   3.904  17.876  0.00  0.00    +0.000 N 
ATOM     10  C   UNL     1       5.294   4.409  16.604  0.00  0.00    +0.000 C 
ATOM     11  O   UNL     1       4.753   5.408  16.146  0.00  0.00    +0.000 OA
ATOM     12  N   UNL     1       6.192   3.620  15.893  0.00  0.00    +0.000 N 
ATOM     13  H   UNL     1       5.841   3.389  18.279  0.00  0.00    +0.000 HD
ATOM     14  H   UNL     1       6.120   2.633  16.093  0.00  0.00    +0.000 HD
BRANCH  12  15
ATOM     15  C   UNL     1       6.576   3.969  14.576  0.00  0.00    +0.000 A 
ATOM     16  C   UNL     1       7.523   4.968  14.333  0.00  0.00    +0.000 A 
ATOM     17  C   UNL     1       7.841   5.338  13.025  0.00  0.00    +0.000 A 
ATOM     18  C   UNL     1       7.202   4.718  11.954  0.00  0.00    +0.000 A 
ATOM     19  C   UNL     1       6.269   3.708  12.191  0.00  0.00    +0.000 A 
ATOM     20  C   UNL     1       5.973   3.315  13.500  0.00  0.00    +0.000 A 
ENDBRANCH  12  15
ENDBRANCH   7   9
ENDBRANCH   2   3
BRANCH   1  22
ATOM     21  O   UNL     1       2.372  10.400  17.855  0.00  0.00    +0.000 OA
ATOM     22  C   UNL     1       1.468   9.583  18.017  0.00  0.00    +0.000 C 
BRANCH  22  23
ATOM     23  C   UNL     1       0.017  10.020  18.143  0.00  0.00    +0.000 C 
BRANCH  23  24
ATOM     24  C   UNL     1      -0.227  11.070  19.236  0.00  0.00    +0.000 C 
ATOM     25  O   UNL     1      -0.256  10.402  20.500  0.00  0.00    +0.000 OA
ATOM     26  C   UNL     1      -0.438  11.261  21.628  0.00  0.00    +0.000 C 
ATOM     27  C   UNL     1      -1.753  12.051  21.508  0.00  0.00    +0.000 C 
ATOM     28  C   UNL     1      -1.753  12.843  20.191  0.00  0.00    +0.000 C 
ATOM     29  C   UNL     1      -1.492  11.913  18.992  0.00  0.00    +0.000 C 
BRANCH  27  30
ATOM     30  O   UNL     1      -1.929  12.910  22.640  0.00  0.00    +0.000 OA
ATOM     31  H   UNL     1      -1.174  12.786  23.245  0.00  0.00    +0.000 HD
ENDBRANCH  27  30
BRANCH  28  32
ATOM     32  O   UNL     1      -2.989  13.549  20.024  0.00  0.00    +0.000 OA
ATOM     33  H   UNL     1      -2.826  14.498  20.176  0.00  0.00    +0.000 HD
ENDBRANCH  28  32
BRANCH  29  34
ATOM     34  O   UNL     1      -1.346  12.657  17.781  0.00  0.00    +0.000 OA
ATOM     35  H   UNL     1      -0.399  12.794  17.600  0.00  0.00    +0.000 HD
ENDBRANCH  29  34
BRANCH  26  36
ATOM     36  C   UNL     1      -0.422  10.385  22.890  0.00  0.00    +0.000 C 
BRANCH  36  37
ATOM     37  O   UNL     1      -0.795   9.040  22.624  0.00  0.00    +0.000 OA
ATOM     38  H   UNL     1      -1.729   9.057  22.324  0.00  0.00    +0.000 HD
ENDBRANCH  36  37
ENDBRANCH  26  36
ENDBRANCH  23  24
ENDBRANCH  22  23
ENDBRANCH   1  22
TORSDOF 11
ENDMDL
MODEL 7
REMARK VINA RESULT:      -7.6      6.484     10.891
REMARK  Name = 
REMARK  11 active torsions:
REMARK  status: ('A' for Active; 'I' for Inactive)
REMARK    1  A    between atoms: C_2  and  C_3
REMARK    2  A    between atoms: C_2  and  C_21
REMARK    3  A    between atoms: C_4  and  C_5
REMARK    4  A    between atoms: C_9  and  N_10
REMARK    5  A    between atoms: N_13  and  C_14
REMARK    6  A    between atoms: C_21  and  C_22
REMARK    7  A    between atoms: C_24  and  C_25
REMARK    8  A    between atoms: C_25  and  O_26
REMARK    9  A    between atoms: C_27  and  O_28
REMARK   10  A    between atoms: C_29  and  O_30
REMARK   11  A    between atoms: C_31  and  O_32
REMARK                            x       y       z     vdW  Elec       q    Type
REMARK                         _______ _______ _______ _____ _____    ______ ____
ROOT
ATOM      1  C   UNL     1       2.182   7.665  18.368  0.00  0.00    +0.000 C 
ATOM      2  C   UNL     1       2.304   6.966  19.507  0.00  0.00    +0.000 C 
ENDROOT
BRANCH   2   3
ATOM      3  C   UNL     1       2.806   5.584  19.614  0.00  0.00    +0.000 A 
ATOM      4  C   UNL     1       2.407   4.708  20.631  0.00  0.00    +0.000 A 
ATOM      5  C   UNL     1       2.905   3.407  20.680  0.00  0.00    +0.000 A 
ATOM      6  C   UNL     1       3.803   2.965  19.709  0.00  0.00    +0.000 A 
ATOM      7  C   UNL     1       4.215   3.809  18.678  0.00  0.00    +0.000 A 
ATOM      8  C   UNL     1       3.732   5.127  18.654  0.00  0.00    +0.000 A 
BRANCH   7   9
ATOM      9  N   UNL     1       5.116   3.393  17.669  0.00  0.00    +0.000 N 
ATOM     10  C   UNL     1       5.376   4.103  16.507  0.00  0.00    +0.000 C 
ATOM     11  O   UNL     1       4.977   5.239  16.281  0.00  0.00    +0.000 OA
ATOM     12  N   UNL     1       6.124   3.352  15.607  0.00  0.00    +0.000 N 
ATOM     13  H   UNL     1       5.812   2.704  17.920  0.00  0.00    +0.000 HD
ATOM     14  H   UNL     1       5.911   2.365  15.617  0.00  0.00    +0.000 HD
BRANCH  12  15
ATOM     15  C   UNL     1       6.517   3.898  14.361  0.00  0.00    +0.000 A 
ATOM     16  C   UNL     1       6.029   3.387  13.155  0.00  0.00    +0.000 A 
ATOM     17  C   UNL     1       6.477   3.900  11.936  0.00  0.00    +0.000 A 
ATOM     18  C   UNL     1       7.426   4.919  11.920  0.00  0.00    +0.000 A 
ATOM     19  C   UNL     1       7.903   5.445  13.121  0.00  0.00    +0.000 A 
ATOM     20  C   UNL     1       7.431   4.953  14.342  0.00  0.00    +0.000 A 
ENDBRANCH  12  15
ENDBRANCH   7   9
ENDBRANCH   2   3
BRANCH   1  22
ATOM     21  O   UNL     1       2.135   9.882  17.535  0.00  0.00    +0.000 OA
ATOM     22  C   UNL     1       1.788   9.104  18.422  0.00  0.00    +0.000 C 
BRANCH  22  23
ATOM     23  C   UNL     1       0.951   9.570  19.603  0.00  0.00    +0.000 C 
BRANCH  23  24
ATOM     24  C   UNL     1       0.315  10.954  19.410  0.00  0.00    +0.000 C 
ATOM     25  O   UNL     1       0.274  11.609  20.680  0.00  0.00    +0.000 OA
ATOM     26  C   UNL     1      -0.262  12.934  20.655  0.00  0.00    +0.000 C 
ATOM     27  C   UNL     1      -1.698  12.932  20.104  0.00  0.00    +0.000 C 
ATOM     28  C   UNL     1      -1.708  12.295  18.707  0.00  0.00    +0.000 C 
ATOM     29  C   UNL     1      -1.069  10.894  18.739  0.00  0.00    +0.000 C 
BRANCH  27  30
ATOM     30  O   UNL     1      -2.230  14.263  20.080  0.00  0.00    +0.000 OA
ATOM     31  H   UNL     1      -2.711  14.420  20.914  0.00  0.00    +0.000 HD
ENDBRANCH  27  30
BRANCH  28  32
ATOM     32  O   UNL     1      -3.042  12.229  18.187  0.00  0.00    +0.000 OA
ATOM     33  H   UNL     1      -3.538  13.005  18.509  0.00  0.00    +0.000 HD
ENDBRANCH  28  32
BRANCH  29  34
ATOM     34  O   UNL     1      -0.941  10.352  17.423  0.00  0.00    +0.000 OA
ATOM     35  H   UNL     1      -0.323   9.599  17.445  0.00  0.00    +0.000 HD
ENDBRANCH  29  34
BRANCH  26  36
ATOM     36  C   UNL     1      -0.210  13.486  22.088  0.00  0.00    +0.000 C 
BRANCH  36  37
ATOM     37  O   UNL     1      -0.574  12.517  23.060  0.00  0.00    +0.000 OA
ATOM     38  H   UNL     1      -0.994  13.001  23.802  0.00  0.00    +0.000 HD
ENDBRANCH  36  37
ENDBRANCH  26  36
ENDBRANCH  23  24
ENDBRANCH  22  23
ENDBRANCH   1  22
TORSDOF 11
ENDMDL
MODEL 8
REMARK VINA RESULT:      -7.4      1.243      1.542
REMARK  Name = 
REMARK  11 active torsions:
REMARK  status: ('A' for Active; 'I' for Inactive)
REMARK    1  A    between atoms: C_2  and  C_3
REMARK    2  A    between atoms: C_2  and  C_21
REMARK    3  A    between atoms: C_4  and  C_5
REMARK    4  A    between atoms: C_9  and  N_10
REMARK    5  A    between atoms: N_13  and  C_14
REMARK    6  A    between atoms: C_21  and  C_22
REMARK    7  A    between atoms: C_24  and  C_25
REMARK    8  A    between atoms: C_25  and  O_26
REMARK    9  A    between atoms: C_27  and  O_28
REMARK   10  A    between atoms: C_29  and  O_30
REMARK   11  A    between atoms: C_31  and  O_32
REMARK                            x       y       z     vdW  Elec       q    Type
REMARK                         _______ _______ _______ _____ _____    ______ ____
ROOT
ATOM      1  C   UNL     1       8.129   7.659  18.357  0.00  0.00    +0.000 C 
ATOM      2  C   UNL     1       8.228   8.898  17.849  0.00  0.00    +0.000 C 
ENDROOT
BRANCH   2   3
ATOM      3  C   UNL     1       8.877  10.045  18.509  0.00  0.00    +0.000 A 
ATOM      4  C   UNL     1       9.494  11.081  17.797  0.00  0.00    +0.000 A 
ATOM      5  C   UNL     1      10.085  12.148  18.471  0.00  0.00    +0.000 A 
ATOM      6  C   UNL     1      10.060  12.196  19.865  0.00  0.00    +0.000 A 
ATOM      7  C   UNL     1       9.447  11.185  20.604  0.00  0.00    +0.000 A 
ATOM      8  C   UNL     1       8.881  10.099  19.918  0.00  0.00    +0.000 A 
BRANCH   7   9
ATOM      9  N   UNL     1       9.392  11.204  22.018  0.00  0.00    +0.000 N 
ATOM     10  C   UNL     1       8.409  11.845  22.757  0.00  0.00    +0.000 C 
ATOM     11  O   UNL     1       7.394  12.340  22.284  0.00  0.00    +0.000 OA
ATOM     12  N   UNL     1       8.733  11.886  24.109  0.00  0.00    +0.000 N 
ATOM     13  H   UNL     1       9.915  10.496  22.515  0.00  0.00    +0.000 HD
ATOM     14  H   UNL     1       9.720  11.989  24.293  0.00  0.00    +0.000 HD
BRANCH  12  15
ATOM     15  C   UNL     1       7.854  12.480  25.045  0.00  0.00    +0.000 A 
ATOM     16  C   UNL     1       7.956  13.832  25.385  0.00  0.00    +0.000 A 
ATOM     17  C   UNL     1       7.117  14.383  26.357  0.00  0.00    +0.000 A 
ATOM     18  C   UNL     1       6.181  13.578  27.000  0.00  0.00    +0.000 A 
ATOM     19  C   UNL     1       6.062  12.233  26.652  0.00  0.00    +0.000 A 
ATOM     20  C   UNL     1       6.881  11.688  25.657  0.00  0.00    +0.000 A 
ENDBRANCH  12  15
ENDBRANCH   7   9
ENDBRANCH   2   3
BRANCH   1  22
ATOM     21  O   UNL     1       7.514   6.668  16.295  0.00  0.00    +0.000 OA
ATOM     22  C   UNL     1       7.565   6.559  17.520  0.00  0.00    +0.000 C 
BRANCH  22  23
ATOM     23  C   UNL     1       7.059   5.312  18.227  0.00  0.00    +0.000 C 
BRANCH  23  24
ATOM     24  C   UNL     1       5.533   5.152  18.196  0.00  0.00    +0.000 C 
ATOM     25  O   UNL     1       4.946   6.456  18.174  0.00  0.00    +0.000 OA
ATOM     26  C   UNL     1       3.519   6.470  18.105  0.00  0.00    +0.000 C 
ATOM     27  C   UNL     1       2.906   5.723  19.302  0.00  0.00    +0.000 C 
ATOM     28  C   UNL     1       3.453   4.288  19.342  0.00  0.00    +0.000 C 
ATOM     29  C   UNL     1       4.992   4.289  19.351  0.00  0.00    +0.000 C 
BRANCH  27  30
ATOM     30  O   UNL     1       1.475   5.740  19.227  0.00  0.00    +0.000 OA
ATOM     31  H   UNL     1       1.209   6.338  18.504  0.00  0.00    +0.000 HD
ENDBRANCH  27  30
BRANCH  28  32
ATOM     32  O   UNL     1       2.942   3.581  20.478  0.00  0.00    +0.000 OA
ATOM     33  H   UNL     1       3.020   4.156  21.262  0.00  0.00    +0.000 HD
ENDBRANCH  28  32
BRANCH  29  34
ATOM     34  O   UNL     1       5.513   2.962  19.242  0.00  0.00    +0.000 OA
ATOM     35  H   UNL     1       6.238   2.848  19.882  0.00  0.00    +0.000 HD
ENDBRANCH  29  34
BRANCH  26  36
ATOM     36  C   UNL     1       3.067   7.938  18.067  0.00  0.00    +0.000 C 
BRANCH  36  37
ATOM     37  O   UNL     1       1.752   8.091  17.555  0.00  0.00    +0.000 OA
ATOM     38  H   UNL     1       1.139   8.021  18.317  0.00  0.00    +0.000 HD
ENDBRANCH  36  37
ENDBRANCH  26  36
ENDBRANCH  23  24
ENDBRANCH  22  23
ENDBRANCH   1  22
TORSDOF 11
ENDMDL
MODEL 9
REMARK VINA RESULT:      -7.4      6.486     11.107
REMARK  Name = 
REMARK  11 active torsions:
REMARK  status: ('A' for Active; 'I' for Inactive)
REMARK    1  A    between atoms: C_2  and  C_3
REMARK    2  A    between atoms: C_2  and  C_21
REMARK    3  A    between atoms: C_4  and  C_5
REMARK    4  A    between atoms: C_9  and  N_10
REMARK    5  A    between atoms: N_13  and  C_14
REMARK    6  A    between atoms: C_21  and  C_22
REMARK    7  A    between atoms: C_24  and  C_25
REMARK    8  A    between atoms: C_25  and  O_26
REMARK    9  A    between atoms: C_27  and  O_28
REMARK   10  A    between atoms: C_29  and  O_30
REMARK   11  A    between atoms: C_31  and  O_32
REMARK                            x       y       z     vdW  Elec       q    Type
REMARK                         _______ _______ _______ _____ _____    ______ ____
ROOT
ATOM      1  C   UNL     1       1.830   7.465  20.324  0.00  0.00    +0.000 C 
ATOM      2  C   UNL     1       1.817   6.229  20.849  0.00  0.00    +0.000 C 
ENDROOT
BRANCH   2   3
ATOM      3  C   UNL     1       2.619   5.088  20.372  0.00  0.00    +0.000 A 
ATOM      4  C   UNL     1       2.360   3.766  20.755  0.00  0.00    +0.000 A 
ATOM      5  C   UNL     1       3.144   2.722  20.266  0.00  0.00    +0.000 A 
ATOM      6  C   UNL     1       4.189   2.987  19.381  0.00  0.00    +0.000 A 
ATOM      7  C   UNL     1       4.467   4.291  18.973  0.00  0.00    +0.000 A 
ATOM      8  C   UNL     1       3.694   5.339  19.494  0.00  0.00    +0.000 A 
BRANCH   7   9
ATOM      9  N   UNL     1       5.514   4.597  18.069  0.00  0.00    +0.000 N 
ATOM     10  C   UNL     1       5.440   4.419  16.696  0.00  0.00    +0.000 C 
ATOM     11  O   UNL     1       4.421   4.124  16.085  0.00  0.00    +0.000 OA
ATOM     12  N   UNL     1       6.682   4.591  16.093  0.00  0.00    +0.000 N 
ATOM     13  H   UNL     1       6.234   5.229  18.386  0.00  0.00    +0.000 HD
ATOM     14  H   UNL     1       7.458   4.269  16.652  0.00  0.00    +0.000 HD
BRANCH  12  15
ATOM     15  C   UNL     1       6.826   4.473  14.690  0.00  0.00    +0.000 A 
ATOM     16  C   UNL     1       7.696   5.302  13.974  0.00  0.00    +0.000 A 
ATOM     17  C   UNL     1       7.777   5.211  12.584  0.00  0.00    +0.000 A 
ATOM     18  C   UNL     1       6.978   4.297  11.902  0.00  0.00    +0.000 A 
ATOM     19  C   UNL     1       6.122   3.455  12.611  0.00  0.00    +0.000 A 
ATOM     20  C   UNL     1       6.063   3.525  14.007  0.00  0.00    +0.000 A 
ENDBRANCH  12  15
ENDBRANCH   7   9
ENDBRANCH   2   3
BRANCH   1  22
ATOM     21  O   UNL     1       0.585   8.394  22.113  0.00  0.00    +0.000 OA
ATOM     22  C   UNL     1       1.070   8.561  20.994  0.00  0.00    +0.000 C 
BRANCH  22  23
ATOM     23  C   UNL     1       0.916   9.879  20.252  0.00  0.00    +0.000 C 
BRANCH  23  24
ATOM     24  C   UNL     1      -0.491  10.487  20.344  0.00  0.00    +0.000 C 
ATOM     25  O   UNL     1      -0.930  10.803  19.020  0.00  0.00    +0.000 OA
ATOM     26  C   UNL     1      -2.249  11.346  18.940  0.00  0.00    +0.000 C 
ATOM     27  C   UNL     1      -2.361  12.637  19.769  0.00  0.00    +0.000 C 
ATOM     28  C   UNL     1      -1.960  12.346  21.223  0.00  0.00    +0.000 C 
ATOM     29  C   UNL     1      -0.564  11.701  21.288  0.00  0.00    +0.000 C 
BRANCH  27  30
ATOM     30  O   UNL     1      -3.685  13.176  19.685  0.00  0.00    +0.000 OA
ATOM     31  H   UNL     1      -4.163  12.956  20.507  0.00  0.00    +0.000 HD
ENDBRANCH  27  30
BRANCH  28  32
ATOM     32  O   UNL     1      -2.002  13.541  22.011  0.00  0.00    +0.000 OA
ATOM     33  H   UNL     1      -1.509  13.385  22.838  0.00  0.00    +0.000 HD
ENDBRANCH  28  32
BRANCH  29  34
ATOM     34  O   UNL     1      -0.242  11.293  22.619  0.00  0.00    +0.000 OA
ATOM     35  H   UNL     1       0.578  10.767  22.605  0.00  0.00    +0.000 HD
ENDBRANCH  29  34
BRANCH  26  36
ATOM     36  C   UNL     1      -2.559  11.602  17.457  0.00  0.00    +0.000 C 
BRANCH  36  37
ATOM     37  O   UNL     1      -3.906  11.998  17.242  0.00  0.00    +0.000 OA
ATOM     38  H   UNL     1      -4.163  12.560  18.003  0.00  0.00    +0.000 HD
ENDBRANCH  36  37
ENDBRANCH  26  36
ENDBRANCH  23  24
ENDBRANCH  22  23
ENDBRANCH   1  22
TORSDOF 11
ENDMDL
