MODEL 1
REMARK VINA RESULT:      -8.0      0.000      0.000
REMARK  Name = 
REMARK  1 active torsions:
REMARK  status: ('A' for Active; 'I' for Inactive)
REMARK    1  A    between atoms: C_10  and  C_11
REMARK                            x       y       z     vdW  Elec       q    Type
REMARK                         _______ _______ _______ _____ _____    ______ ____
ROOT
ATOM      1  N   UNL     1      -1.183  11.369  22.982  0.00  0.00    +0.000 N 
ATOM      2  C   UNL     1      -0.484  10.914  21.840  0.00  0.00    +0.000 A 
ATOM      3  N   UNL     1       0.120   9.699  21.789  0.00  0.00    +0.000 NA
ATOM      4  C   UNL     1       0.681   9.551  20.570  0.00  0.00    +0.000 A 
ATOM      5  C   UNL     1       0.547  10.572  19.697  0.00  0.00    +0.000 A 
ATOM      6  S   UNL     1      -0.332  11.817  20.396  0.00  0.00    +0.000 S 
ATOM      7  C   UNL     1       1.219  10.299  18.388  0.00  0.00    +0.000 C 
ATOM      8  C   UNL     1       1.764   8.915  18.680  0.00  0.00    +0.000 A 
ATOM      9  C   UNL     1       2.520   8.100  17.840  0.00  0.00    +0.000 A 
ATOM     10  C   UNL     1       2.974   6.836  18.311  0.00  0.00    +0.000 A 
ATOM     11  C   UNL     1       2.608   6.436  19.632  0.00  0.00    +0.000 A 
ATOM     12  C   UNL     1       1.831   7.264  20.455  0.00  0.00    +0.000 A 
ATOM     13  C   UNL     1       1.435   8.496  19.960  0.00  0.00    +0.000 A 
ATOM     14  H   UNL     1      -1.251  10.775  23.818  0.00  0.00    +0.000 HD
ATOM     15  H   UNL     1      -1.640  12.292  22.975  0.00  0.00    +0.000 HD
ENDROOT
BRANCH  10  16
ATOM     16  C   UNL     1       3.843   5.963  17.450  0.00  0.00    +0.000 A 
ATOM     17  C   UNL     1       4.744   6.529  16.517  0.00  0.00    +0.000 A 
ATOM     18  C   UNL     1       5.527   5.721  15.689  0.00  0.00    +0.000 A 
ATOM     19  C   UNL     1       5.443   4.334  15.779  0.00  0.00    +0.000 A 
ATOM     20  F   UNL     1       6.204   3.554  14.971  0.00  0.00    +0.000 F 
ATOM     21  C   UNL     1       4.572   3.750  16.696  0.00  0.00    +0.000 A 
ATOM     22  C   UNL     1       3.775   4.551  17.521  0.00  0.00    +0.000 A 
ENDBRANCH  10  16
TORSDOF 1
ENDMDL
MODEL 2
REMARK VINA RESULT:      -8.0      0.076      1.082
REMARK  Name = 
REMARK  1 active torsions:
REMARK  status: ('A' for Active; 'I' for Inactive)
REMARK    1  A    between atoms: C_10  and  C_11
REMARK                            x       y       z     vdW  Elec       q    Type
REMARK                         _______ _______ _______ _____ _____    ______ ____
ROOT
ATOM      1  N   UNL     1      -1.217  11.350  23.026  0.00  0.00    +0.000 N 
ATOM      2  C   UNL     1      -0.521  10.903  21.879  0.00  0.00    +0.000 A 
ATOM      3  N   UNL     1       0.095   9.694  21.824  0.00  0.00    +0.000 NA
ATOM      4  C   UNL     1       0.649   9.553  20.600  0.00  0.00    +0.000 A 
ATOM      5  C   UNL     1       0.498  10.572  19.728  0.00  0.00    +0.000 A 
ATOM      6  S   UNL     1      -0.389  11.807  20.434  0.00  0.00    +0.000 S 
ATOM      7  C   UNL     1       1.163  10.306  18.415  0.00  0.00    +0.000 C 
ATOM      8  C   UNL     1       1.725   8.928  18.703  0.00  0.00    +0.000 A 
ATOM      9  C   UNL     1       2.483   8.121  17.857  0.00  0.00    +0.000 A 
ATOM     10  C   UNL     1       2.953   6.861  18.324  0.00  0.00    +0.000 A 
ATOM     11  C   UNL     1       2.601   6.457  19.647  0.00  0.00    +0.000 A 
ATOM     12  C   UNL     1       1.821   7.278  20.476  0.00  0.00    +0.000 A 
ATOM     13  C   UNL     1       1.409   8.505  19.985  0.00  0.00    +0.000 A 
ATOM     14  H   UNL     1      -1.273  10.756  23.862  0.00  0.00    +0.000 HD
ATOM     15  H   UNL     1      -1.683  12.269  23.023  0.00  0.00    +0.000 HD
ENDROOT
BRANCH  10  16
ATOM     16  C   UNL     1       3.825   5.997  17.457  0.00  0.00    +0.000 A 
ATOM     17  C   UNL     1       3.728   4.586  17.506  0.00  0.00    +0.000 A 
ATOM     18  C   UNL     1       4.562   3.779  16.729  0.00  0.00    +0.000 A 
ATOM     19  C   UNL     1       5.502   4.354  15.878  0.00  0.00    +0.000 A 
ATOM     20  F   UNL     1       6.311   3.565  15.127  0.00  0.00    +0.000 F 
ATOM     21  C   UNL     1       5.611   5.741  15.801  0.00  0.00    +0.000 A 
ATOM     22  C   UNL     1       4.788   6.558  16.584  0.00  0.00    +0.000 A 
ENDBRANCH  10  16
TORSDOF 1
ENDMDL
MODEL 3
REMARK VINA RESULT:      -8.0      0.931      1.019
REMARK  Name = 
REMARK  1 active torsions:
REMARK  status: ('A' for Active; 'I' for Inactive)
REMARK    1  A    between atoms: C_10  and  C_11
REMARK                            x       y       z     vdW  Elec       q    Type
REMARK                         _______ _______ _______ _____ _____    ______ ____
ROOT
ATOM      1  N   UNL     1      -0.702   9.877  23.464  0.00  0.00    +0.000 N 
ATOM      2  C   UNL     1      -0.045   9.636  22.235  0.00  0.00    +0.000 A 
ATOM      3  N   UNL     1       0.644   8.494  21.987  0.00  0.00    +0.000 NA
ATOM      4  C   UNL     1       1.135   8.555  20.730  0.00  0.00    +0.000 A 
ATOM      5  C   UNL     1       0.867   9.666  20.012  0.00  0.00    +0.000 A 
ATOM      6  S   UNL     1      -0.057  10.730  20.920  0.00  0.00    +0.000 S 
ATOM      7  C   UNL     1       1.472   9.624  18.645  0.00  0.00    +0.000 C 
ATOM      8  C   UNL     1       2.138   8.265  18.717  0.00  0.00    +0.000 A 
ATOM      9  C   UNL     1       2.898   7.633  17.734  0.00  0.00    +0.000 A 
ATOM     10  C   UNL     1       3.476   6.361  18.003  0.00  0.00    +0.000 A 
ATOM     11  C   UNL     1       3.228   5.762  19.276  0.00  0.00    +0.000 A 
ATOM     12  C   UNL     1       2.445   6.407  20.244  0.00  0.00    +0.000 A 
ATOM     13  C   UNL     1       1.926   7.655  19.943  0.00  0.00    +0.000 A 
ATOM     14  H   UNL     1      -0.671   9.176  24.214  0.00  0.00    +0.000 HD
ATOM     15  H   UNL     1      -1.227  10.752  23.607  0.00  0.00    +0.000 HD
ENDROOT
BRANCH  10  16
ATOM     16  C   UNL     1       4.352   5.684  16.986  0.00  0.00    +0.000 A 
ATOM     17  C   UNL     1       5.013   6.433  15.984  0.00  0.00    +0.000 A 
ATOM     18  C   UNL     1       5.798   5.804  15.014  0.00  0.00    +0.000 A 
ATOM     19  C   UNL     1       5.955   4.420  15.027  0.00  0.00    +0.000 A 
ATOM     20  F   UNL     1       6.717   3.814  14.082  0.00  0.00    +0.000 F 
ATOM     21  C   UNL     1       5.324   3.660  16.010  0.00  0.00    +0.000 A 
ATOM     22  C   UNL     1       4.527   4.279  16.977  0.00  0.00    +0.000 A 
ENDBRANCH  10  16
TORSDOF 1
ENDMDL
MODEL 4
REMARK VINA RESULT:      -7.9      1.052      1.633
REMARK  Name = 
REMARK  1 active torsions:
REMARK  status: ('A' for Active; 'I' for Inactive)
REMARK    1  A    between atoms: C_10  and  C_11
REMARK                            x       y       z     vdW  Elec       q    Type
REMARK                         _______ _______ _______ _____ _____    ______ ____
ROOT
ATOM      1  N   UNL     1      -0.522   9.645  23.430  0.00  0.00    +0.000 N 
ATOM      2  C   UNL     1       0.103   9.410  22.184  0.00  0.00    +0.000 A 
ATOM      3  N   UNL     1       0.824   8.289  21.928  0.00  0.00    +0.000 NA
ATOM      4  C   UNL     1       1.271   8.350  20.655  0.00  0.00    +0.000 A 
ATOM      5  C   UNL     1       0.941   9.441  19.932  0.00  0.00    +0.000 A 
ATOM      6  S   UNL     1       0.009  10.484  20.856  0.00  0.00    +0.000 S 
ATOM      7  C   UNL     1       1.502   9.401  18.546  0.00  0.00    +0.000 C 
ATOM      8  C   UNL     1       2.218   8.067  18.613  0.00  0.00    +0.000 A 
ATOM      9  C   UNL     1       2.968   7.449  17.614  0.00  0.00    +0.000 A 
ATOM     10  C   UNL     1       3.600   6.202  17.880  0.00  0.00    +0.000 A 
ATOM     11  C   UNL     1       3.415   5.613  19.168  0.00  0.00    +0.000 A 
ATOM     12  C   UNL     1       2.642   6.244  20.153  0.00  0.00    +0.000 A 
ATOM     13  C   UNL     1       2.068   7.468  19.854  0.00  0.00    +0.000 A 
ATOM     14  H   UNL     1      -0.441   8.956  24.188  0.00  0.00    +0.000 HD
ATOM     15  H   UNL     1      -1.073  10.502  23.579  0.00  0.00    +0.000 HD
ENDROOT
BRANCH  10  16
ATOM     16  C   UNL     1       4.466   5.542  16.844  0.00  0.00    +0.000 A 
ATOM     17  C   UNL     1       4.649   4.139  16.837  0.00  0.00    +0.000 A 
ATOM     18  C   UNL     1       5.482   3.525  15.898  0.00  0.00    +0.000 A 
ATOM     19  C   UNL     1       6.141   4.290  14.939  0.00  0.00    +0.000 A 
ATOM     20  F   UNL     1       6.951   3.689  14.031  0.00  0.00    +0.000 F 
ATOM     21  C   UNL     1       5.971   5.673  14.916  0.00  0.00    +0.000 A 
ATOM     22  C   UNL     1       5.148   6.297  15.859  0.00  0.00    +0.000 A 
ENDBRANCH  10  16
TORSDOF 1
ENDMDL
MODEL 5
REMARK VINA RESULT:      -7.9      4.960      7.995
REMARK  Name = 
REMARK  1 active torsions:
REMARK  status: ('A' for Active; 'I' for Inactive)
REMARK    1  A    between atoms: C_10  and  C_11
REMARK                            x       y       z     vdW  Elec       q    Type
REMARK                         _______ _______ _______ _____ _____    ______ ____
ROOT
ATOM      1  N   UNL     1       5.458   3.338  16.379  0.00  0.00    +0.000 N 
ATOM      2  C   UNL     1       4.661   3.899  17.404  0.00  0.00    +0.000 A 
ATOM      3  N   UNL     1       4.183   5.168  17.345  0.00  0.00    +0.000 NA
ATOM      4  C   UNL     1       3.446   5.399  18.453  0.00  0.00    +0.000 A 
ATOM      5  C   UNL     1       3.338   4.394  19.347  0.00  0.00    +0.000 A 
ATOM      6  S   UNL     1       4.189   3.053  18.812  0.00  0.00    +0.000 S 
ATOM      7  C   UNL     1       2.511   4.772  20.536  0.00  0.00    +0.000 C 
ATOM      8  C   UNL     1       2.162   6.194  20.146  0.00  0.00    +0.000 A 
ATOM      9  C   UNL     1       1.401   7.115  20.864  0.00  0.00    +0.000 A 
ATOM     10  C   UNL     1       1.211   8.426  20.346  0.00  0.00    +0.000 A 
ATOM     11  C   UNL     1       1.791   8.742  19.079  0.00  0.00    +0.000 A 
ATOM     12  C   UNL     1       2.538   7.794  18.364  0.00  0.00    +0.000 A 
ATOM     13  C   UNL     1       2.716   6.540  18.923  0.00  0.00    +0.000 A 
ATOM     14  H   UNL     1       5.700   3.893  15.549  0.00  0.00    +0.000 HD
ATOM     15  H   UNL     1       5.789   2.366  16.456  0.00  0.00    +0.000 HD
ENDROOT
BRANCH  10  16
ATOM     16  C   UNL     1       0.449   9.459  21.127  0.00  0.00    +0.000 A 
ATOM     17  C   UNL     1       0.223  10.751  20.596  0.00  0.00    +0.000 A 
ATOM     18  C   UNL     1      -0.452  11.726  21.334  0.00  0.00    +0.000 A 
ATOM     19  C   UNL     1      -0.929  11.436  22.609  0.00  0.00    +0.000 A 
ATOM     20  F   UNL     1      -1.583  12.386  23.323  0.00  0.00    +0.000 F 
ATOM     21  C   UNL     1      -0.730  10.168  23.153  0.00  0.00    +0.000 A 
ATOM     22  C   UNL     1      -0.045   9.189  22.426  0.00  0.00    +0.000 A 
ENDBRANCH  10  16
TORSDOF 1
ENDMDL
MODEL 6
REMARK VINA RESULT:      -7.9      4.932      8.042
REMARK  Name = 
REMARK  1 active torsions:
REMARK  status: ('A' for Active; 'I' for Inactive)
REMARK    1  A    between atoms: C_10  and  C_11
REMARK                            x       y       z     vdW  Elec       q    Type
REMARK                         _______ _______ _______ _____ _____    ______ ____
ROOT
ATOM      1  N   UNL     1       5.668   3.645  16.193  0.00  0.00    +0.000 N 
ATOM      2  C   UNL     1       4.860   4.160  17.234  0.00  0.00    +0.000 A 
ATOM      3  N   UNL     1       4.300   5.395  17.181  0.00  0.00    +0.000 NA
ATOM      4  C   UNL     1       3.577   5.584  18.306  0.00  0.00    +0.000 A 
ATOM      5  C   UNL     1       3.555   4.579  19.207  0.00  0.00    +0.000 A 
ATOM      6  S   UNL     1       4.478   3.292  18.657  0.00  0.00    +0.000 S 
ATOM      7  C   UNL     1       2.735   4.909  20.414  0.00  0.00    +0.000 C 
ATOM      8  C   UNL     1       2.285   6.304  20.027  0.00  0.00    +0.000 A 
ATOM      9  C   UNL     1       1.484   7.178  20.760  0.00  0.00    +0.000 A 
ATOM     10  C   UNL     1       1.197   8.471  20.240  0.00  0.00    +0.000 A 
ATOM     11  C   UNL     1       1.725   8.816  18.959  0.00  0.00    +0.000 A 
ATOM     12  C   UNL     1       2.514   7.915  18.230  0.00  0.00    +0.000 A 
ATOM     13  C   UNL     1       2.786   6.678  18.790  0.00  0.00    +0.000 A 
ATOM     14  H   UNL     1       5.853   4.209  15.354  0.00  0.00    +0.000 HD
ATOM     15  H   UNL     1       6.063   2.697  16.265  0.00  0.00    +0.000 HD
ENDROOT
BRANCH  10  16
ATOM     16  C   UNL     1       0.389   9.457  21.036  0.00  0.00    +0.000 A 
ATOM     17  C   UNL     1       0.151   9.255  22.416  0.00  0.00    +0.000 A 
ATOM     18  C   UNL     1      -0.630  10.150  23.152  0.00  0.00    +0.000 A 
ATOM     19  C   UNL     1      -1.182  11.270  22.536  0.00  0.00    +0.000 A 
ATOM     20  F   UNL     1      -1.941  12.135  23.254  0.00  0.00    +0.000 F 
ATOM     21  C   UNL     1      -0.954  11.499  21.180  0.00  0.00    +0.000 A 
ATOM     22  C   UNL     1      -0.183  10.603  20.433  0.00  0.00    +0.000 A 
ENDBRANCH  10  16
TORSDOF 1
ENDMDL
MODEL 7
REMARK VINA RESULT:      -7.9      1.350      2.078
REMARK  Name = 
REMARK  1 active torsions:
REMARK  status: ('A' for Active; 'I' for Inactive)
REMARK    1  A    between atoms: C_10  and  C_11
REMARK                            x       y       z     vdW  Elec       q    Type
REMARK                         _______ _______ _______ _____ _____    ______ ____
ROOT
ATOM      1  N   UNL     1      -2.201  13.188  21.518  0.00  0.00    +0.000 N 
ATOM      2  C   UNL     1      -1.388  12.034  21.429  0.00  0.00    +0.000 A 
ATOM      3  N   UNL     1      -0.812  11.634  20.268  0.00  0.00    +0.000 NA
ATOM      4  C   UNL     1      -0.088  10.520  20.512  0.00  0.00    +0.000 A 
ATOM      5  C   UNL     1      -0.081  10.048  21.776  0.00  0.00    +0.000 A 
ATOM      6  S   UNL     1      -1.020  11.027  22.761  0.00  0.00    +0.000 S 
ATOM      7  C   UNL     1       0.742   8.807  21.920  0.00  0.00    +0.000 C 
ATOM      8  C   UNL     1       1.211   8.660  20.487  0.00  0.00    +0.000 A 
ATOM      9  C   UNL     1       2.023   7.661  19.951  0.00  0.00    +0.000 A 
ATOM     10  C   UNL     1       2.327   7.674  18.561  0.00  0.00    +0.000 A 
ATOM     11  C   UNL     1       1.806   8.739  17.765  0.00  0.00    +0.000 A 
ATOM     12  C   UNL     1       1.006   9.744  18.328  0.00  0.00    +0.000 A 
ATOM     13  C   UNL     1       0.717   9.673  19.680  0.00  0.00    +0.000 A 
ATOM     14  H   UNL     1      -2.377  13.762  20.684  0.00  0.00    +0.000 HD
ATOM     15  H   UNL     1      -2.609  13.465  22.422  0.00  0.00    +0.000 HD
ENDROOT
BRANCH  10  16
ATOM     16  C   UNL     1       3.147   6.576  17.944  0.00  0.00    +0.000 A 
ATOM     17  C   UNL     1       4.326   6.870  17.218  0.00  0.00    +0.000 A 
ATOM     18  C   UNL     1       5.071   5.856  16.611  0.00  0.00    +0.000 A 
ATOM     19  C   UNL     1       4.670   4.527  16.724  0.00  0.00    +0.000 A 
ATOM     20  F   UNL     1       5.396   3.546  16.131  0.00  0.00    +0.000 F 
ATOM     21  C   UNL     1       3.519   4.208  17.443  0.00  0.00    +0.000 A 
ATOM     22  C   UNL     1       2.761   5.218  18.043  0.00  0.00    +0.000 A 
ENDBRANCH  10  16
TORSDOF 1
ENDMDL
MODEL 8
REMARK VINA RESULT:      -7.8      1.049      2.091
REMARK  Name = 
REMARK  1 active torsions:
REMARK  status: ('A' for Active; 'I' for Inactive)
REMARK    1  A    between atoms: C_10  and  C_11
REMARK                            x       y       z     vdW  Elec       q    Type
REMARK                         _______ _______ _______ _____ _____    ______ ____
ROOT
ATOM      1  N   UNL     1      -1.429  12.457  21.907  0.00  0.00    +0.000 N 
ATOM      2  C   UNL     1      -0.694  11.278  21.643  0.00  0.00    +0.000 A 
ATOM      3  N   UNL     1      -0.070  11.056  20.459  0.00  0.00    +0.000 NA
ATOM      4  C   UNL     1       0.557   9.861  20.524  0.00  0.00    +0.000 A 
ATOM      5  C   UNL     1       0.447   9.163  21.674  0.00  0.00    +0.000 A 
ATOM      6  S   UNL     1      -0.486  10.014  22.777  0.00  0.00    +0.000 S 
ATOM      7  C   UNL     1       1.171   7.855  21.622  0.00  0.00    +0.000 C 
ATOM      8  C   UNL     1       1.723   7.940  20.213  0.00  0.00    +0.000 A 
ATOM      9  C   UNL     1       2.498   6.996  19.541  0.00  0.00    +0.000 A 
ATOM     10  C   UNL     1       2.895   7.243  18.197  0.00  0.00    +0.000 A 
ATOM     11  C   UNL     1       2.503   8.475  17.592  0.00  0.00    +0.000 A 
ATOM     12  C   UNL     1       1.738   9.420  18.293  0.00  0.00    +0.000 A 
ATOM     13  C   UNL     1       1.355   9.122  19.590  0.00  0.00    +0.000 A 
ATOM     14  H   UNL     1      -1.509  13.188  21.190  0.00  0.00    +0.000 HD
ATOM     15  H   UNL     1      -1.876  12.593  22.825  0.00  0.00    +0.000 HD
ENDROOT
BRANCH  10  16
ATOM     16  C   UNL     1       3.677   6.216  17.426  0.00  0.00    +0.000 A 
ATOM     17  C   UNL     1       3.412   4.835  17.582  0.00  0.00    +0.000 A 
ATOM     18  C   UNL     1       4.161   3.875  16.896  0.00  0.00    +0.000 A 
ATOM     19  C   UNL     1       5.179   4.267  16.030  0.00  0.00    +0.000 A 
ATOM     20  F   UNL     1       5.905   3.332  15.367  0.00  0.00    +0.000 F 
ATOM     21  C   UNL     1       5.454   5.622  15.850  0.00  0.00    +0.000 A 
ATOM     22  C   UNL     1       4.717   6.588  16.542  0.00  0.00    +0.000 A 
ENDBRANCH  10  16
TORSDOF 1
ENDMDL
MODEL 9
REMARK VINA RESULT:      -7.8      4.914      7.886
REMARK  Name = 
REMARK  1 active torsions:
REMARK  status: ('A' for Active; 'I' for Inactive)
REMARK    1  A    between atoms: C_10  and  C_11
REMARK                            x       y       z     vdW  Elec       q    Type
REMARK                         _______ _______ _______ _____ _____    ______ ____
ROOT
ATOM      1  N   UNL     1       6.357   5.316  14.739  0.00  0.00    +0.000 N 
ATOM      2  C   UNL     1       5.605   5.533  15.917  0.00  0.00    +0.000 A 
ATOM      3  N   UNL     1       4.783   6.602  16.072  0.00  0.00    +0.000 NA
ATOM      4  C   UNL     1       4.196   6.517  17.285  0.00  0.00    +0.000 A 
ATOM      5  C   UNL     1       4.521   5.461  18.060  0.00  0.00    +0.000 A 
ATOM      6  S   UNL     1       5.623   4.480  17.264  0.00  0.00    +0.000 S 
ATOM      7  C   UNL     1       3.820   5.482  19.382  0.00  0.00    +0.000 C 
ATOM      8  C   UNL     1       3.023   6.760  19.212  0.00  0.00    +0.000 A 
ATOM      9  C   UNL     1       2.156   7.354  20.127  0.00  0.00    +0.000 A 
ATOM     10  C   UNL     1       1.520   8.583  19.797  0.00  0.00    +0.000 A 
ATOM     11  C   UNL     1       1.778   9.153  18.513  0.00  0.00    +0.000 A 
ATOM     12  C   UNL     1       2.641   8.530  17.600  0.00  0.00    +0.000 A 
ATOM     13  C   UNL     1       3.255   7.348  17.978  0.00  0.00    +0.000 A 
ATOM     14  H   UNL     1       6.296   5.978  13.956  0.00  0.00    +0.000 HD
ATOM     15  H   UNL     1       6.959   4.484  14.656  0.00  0.00    +0.000 HD
ENDROOT
BRANCH  10  16
ATOM     16  C   UNL     1       0.629   9.279  20.787  0.00  0.00    +0.000 A 
ATOM     17  C   UNL     1      -0.141  10.403  20.407  0.00  0.00    +0.000 A 
ATOM     18  C   UNL     1      -0.943  11.075  21.333  0.00  0.00    +0.000 A 
ATOM     19  C   UNL     1      -1.006  10.638  22.654  0.00  0.00    +0.000 A 
ATOM     20  F   UNL     1      -1.784  11.295  23.550  0.00  0.00    +0.000 F 
ATOM     21  C   UNL     1      -0.266   9.526  23.053  0.00  0.00    +0.000 A 
ATOM     22  C   UNL     1       0.548   8.855  22.135  0.00  0.00    +0.000 A 
ENDBRANCH  10  16
TORSDOF 1
ENDMDL
