MODEL 1
REMARK VINA RESULT:      -8.0      0.000      0.000
REMARK  Name = 
REMARK  9 active torsions:
REMARK  status: ('A' for Active; 'I' for Inactive)
REMARK    1  A    between atoms: C_1  and  C_2
REMARK    2  A    between atoms: C_4  and  C_5
REMARK    3  A    between atoms: C_6  and  C_7
REMARK    4  A    between atoms: C_9  and  C_10
REMARK    5  A    between atoms: C_10  and  C_11
REMARK    6  A    between atoms: C_14  and  C_15
REMARK    7  A    between atoms: C_17  and  C_18
REMARK    8  A    between atoms: C_22  and  C_24
REMARK    9  A    between atoms: C_27  and  C_28
REMARK                            x       y       z     vdW  Elec       q    Type
REMARK                         _______ _______ _______ _____ _____    ______ ____
ROOT
ATOM      1  C   UNL     1      -0.088   9.540  21.761  0.00  0.00    +0.000 C 
ATOM      2  C   UNL     1       0.700   8.693  20.800  0.00  0.00    +0.000 A 
ATOM      3  C   UNL     1       1.083   7.406  21.232  0.00  0.00    +0.000 A 
ATOM      4  C   UNL     1       1.869   6.544  20.444  0.00  0.00    +0.000 A 
ATOM      5  C   UNL     1       2.266   5.221  21.044  0.00  0.00    +0.000 C 
ATOM      6  C   UNL     1       2.280   6.974  19.171  0.00  0.00    +0.000 A 
ATOM      7  C   UNL     1       1.890   8.266  18.755  0.00  0.00    +0.000 A 
ATOM      8  C   UNL     1       1.105   9.139  19.530  0.00  0.00    +0.000 A 
ENDROOT
BRANCH   6   9
ATOM      9  C   UNL     1       3.146   6.166  18.287  0.00  0.00    +0.000 A 
ATOM     10  N   UNL     1       4.437   6.499  17.932  0.00  0.00    +0.000 N 
ATOM     11  C   UNL     1       4.916   5.592  17.019  0.00  0.00    +0.000 A 
ATOM     12  N   UNL     1       4.037   4.624  16.857  0.00  0.00    +0.000 NA
ATOM     13  C   UNL     1       2.942   4.958  17.630  0.00  0.00    +0.000 A 
ATOM     14  C   UNL     1       1.745   4.079  17.639  0.00  0.00    +0.000 C 
ATOM     15  H   UNL     1       4.946   7.308  18.253  0.00  0.00    +0.000 HD
BRANCH  11  16
ATOM     16  C   UNL     1       6.268   5.696  16.373  0.00  0.00    +0.000 C 
BRANCH  16  17
ATOM     17  C   UNL     1       7.318   4.880  17.108  0.00  0.00    +0.000 C 
ATOM     18  N   UNL     1       8.189   4.201  17.718  0.00  0.00    +0.000 NA
ENDBRANCH  16  17
ENDBRANCH  11  16
ENDBRANCH   6   9
BRANCH   8  19
ATOM     19  C   UNL     1       0.834  10.542  19.028  0.00  0.00    +0.000 C 
ATOM     20  O   UNL     1       1.690  11.417  19.144  0.00  0.00    +0.000 OA
ATOM     21  N   UNL     1      -0.366  10.818  18.401  0.00  0.00    +0.000 N 
ATOM     22  C   UNL     1      -0.855  12.088  17.864  0.00  0.00    +0.000 C 
ATOM     23  C   UNL     1      -2.243  11.703  18.444  0.00  0.00    +0.000 C 
ATOM     24  F   UNL     1      -3.276  11.882  17.574  0.00  0.00    +0.000 F 
ATOM     25  C   UNL     1      -1.703  10.252  18.493  0.00  0.00    +0.000 C 
BRANCH  23  26
ATOM     26  C   UNL     1      -2.679  12.342  19.840  0.00  0.00    +0.000 A 
ATOM     27  C   UNL     1      -4.032  12.625  20.112  0.00  0.00    +0.000 A 
ATOM     28  C   UNL     1      -4.428  13.237  21.301  0.00  0.00    +0.000 A 
ATOM     29  C   UNL     1      -3.472  13.579  22.255  0.00  0.00    +0.000 A 
ATOM     30  C   UNL     1      -2.132  13.268  22.045  0.00  0.00    +0.000 A 
ATOM     31  C   UNL     1      -1.745  12.658  20.854  0.00  0.00    +0.000 A 
BRANCH  29  32
ATOM     32  C   UNL     1      -3.864  14.268  23.441  0.00  0.00    +0.000 C 
ATOM     33  N   UNL     1      -4.188  14.820  24.414  0.00  0.00    +0.000 NA
ENDBRANCH  29  32
ENDBRANCH  23  26
ENDBRANCH   8  19
TORSDOF 6
ENDMDL
MODEL 2
REMARK VINA RESULT:      -7.9      0.687      1.099
REMARK  Name = 
REMARK  9 active torsions:
REMARK  status: ('A' for Active; 'I' for Inactive)
REMARK    1  A    between atoms: C_1  and  C_2
REMARK    2  A    between atoms: C_4  and  C_5
REMARK    3  A    between atoms: C_6  and  C_7
REMARK    4  A    between atoms: C_9  and  C_10
REMARK    5  A    between atoms: C_10  and  C_11
REMARK    6  A    between atoms: C_14  and  C_15
REMARK    7  A    between atoms: C_17  and  C_18
REMARK    8  A    between atoms: C_22  and  C_24
REMARK    9  A    between atoms: C_27  and  C_28
REMARK                            x       y       z     vdW  Elec       q    Type
REMARK                         _______ _______ _______ _____ _____    ______ ____
ROOT
ATOM      1  C   UNL     1      -0.110   9.370  22.122  0.00  0.00    +0.000 C 
ATOM      2  C   UNL     1       0.657   8.595  21.087  0.00  0.00    +0.000 A 
ATOM      3  C   UNL     1       1.006   7.264  21.399  0.00  0.00    +0.000 A 
ATOM      4  C   UNL     1       1.771   6.458  20.535  0.00  0.00    +0.000 A 
ATOM      5  C   UNL     1       2.133   5.075  21.011  0.00  0.00    +0.000 C 
ATOM      6  C   UNL     1       2.194   6.991  19.305  0.00  0.00    +0.000 A 
ATOM      7  C   UNL     1       1.838   8.326  19.010  0.00  0.00    +0.000 A 
ATOM      8  C   UNL     1       1.075   9.144  19.862  0.00  0.00    +0.000 A 
ENDROOT
BRANCH   6   9
ATOM      9  C   UNL     1       3.040   6.245  18.351  0.00  0.00    +0.000 A 
ATOM     10  N   UNL     1       4.281   6.658  17.910  0.00  0.00    +0.000 N 
ATOM     11  C   UNL     1       4.745   5.791  16.952  0.00  0.00    +0.000 A 
ATOM     12  N   UNL     1       3.915   4.775  16.838  0.00  0.00    +0.000 NA
ATOM     13  C   UNL     1       2.860   5.034  17.691  0.00  0.00    +0.000 A 
ATOM     14  C   UNL     1       1.720   4.087  17.771  0.00  0.00    +0.000 C 
ATOM     15  H   UNL     1       4.764   7.492  18.206  0.00  0.00    +0.000 HD
BRANCH  11  16
ATOM     16  C   UNL     1       6.039   5.981  16.213  0.00  0.00    +0.000 C 
BRANCH  16  17
ATOM     17  C   UNL     1       7.123   5.036  16.704  0.00  0.00    +0.000 C 
ATOM     18  N   UNL     1       8.022   4.252  17.113  0.00  0.00    +0.000 NA
ENDBRANCH  16  17
ENDBRANCH  11  16
ENDBRANCH   6   9
BRANCH   8  19
ATOM     19  C   UNL     1       0.840  10.593  19.491  0.00  0.00    +0.000 C 
ATOM     20  O   UNL     1       1.570  11.474  19.944  0.00  0.00    +0.000 OA
ATOM     21  N   UNL     1      -0.172  10.912  18.607  0.00  0.00    +0.000 N 
ATOM     22  C   UNL     1      -0.597  12.226  18.126  0.00  0.00    +0.000 C 
ATOM     23  C   UNL     1      -2.056  11.711  18.258  0.00  0.00    +0.000 C 
ATOM     24  F   UNL     1      -2.837  11.974  17.173  0.00  0.00    +0.000 F 
ATOM     25  C   UNL     1      -1.441  10.289  18.263  0.00  0.00    +0.000 C 
BRANCH  23  26
ATOM     26  C   UNL     1      -2.886  12.125  19.557  0.00  0.00    +0.000 A 
ATOM     27  C   UNL     1      -2.229  12.405  20.772  0.00  0.00    +0.000 A 
ATOM     28  C   UNL     1      -2.938  12.712  21.933  0.00  0.00    +0.000 A 
ATOM     29  C   UNL     1      -4.330  12.751  21.905  0.00  0.00    +0.000 A 
ATOM     30  C   UNL     1      -5.011  12.531  20.712  0.00  0.00    +0.000 A 
ATOM     31  C   UNL     1      -4.296  12.224  19.557  0.00  0.00    +0.000 A 
BRANCH  29  32
ATOM     32  C   UNL     1      -5.060  12.994  23.106  0.00  0.00    +0.000 C 
ATOM     33  N   UNL     1      -5.646  13.190  24.094  0.00  0.00    +0.000 NA
ENDBRANCH  29  32
ENDBRANCH  23  26
ENDBRANCH   8  19
TORSDOF 6
ENDMDL
MODEL 3
REMARK VINA RESULT:      -7.7      0.781      1.175
REMARK  Name = 
REMARK  9 active torsions:
REMARK  status: ('A' for Active; 'I' for Inactive)
REMARK    1  A    between atoms: C_1  and  C_2
REMARK    2  A    between atoms: C_4  and  C_5
REMARK    3  A    between atoms: C_6  and  C_7
REMARK    4  A    between atoms: C_9  and  C_10
REMARK    5  A    between atoms: C_10  and  C_11
REMARK    6  A    between atoms: C_14  and  C_15
REMARK    7  A    between atoms: C_17  and  C_18
REMARK    8  A    between atoms: C_22  and  C_24
REMARK    9  A    between atoms: C_27  and  C_28
REMARK                            x       y       z     vdW  Elec       q    Type
REMARK                         _______ _______ _______ _____ _____    ______ ____
ROOT
ATOM      1  C   UNL     1       0.023   9.519  21.763  0.00  0.00    +0.000 C 
ATOM      2  C   UNL     1       0.798   8.664  20.798  0.00  0.00    +0.000 A 
ATOM      3  C   UNL     1       1.171   7.373  21.229  0.00  0.00    +0.000 A 
ATOM      4  C   UNL     1       1.945   6.505  20.437  0.00  0.00    +0.000 A 
ATOM      5  C   UNL     1       2.333   5.177  21.035  0.00  0.00    +0.000 C 
ATOM      6  C   UNL     1       2.352   6.930  19.161  0.00  0.00    +0.000 A 
ATOM      7  C   UNL     1       1.972   8.226  18.747  0.00  0.00    +0.000 A 
ATOM      8  C   UNL     1       1.200   9.105  19.526  0.00  0.00    +0.000 A 
ENDROOT
BRANCH   6   9
ATOM      9  C   UNL     1       3.206   6.114  18.273  0.00  0.00    +0.000 A 
ATOM     10  N   UNL     1       4.502   6.428  17.921  0.00  0.00    +0.000 N 
ATOM     11  C   UNL     1       4.967   5.519  17.003  0.00  0.00    +0.000 A 
ATOM     12  N   UNL     1       4.073   4.567  16.833  0.00  0.00    +0.000 NA
ATOM     13  C   UNL     1       2.982   4.913  17.607  0.00  0.00    +0.000 A 
ATOM     14  C   UNL     1       1.771   4.055  17.609  0.00  0.00    +0.000 C 
ATOM     15  H   UNL     1       5.024   7.226  18.248  0.00  0.00    +0.000 HD
BRANCH  11  16
ATOM     16  C   UNL     1       6.322   5.606  16.358  0.00  0.00    +0.000 C 
BRANCH  16  17
ATOM     17  C   UNL     1       7.115   6.804  16.852  0.00  0.00    +0.000 C 
ATOM     18  N   UNL     1       7.772   7.800  17.261  0.00  0.00    +0.000 NA
ENDBRANCH  16  17
ENDBRANCH  11  16
ENDBRANCH   6   9
BRANCH   8  19
ATOM     19  C   UNL     1       0.938  10.511  19.025  0.00  0.00    +0.000 C 
ATOM     20  O   UNL     1       1.830  11.357  19.061  0.00  0.00    +0.000 OA
ATOM     21  N   UNL     1      -0.297  10.822  18.489  0.00  0.00    +0.000 N 
ATOM     22  C   UNL     1      -0.783  12.101  17.972  0.00  0.00    +0.000 C 
ATOM     23  C   UNL     1      -2.134  11.773  18.663  0.00  0.00    +0.000 C 
ATOM     24  F   UNL     1      -3.224  11.977  17.874  0.00  0.00    +0.000 F 
ATOM     25  C   UNL     1      -1.641  10.305  18.693  0.00  0.00    +0.000 C 
BRANCH  23  26
ATOM     26  C   UNL     1      -2.436  12.445  20.080  0.00  0.00    +0.000 A 
ATOM     27  C   UNL     1      -1.384  12.788  20.953  0.00  0.00    +0.000 A 
ATOM     28  C   UNL     1      -1.629  13.322  22.218  0.00  0.00    +0.000 A 
ATOM     29  C   UNL     1      -2.939  13.530  22.641  0.00  0.00    +0.000 A 
ATOM     30  C   UNL     1      -4.002  13.251  21.787  0.00  0.00    +0.000 A 
ATOM     31  C   UNL     1      -3.749  12.718  20.525  0.00  0.00    +0.000 A 
BRANCH  29  32
ATOM     32  C   UNL     1      -3.195  14.008  23.960  0.00  0.00    +0.000 C 
ATOM     33  N   UNL     1      -3.392  14.405  25.038  0.00  0.00    +0.000 NA
ENDBRANCH  29  32
ENDBRANCH  23  26
ENDBRANCH   8  19
TORSDOF 6
ENDMDL
MODEL 4
REMARK VINA RESULT:      -7.4      1.319      1.726
REMARK  Name = 
REMARK  9 active torsions:
REMARK  status: ('A' for Active; 'I' for Inactive)
REMARK    1  A    between atoms: C_1  and  C_2
REMARK    2  A    between atoms: C_4  and  C_5
REMARK    3  A    between atoms: C_6  and  C_7
REMARK    4  A    between atoms: C_9  and  C_10
REMARK    5  A    between atoms: C_10  and  C_11
REMARK    6  A    between atoms: C_14  and  C_15
REMARK    7  A    between atoms: C_17  and  C_18
REMARK    8  A    between atoms: C_22  and  C_24
REMARK    9  A    between atoms: C_27  and  C_28
REMARK                            x       y       z     vdW  Elec       q    Type
REMARK                         _______ _______ _______ _____ _____    ______ ____
ROOT
ATOM      1  C   UNL     1       0.402   9.406  21.434  0.00  0.00    +0.000 C 
ATOM      2  C   UNL     1       1.115   8.487  20.481  0.00  0.00    +0.000 A 
ATOM      3  C   UNL     1       1.500   7.219  20.967  0.00  0.00    +0.000 A 
ATOM      4  C   UNL     1       2.222   6.295  20.188  0.00  0.00    +0.000 A 
ATOM      5  C   UNL     1       2.630   5.001  20.842  0.00  0.00    +0.000 C 
ATOM      6  C   UNL     1       2.562   6.639  18.869  0.00  0.00    +0.000 A 
ATOM      7  C   UNL     1       2.172   7.913  18.399  0.00  0.00    +0.000 A 
ATOM      8  C   UNL     1       1.451   8.847  19.165  0.00  0.00    +0.000 A 
ENDROOT
BRANCH   6   9
ATOM      9  C   UNL     1       3.359   5.762  17.986  0.00  0.00    +0.000 A 
ATOM     10  N   UNL     1       4.626   6.052  17.523  0.00  0.00    +0.000 N 
ATOM     11  C   UNL     1       5.033   5.080  16.644  0.00  0.00    +0.000 A 
ATOM     12  N   UNL     1       4.136   4.115  16.607  0.00  0.00    +0.000 NA
ATOM     13  C   UNL     1       3.099   4.515  17.427  0.00  0.00    +0.000 A 
ATOM     14  C   UNL     1       1.897   3.657  17.576  0.00  0.00    +0.000 C 
ATOM     15  H   UNL     1       5.163   6.873  17.753  0.00  0.00    +0.000 HD
BRANCH  11  16
ATOM     16  C   UNL     1       6.340   5.121  15.903  0.00  0.00    +0.000 C 
BRANCH  16  17
ATOM     17  C   UNL     1       6.258   4.415  14.559  0.00  0.00    +0.000 C 
ATOM     18  N   UNL     1       6.189   3.829  13.445  0.00  0.00    +0.000 NA
ENDBRANCH  16  17
ENDBRANCH  11  16
ENDBRANCH   6   9
BRANCH   8  19
ATOM     19  C   UNL     1       1.175  10.223  18.596  0.00  0.00    +0.000 C 
ATOM     20  O   UNL     1       2.108  10.973  18.311  0.00  0.00    +0.000 OA
ATOM     21  N   UNL     1      -0.129  10.612  18.361  0.00  0.00    +0.000 N 
ATOM     22  C   UNL     1      -0.635  11.885  17.847  0.00  0.00    +0.000 C 
ATOM     23  C   UNL     1      -1.777  11.757  18.891  0.00  0.00    +0.000 C 
ATOM     24  F   UNL     1      -3.018  12.004  18.387  0.00  0.00    +0.000 F 
ATOM     25  C   UNL     1      -1.408  10.254  18.955  0.00  0.00    +0.000 C 
BRANCH  23  26
ATOM     26  C   UNL     1      -1.644  12.576  20.255  0.00  0.00    +0.000 A 
ATOM     27  C   UNL     1      -0.411  13.141  20.638  0.00  0.00    +0.000 A 
ATOM     28  C   UNL     1      -0.258  13.809  21.853  0.00  0.00    +0.000 A 
ATOM     29  C   UNL     1      -1.344  13.933  22.716  0.00  0.00    +0.000 A 
ATOM     30  C   UNL     1      -2.590  13.433  22.349  0.00  0.00    +0.000 A 
ATOM     31  C   UNL     1      -2.734  12.766  21.135  0.00  0.00    +0.000 A 
BRANCH  29  32
ATOM     32  C   UNL     1      -1.175  14.553  23.990  0.00  0.00    +0.000 C 
ATOM     33  N   UNL     1      -1.049  15.058  25.032  0.00  0.00    +0.000 NA
ENDBRANCH  29  32
ENDBRANCH  23  26
ENDBRANCH   8  19
TORSDOF 6
ENDMDL
MODEL 5
REMARK VINA RESULT:      -7.2      2.771     10.276
REMARK  Name = 
REMARK  9 active torsions:
REMARK  status: ('A' for Active; 'I' for Inactive)
REMARK    1  A    between atoms: C_1  and  C_2
REMARK    2  A    between atoms: C_4  and  C_5
REMARK    3  A    between atoms: C_6  and  C_7
REMARK    4  A    between atoms: C_9  and  C_10
REMARK    5  A    between atoms: C_10  and  C_11
REMARK    6  A    between atoms: C_14  and  C_15
REMARK    7  A    between atoms: C_17  and  C_18
REMARK    8  A    between atoms: C_22  and  C_24
REMARK    9  A    between atoms: C_27  and  C_28
REMARK                            x       y       z     vdW  Elec       q    Type
REMARK                         _______ _______ _______ _____ _____    ______ ____
ROOT
ATOM      1  C   UNL     1      -1.601   9.705  17.150  0.00  0.00    +0.000 C 
ATOM      2  C   UNL     1      -2.514  10.606  17.935  0.00  0.00    +0.000 A 
ATOM      3  C   UNL     1      -3.877  10.624  17.572  0.00  0.00    +0.000 A 
ATOM      4  C   UNL     1      -4.816  11.468  18.196  0.00  0.00    +0.000 A 
ATOM      5  C   UNL     1      -6.229  11.442  17.674  0.00  0.00    +0.000 C 
ATOM      6  C   UNL     1      -4.386  12.316  19.230  0.00  0.00    +0.000 A 
ATOM      7  C   UNL     1      -3.017  12.287  19.579  0.00  0.00    +0.000 A 
ATOM      8  C   UNL     1      -2.067  11.450  18.965  0.00  0.00    +0.000 A 
ENDROOT
BRANCH   6   9
ATOM      9  C   UNL     1      -5.280  13.272  19.914  0.00  0.00    +0.000 A 
ATOM     10  N   UNL     1      -5.205  14.645  19.793  0.00  0.00    +0.000 N 
ATOM     11  C   UNL     1      -6.110  15.235  20.641  0.00  0.00    +0.000 A 
ATOM     12  N   UNL     1      -6.845  14.307  21.217  0.00  0.00    +0.000 NA
ATOM     13  C   UNL     1      -6.352  13.092  20.782  0.00  0.00    +0.000 A 
ATOM     14  C   UNL     1      -6.947  11.828  21.282  0.00  0.00    +0.000 C 
ATOM     15  H   UNL     1      -4.558  15.150  19.209  0.00  0.00    +0.000 HD
BRANCH  11  16
ATOM     16  C   UNL     1      -6.245  16.723  20.810  0.00  0.00    +0.000 C 
BRANCH  16  17
ATOM     17  C   UNL     1      -5.637  17.488  19.646  0.00  0.00    +0.000 C 
ATOM     18  N   UNL     1      -5.132  18.124  18.680  0.00  0.00    +0.000 NA
ENDBRANCH  16  17
ENDBRANCH  11  16
ENDBRANCH   6   9
BRANCH   8  19
ATOM     19  C   UNL     1      -0.606  11.576  19.348  0.00  0.00    +0.000 C 
ATOM     20  O   UNL     1       0.152  12.272  18.674  0.00  0.00    +0.000 OA
ATOM     21  N   UNL     1      -0.144  10.937  20.482  0.00  0.00    +0.000 N 
ATOM     22  C   UNL     1       1.212  10.893  21.028  0.00  0.00    +0.000 C 
ATOM     23  C   UNL     1       0.946   9.397  21.348  0.00  0.00    +0.000 C 
ATOM     24  F   UNL     1       1.311   9.026  22.606  0.00  0.00    +0.000 F 
ATOM     25  C   UNL     1      -0.557   9.742  21.202  0.00  0.00    +0.000 C 
BRANCH  23  26
ATOM     26  C   UNL     1       1.519   8.299  20.340  0.00  0.00    +0.000 A 
ATOM     27  C   UNL     1       1.720   6.969  20.762  0.00  0.00    +0.000 A 
ATOM     28  C   UNL     1       2.274   6.009  19.916  0.00  0.00    +0.000 A 
ATOM     29  C   UNL     1       2.638   6.357  18.618  0.00  0.00    +0.000 A 
ATOM     30  C   UNL     1       2.407   7.647  18.149  0.00  0.00    +0.000 A 
ATOM     31  C   UNL     1       1.854   8.601  19.001  0.00  0.00    +0.000 A 
BRANCH  29  32
ATOM     32  C   UNL     1       3.270   5.397  17.773  0.00  0.00    +0.000 C 
ATOM     33  N   UNL     1       3.796   4.612  17.093  0.00  0.00    +0.000 NA
ENDBRANCH  29  32
ENDBRANCH  23  26
ENDBRANCH   8  19
TORSDOF 6
ENDMDL
MODEL 6
REMARK VINA RESULT:      -7.1      2.468     10.415
REMARK  Name = 
REMARK  9 active torsions:
REMARK  status: ('A' for Active; 'I' for Inactive)
REMARK    1  A    between atoms: C_1  and  C_2
REMARK    2  A    between atoms: C_4  and  C_5
REMARK    3  A    between atoms: C_6  and  C_7
REMARK    4  A    between atoms: C_9  and  C_10
REMARK    5  A    between atoms: C_10  and  C_11
REMARK    6  A    between atoms: C_14  and  C_15
REMARK    7  A    between atoms: C_17  and  C_18
REMARK    8  A    between atoms: C_22  and  C_24
REMARK    9  A    between atoms: C_27  and  C_28
REMARK                            x       y       z     vdW  Elec       q    Type
REMARK                         _______ _______ _______ _____ _____    ______ ____
ROOT
ATOM      1  C   UNL     1      -2.007   9.808  17.173  0.00  0.00    +0.000 C 
ATOM      2  C   UNL     1      -2.892  10.709  17.989  0.00  0.00    +0.000 A 
ATOM      3  C   UNL     1      -4.281  10.645  17.749  0.00  0.00    +0.000 A 
ATOM      4  C   UNL     1      -5.204  11.477  18.410  0.00  0.00    +0.000 A 
ATOM      5  C   UNL     1      -6.654  11.357  18.019  0.00  0.00    +0.000 C 
ATOM      6  C   UNL     1      -4.729  12.402  19.355  0.00  0.00    +0.000 A 
ATOM      7  C   UNL     1      -3.336  12.456  19.581  0.00  0.00    +0.000 A 
ATOM      8  C   UNL     1      -2.401  11.631  18.929  0.00  0.00    +0.000 A 
ENDROOT
BRANCH   6   9
ATOM      9  C   UNL     1      -5.609  13.353  20.066  0.00  0.00    +0.000 A 
ATOM     10  N   UNL     1      -5.776  13.398  21.435  0.00  0.00    +0.000 N 
ATOM     11  C   UNL     1      -6.739  14.323  21.755  0.00  0.00    +0.000 A 
ATOM     12  N   UNL     1      -7.117  14.960  20.666  0.00  0.00    +0.000 NA
ATOM     13  C   UNL     1      -6.432  14.379  19.616  0.00  0.00    +0.000 A 
ATOM     14  C   UNL     1      -6.665  14.850  18.227  0.00  0.00    +0.000 C 
ATOM     15  H   UNL     1      -5.302  12.814  22.106  0.00  0.00    +0.000 HD
BRANCH  11  16
ATOM     16  C   UNL     1      -7.216  14.578  23.157  0.00  0.00    +0.000 C 
BRANCH  16  17
ATOM     17  C   UNL     1      -6.343  15.589  23.883  0.00  0.00    +0.000 C 
ATOM     18  N   UNL     1      -5.618  16.427  24.485  0.00  0.00    +0.000 NA
ENDBRANCH  16  17
ENDBRANCH  11  16
ENDBRANCH   6   9
BRANCH   8  19
ATOM     19  C   UNL     1      -0.921  11.845  19.172  0.00  0.00    +0.000 C 
ATOM     20  O   UNL     1      -0.252  12.498  18.373  0.00  0.00    +0.000 OA
ATOM     21  N   UNL     1      -0.341  11.338  20.318  0.00  0.00    +0.000 N 
ATOM     22  C   UNL     1       1.056  11.397  20.749  0.00  0.00    +0.000 C 
ATOM     23  C   UNL     1       0.882   9.932  21.232  0.00  0.00    +0.000 C 
ATOM     24  F   UNL     1       1.365   9.700  22.484  0.00  0.00    +0.000 F 
ATOM     25  C   UNL     1      -0.641  10.207  21.183  0.00  0.00    +0.000 C 
BRANCH  23  26
ATOM     26  C   UNL     1       1.418   8.761  20.289  0.00  0.00    +0.000 A 
ATOM     27  C   UNL     1       1.667   7.474  20.809  0.00  0.00    +0.000 A 
ATOM     28  C   UNL     1       2.191   6.453  20.016  0.00  0.00    +0.000 A 
ATOM     29  C   UNL     1       2.476   6.695  18.674  0.00  0.00    +0.000 A 
ATOM     30  C   UNL     1       2.195   7.937  18.113  0.00  0.00    +0.000 A 
ATOM     31  C   UNL     1       1.673   8.952  18.912  0.00  0.00    +0.000 A 
BRANCH  29  32
ATOM     32  C   UNL     1       3.078   5.676  17.879  0.00  0.00    +0.000 C 
ATOM     33  N   UNL     1       3.574   4.852  17.221  0.00  0.00    +0.000 NA
ENDBRANCH  29  32
ENDBRANCH  23  26
ENDBRANCH   8  19
TORSDOF 6
ENDMDL
MODEL 7
REMARK VINA RESULT:      -6.9      4.786      7.152
REMARK  Name = 
REMARK  9 active torsions:
REMARK  status: ('A' for Active; 'I' for Inactive)
REMARK    1  A    between atoms: C_1  and  C_2
REMARK    2  A    between atoms: C_4  and  C_5
REMARK    3  A    between atoms: C_6  and  C_7
REMARK    4  A    between atoms: C_9  and  C_10
REMARK    5  A    between atoms: C_10  and  C_11
REMARK    6  A    between atoms: C_14  and  C_15
REMARK    7  A    between atoms: C_17  and  C_18
REMARK    8  A    between atoms: C_22  and  C_24
REMARK    9  A    between atoms: C_27  and  C_28
REMARK                            x       y       z     vdW  Elec       q    Type
REMARK                         _______ _______ _______ _____ _____    ______ ____
ROOT
ATOM      1  C   UNL     1      -7.050  12.381  17.317  0.00  0.00    +0.000 C 
ATOM      2  C   UNL     1      -5.631  12.187  17.774  0.00  0.00    +0.000 A 
ATOM      3  C   UNL     1      -4.845  11.250  17.071  0.00  0.00    +0.000 A 
ATOM      4  C   UNL     1      -3.522  10.941  17.440  0.00  0.00    +0.000 A 
ATOM      5  C   UNL     1      -2.809   9.876  16.649  0.00  0.00    +0.000 C 
ATOM      6  C   UNL     1      -2.954  11.599  18.544  0.00  0.00    +0.000 A 
ATOM      7  C   UNL     1      -3.756  12.532  19.239  0.00  0.00    +0.000 A 
ATOM      8  C   UNL     1      -5.078  12.851  18.882  0.00  0.00    +0.000 A 
ENDROOT
BRANCH   6   9
ATOM      9  C   UNL     1      -1.592  11.312  19.042  0.00  0.00    +0.000 A 
ATOM     10  N   UNL     1      -1.227  10.165  19.717  0.00  0.00    +0.000 N 
ATOM     11  C   UNL     1       0.079  10.265  20.129  0.00  0.00    +0.000 A 
ATOM     12  N   UNL     1       0.608  11.373  19.651  0.00  0.00    +0.000 NA
ATOM     13  C   UNL     1      -0.404  12.030  18.978  0.00  0.00    +0.000 A 
ATOM     14  C   UNL     1      -0.140  13.348  18.347  0.00  0.00    +0.000 C 
ATOM     15  H   UNL     1      -1.831   9.384  19.921  0.00  0.00    +0.000 HD
BRANCH  11  16
ATOM     16  C   UNL     1       0.775   9.217  20.950  0.00  0.00    +0.000 C 
BRANCH  16  17
ATOM     17  C   UNL     1       0.579   9.435  22.441  0.00  0.00    +0.000 C 
ATOM     18  N   UNL     1       0.416   9.615  23.679  0.00  0.00    +0.000 NA
ENDBRANCH  16  17
ENDBRANCH  11  16
ENDBRANCH   6   9
BRANCH   8  19
ATOM     19  C   UNL     1      -5.881  13.789  19.760  0.00  0.00    +0.000 C 
ATOM     20  O   UNL     1      -5.992  14.976  19.458  0.00  0.00    +0.000 OA
ATOM     21  N   UNL     1      -6.521  13.291  20.878  0.00  0.00    +0.000 N 
ATOM     22  C   UNL     1      -7.321  14.001  21.876  0.00  0.00    +0.000 C 
ATOM     23  C   UNL     1      -6.632  13.109  22.943  0.00  0.00    +0.000 C 
ATOM     24  F   UNL     1      -7.491  12.561  23.847  0.00  0.00    +0.000 F 
ATOM     25  C   UNL     1      -6.266  12.169  21.768  0.00  0.00    +0.000 C 
BRANCH  23  26
ATOM     26  C   UNL     1      -5.407  13.726  23.761  0.00  0.00    +0.000 A 
ATOM     27  C   UNL     1      -5.237  15.122  23.860  0.00  0.00    +0.000 A 
ATOM     28  C   UNL     1      -4.143  15.680  24.519  0.00  0.00    +0.000 A 
ATOM     29  C   UNL     1      -3.189  14.851  25.104  0.00  0.00    +0.000 A 
ATOM     30  C   UNL     1      -3.350  13.469  25.071  0.00  0.00    +0.000 A 
ATOM     31  C   UNL     1      -4.445  12.919  24.410  0.00  0.00    +0.000 A 
BRANCH  29  32
ATOM     32  C   UNL     1      -2.032  15.417  25.717  0.00  0.00    +0.000 C 
ATOM     33  N   UNL     1      -1.092  15.892  26.214  0.00  0.00    +0.000 NA
ENDBRANCH  29  32
ENDBRANCH  23  26
ENDBRANCH   8  19
TORSDOF 6
ENDMDL
MODEL 8
REMARK VINA RESULT:      -6.8      2.749     10.582
REMARK  Name = 
REMARK  9 active torsions:
REMARK  status: ('A' for Active; 'I' for Inactive)
REMARK    1  A    between atoms: C_1  and  C_2
REMARK    2  A    between atoms: C_4  and  C_5
REMARK    3  A    between atoms: C_6  and  C_7
REMARK    4  A    between atoms: C_9  and  C_10
REMARK    5  A    between atoms: C_10  and  C_11
REMARK    6  A    between atoms: C_14  and  C_15
REMARK    7  A    between atoms: C_17  and  C_18
REMARK    8  A    between atoms: C_22  and  C_24
REMARK    9  A    between atoms: C_27  and  C_28
REMARK                            x       y       z     vdW  Elec       q    Type
REMARK                         _______ _______ _______ _____ _____    ______ ____
ROOT
ATOM      1  C   UNL     1      -1.870   9.812  17.146  0.00  0.00    +0.000 C 
ATOM      2  C   UNL     1      -2.767  10.707  17.956  0.00  0.00    +0.000 A 
ATOM      3  C   UNL     1      -4.149  10.668  17.675  0.00  0.00    +0.000 A 
ATOM      4  C   UNL     1      -5.079  11.499  18.327  0.00  0.00    +0.000 A 
ATOM      5  C   UNL     1      -6.518  11.407  17.893  0.00  0.00    +0.000 C 
ATOM      6  C   UNL     1      -4.619  12.395  19.307  0.00  0.00    +0.000 A 
ATOM      7  C   UNL     1      -3.232  12.425  19.573  0.00  0.00    +0.000 A 
ATOM      8  C   UNL     1      -2.291  11.601  18.931  0.00  0.00    +0.000 A 
ENDROOT
BRANCH   6   9
ATOM      9  C   UNL     1      -5.506  13.343  20.013  0.00  0.00    +0.000 A 
ATOM     10  N   UNL     1      -6.263  14.320  19.399  0.00  0.00    +0.000 N 
ATOM     11  C   UNL     1      -6.885  15.091  20.349  0.00  0.00    +0.000 A 
ATOM     12  N   UNL     1      -6.659  14.585  21.545  0.00  0.00    +0.000 NA
ATOM     13  C   UNL     1      -5.814  13.508  21.359  0.00  0.00    +0.000 A 
ATOM     14  C   UNL     1      -5.331  12.734  22.530  0.00  0.00    +0.000 C 
ATOM     15  H   UNL     1      -6.322  14.482  18.406  0.00  0.00    +0.000 HD
BRANCH  11  16
ATOM     16  C   UNL     1      -7.735  16.287  20.026  0.00  0.00    +0.000 C 
BRANCH  16  17
ATOM     17  C   UNL     1      -7.829  17.255  21.194  0.00  0.00    +0.000 C 
ATOM     18  N   UNL     1      -7.906  18.058  22.163  0.00  0.00    +0.000 NA
ENDBRANCH  16  17
ENDBRANCH  11  16
ENDBRANCH   6   9
BRANCH   8  19
ATOM     19  C   UNL     1      -0.816  11.789  19.220  0.00  0.00    +0.000 C 
ATOM     20  O   UNL     1      -0.116  12.458  18.461  0.00  0.00    +0.000 OA
ATOM     21  N   UNL     1      -0.273  11.240  20.365  0.00  0.00    +0.000 N 
ATOM     22  C   UNL     1       1.112  11.267  20.836  0.00  0.00    +0.000 C 
ATOM     23  C   UNL     1       0.908   9.790  21.267  0.00  0.00    +0.000 C 
ATOM     24  F   UNL     1       1.353   9.513  22.524  0.00  0.00    +0.000 F 
ATOM     25  C   UNL     1      -0.611  10.086  21.185  0.00  0.00    +0.000 C 
BRANCH  23  26
ATOM     26  C   UNL     1       1.456   8.642  20.303  0.00  0.00    +0.000 A 
ATOM     27  C   UNL     1       1.649   7.330  20.782  0.00  0.00    +0.000 A 
ATOM     28  C   UNL     1       2.182   6.327  19.973  0.00  0.00    +0.000 A 
ATOM     29  C   UNL     1       2.533   6.613  18.656  0.00  0.00    +0.000 A 
ATOM     30  C   UNL     1       2.309   7.882  18.132  0.00  0.00    +0.000 A 
ATOM     31  C   UNL     1       1.777   8.879  18.947  0.00  0.00    +0.000 A 
BRANCH  29  32
ATOM     32  C   UNL     1       3.144   5.609  17.847  0.00  0.00    +0.000 C 
ATOM     33  N   UNL     1       3.647   4.783  17.198  0.00  0.00    +0.000 NA
ENDBRANCH  29  32
ENDBRANCH  23  26
ENDBRANCH   8  19
TORSDOF 6
ENDMDL
MODEL 9
REMARK VINA RESULT:      -6.7      2.586     10.143
REMARK  Name = 
REMARK  9 active torsions:
REMARK  status: ('A' for Active; 'I' for Inactive)
REMARK    1  A    between atoms: C_1  and  C_2
REMARK    2  A    between atoms: C_4  and  C_5
REMARK    3  A    between atoms: C_6  and  C_7
REMARK    4  A    between atoms: C_9  and  C_10
REMARK    5  A    between atoms: C_10  and  C_11
REMARK    6  A    between atoms: C_14  and  C_15
REMARK    7  A    between atoms: C_17  and  C_18
REMARK    8  A    between atoms: C_22  and  C_24
REMARK    9  A    between atoms: C_27  and  C_28
REMARK                            x       y       z     vdW  Elec       q    Type
REMARK                         _______ _______ _______ _____ _____    ______ ____
ROOT
ATOM      1  C   UNL     1      -1.499   9.739  17.097  0.00  0.00    +0.000 C 
ATOM      2  C   UNL     1      -2.413  10.621  17.902  0.00  0.00    +0.000 A 
ATOM      3  C   UNL     1      -3.774  10.657  17.530  0.00  0.00    +0.000 A 
ATOM      4  C   UNL     1      -4.713  11.486  18.173  0.00  0.00    +0.000 A 
ATOM      5  C   UNL     1      -6.123  11.483  17.641  0.00  0.00    +0.000 C 
ATOM      6  C   UNL     1      -4.287  12.300  19.235  0.00  0.00    +0.000 A 
ATOM      7  C   UNL     1      -2.920  12.254  19.593  0.00  0.00    +0.000 A 
ATOM      8  C   UNL     1      -1.970  11.431  18.961  0.00  0.00    +0.000 A 
ENDROOT
BRANCH   6   9
ATOM      9  C   UNL     1      -5.182  13.240  19.942  0.00  0.00    +0.000 A 
ATOM     10  N   UNL     1      -5.096  14.615  19.868  0.00  0.00    +0.000 N 
ATOM     11  C   UNL     1      -6.005  15.184  20.725  0.00  0.00    +0.000 A 
ATOM     12  N   UNL     1      -6.753  14.242  21.262  0.00  0.00    +0.000 NA
ATOM     13  C   UNL     1      -6.264  13.039  20.792  0.00  0.00    +0.000 A 
ATOM     14  C   UNL     1      -6.873  11.763  21.244  0.00  0.00    +0.000 C 
ATOM     15  H   UNL     1      -4.439  15.135  19.307  0.00  0.00    +0.000 HD
BRANCH  11  16
ATOM     16  C   UNL     1      -6.131  16.666  20.942  0.00  0.00    +0.000 C 
BRANCH  16  17
ATOM     17  C   UNL     1      -4.777  17.356  20.974  0.00  0.00    +0.000 C 
ATOM     18  N   UNL     1      -3.655  17.929  21.000  0.00  0.00    +0.000 NA
ENDBRANCH  16  17
ENDBRANCH  11  16
ENDBRANCH   6   9
BRANCH   8  19
ATOM     19  C   UNL     1      -0.512  11.538  19.357  0.00  0.00    +0.000 C 
ATOM     20  O   UNL     1       0.272  12.184  18.664  0.00  0.00    +0.000 OA
ATOM     21  N   UNL     1      -0.080  10.940  20.525  0.00  0.00    +0.000 N 
ATOM     22  C   UNL     1       1.267  10.887  21.091  0.00  0.00    +0.000 C 
ATOM     23  C   UNL     1       0.960   9.415  21.474  0.00  0.00    +0.000 C 
ATOM     24  F   UNL     1       1.300   9.092  22.753  0.00  0.00    +0.000 F 
ATOM     25  C   UNL     1      -0.532   9.790  21.293  0.00  0.00    +0.000 C 
BRANCH  23  26
ATOM     26  C   UNL     1       1.517   8.259  20.525  0.00  0.00    +0.000 A 
ATOM     27  C   UNL     1       1.871   8.533  19.188  0.00  0.00    +0.000 A 
ATOM     28  C   UNL     1       2.305   7.527  18.325  0.00  0.00    +0.000 A 
ATOM     29  C   UNL     1       2.399   6.215  18.782  0.00  0.00    +0.000 A 
ATOM     30  C   UNL     1       2.108   5.914  20.109  0.00  0.00    +0.000 A 
ATOM     31  C   UNL     1       1.675   6.925  20.965  0.00  0.00    +0.000 A 
BRANCH  29  32
ATOM     32  C   UNL     1       2.774   5.172  17.884  0.00  0.00    +0.000 C 
ATOM     33  N   UNL     1       3.069   4.323  17.143  0.00  0.00    +0.000 NA
ENDBRANCH  29  32
ENDBRANCH  23  26
ENDBRANCH   8  19
TORSDOF 6
ENDMDL
