MODEL 1
REMARK VINA RESULT:      -9.1      0.000      0.000
REMARK  Name = 
REMARK  6 active torsions:
REMARK  status: ('A' for Active; 'I' for Inactive)
REMARK    1  A    between atoms: C_1  and  C_2
REMARK    2  A    between atoms: C_2  and  C_3
REMARK    3  A    between atoms: C_2  and  N_4
REMARK    4  A    between atoms: C_5  and  C_7
REMARK    5  A    between atoms: C_10  and  C_12
REMARK    6  A    between atoms: C_12  and  C_13
REMARK                            x       y       z     vdW  Elec       q    Type
REMARK                         _______ _______ _______ _____ _____    ______ ____
ROOT
ATOM      1  C   UNL     1       2.329   7.019  18.093  0.00  0.00    +0.000 C 
ATOM      2  C   UNL     1       3.678   7.404  17.476  0.00  0.00    +0.000 C 
ATOM      3  N   UNL     1       4.308   6.136  17.194  0.00  0.00    +0.000 N 
ATOM      4  C   UNL     1       5.186   5.985  16.141  0.00  0.00    +0.000 C 
ATOM      5  O   UNL     1       5.441   6.915  15.373  0.00  0.00    +0.000 OA
ATOM      6  C   UNL     1       3.981   5.203  18.248  0.00  0.00    +0.000 C 
ATOM      7  C   UNL     1       2.522   5.555  18.637  0.00  0.00    +0.000 C 
ATOM      8  C   UNL     1       2.294   5.399  20.155  0.00  0.00    +0.000 C 
ATOM      9  C   UNL     1       2.360   3.941  20.597  0.00  0.00    +0.000 C 
ATOM     10  O   UNL     1       1.403   3.163  19.883  0.00  0.00    +0.000 OA
ATOM     11  C   UNL     1       1.629   3.164  18.476  0.00  0.00    +0.000 C 
ATOM     12  C   UNL     1       1.554   4.583  17.913  0.00  0.00    +0.000 C 
ENDROOT
BRANCH   1  14
ATOM     13  N   UNL     1       1.330   9.190  18.579  0.00  0.00    +0.000 N 
ATOM     14  C   UNL     1       1.905   8.059  19.120  0.00  0.00    +0.000 C 
ATOM     15  O   UNL     1       2.004   7.877  20.331  0.00  0.00    +0.000 OA
ATOM     16  H   UNL     1       1.413   9.358  17.583  0.00  0.00    +0.000 HD
BRANCH  13  18
ATOM     17  C   UNL     1       1.384  11.630  18.964  0.00  0.00    +0.000 C 
ATOM     18  C   UNL     1       0.844  10.276  19.424  0.00  0.00    +0.000 C 
ATOM     19  C   UNL     1      -0.680  10.285  19.440  0.00  0.00    +0.000 C 
ENDBRANCH  13  18
ENDBRANCH   1  14
BRANCH   4  20
ATOM     20  C   UNL     1       5.802   4.610  15.908  0.00  0.00    +0.000 C 
BRANCH  20  21
ATOM     21  C   UNL     1       6.229   4.393  14.472  0.00  0.00    +0.000 A 
ATOM     22  C   UNL     1       7.387   5.007  13.966  0.00  0.00    +0.000 A 
ATOM     23  C   UNL     1       7.762   4.838  12.629  0.00  0.00    +0.000 A 
ATOM     24  C   UNL     1       6.991   4.043  11.786  0.00  0.00    +0.000 A 
ATOM     25  C   UNL     1       5.864   3.407  12.293  0.00  0.00    +0.000 A 
ATOM     26  F   UNL     1       5.124   2.634  11.486  0.00  0.00    +0.000 F 
ATOM     27  C   UNL     1       5.482   3.568  13.621  0.00  0.00    +0.000 A 
ENDBRANCH  20  21
ENDBRANCH   4  20
TORSDOF 4
ENDMDL
MODEL 2
REMARK VINA RESULT:      -8.8      1.042      1.402
REMARK  Name = 
REMARK  6 active torsions:
REMARK  status: ('A' for Active; 'I' for Inactive)
REMARK    1  A    between atoms: C_1  and  C_2
REMARK    2  A    between atoms: C_2  and  C_3
REMARK    3  A    between atoms: C_2  and  N_4
REMARK    4  A    between atoms: C_5  and  C_7
REMARK    5  A    between atoms: C_10  and  C_12
REMARK    6  A    between atoms: C_12  and  C_13
REMARK                            x       y       z     vdW  Elec       q    Type
REMARK                         _______ _______ _______ _____ _____    ______ ____
ROOT
ATOM      1  C   UNL     1       2.260   6.873  18.305  0.00  0.00    +0.000 C 
ATOM      2  C   UNL     1       3.582   7.273  17.644  0.00  0.00    +0.000 C 
ATOM      3  N   UNL     1       4.190   6.013  17.286  0.00  0.00    +0.000 N 
ATOM      4  C   UNL     1       5.018   5.897  16.190  0.00  0.00    +0.000 C 
ATOM      5  O   UNL     1       5.246   6.854  15.447  0.00  0.00    +0.000 OA
ATOM      6  C   UNL     1       3.903   5.043  18.318  0.00  0.00    +0.000 C 
ATOM      7  C   UNL     1       2.465   5.388  18.785  0.00  0.00    +0.000 C 
ATOM      8  C   UNL     1       2.304   5.176  20.305  0.00  0.00    +0.000 C 
ATOM      9  C   UNL     1       2.380   3.702  20.688  0.00  0.00    +0.000 C 
ATOM     10  O   UNL     1       1.385   2.958  19.989  0.00  0.00    +0.000 OA
ATOM     11  C   UNL     1       1.548   3.010  18.575  0.00  0.00    +0.000 C 
ATOM     12  C   UNL     1       1.458   4.450  18.070  0.00  0.00    +0.000 C 
ENDROOT
BRANCH   1  14
ATOM     13  N   UNL     1       1.416   9.080  18.911  0.00  0.00    +0.000 N 
ATOM     14  C   UNL     1       1.889   7.876  19.389  0.00  0.00    +0.000 C 
ATOM     15  O   UNL     1       1.944   7.610  20.587  0.00  0.00    +0.000 OA
ATOM     16  H   UNL     1       1.538   9.303  17.930  0.00  0.00    +0.000 HD
BRANCH  13  18
ATOM     17  C   UNL     1       1.235  11.526  19.207  0.00  0.00    +0.000 C 
ATOM     18  C   UNL     1       0.994  10.145  19.814  0.00  0.00    +0.000 C 
ATOM     19  C   UNL     1      -0.476   9.969  20.179  0.00  0.00    +0.000 C 
ENDBRANCH  13  18
ENDBRANCH   1  14
BRANCH   4  20
ATOM     20  C   UNL     1       5.612   4.528  15.878  0.00  0.00    +0.000 C 
BRANCH  20  21
ATOM     21  C   UNL     1       6.192   4.443  14.482  0.00  0.00    +0.000 A 
ATOM     22  C   UNL     1       5.622   3.594  13.517  0.00  0.00    +0.000 A 
ATOM     23  C   UNL     1       6.180   3.485  12.239  0.00  0.00    +0.000 A 
ATOM     24  C   UNL     1       7.305   4.235  11.906  0.00  0.00    +0.000 A 
ATOM     25  C   UNL     1       7.850   5.100  12.846  0.00  0.00    +0.000 A 
ATOM     26  F   UNL     1       8.928   5.828  12.526  0.00  0.00    +0.000 F 
ATOM     27  C   UNL     1       7.303   5.216  14.121  0.00  0.00    +0.000 A 
ENDBRANCH  20  21
ENDBRANCH   4  20
TORSDOF 4
ENDMDL
MODEL 3
REMARK VINA RESULT:      -8.7      3.439      7.786
REMARK  Name = 
REMARK  6 active torsions:
REMARK  status: ('A' for Active; 'I' for Inactive)
REMARK    1  A    between atoms: C_1  and  C_2
REMARK    2  A    between atoms: C_2  and  C_3
REMARK    3  A    between atoms: C_2  and  N_4
REMARK    4  A    between atoms: C_5  and  C_7
REMARK    5  A    between atoms: C_10  and  C_12
REMARK    6  A    between atoms: C_12  and  C_13
REMARK                            x       y       z     vdW  Elec       q    Type
REMARK                         _______ _______ _______ _____ _____    ______ ____
ROOT
ATOM      1  C   UNL     1       4.201   5.877  18.353  0.00  0.00    +0.000 C 
ATOM      2  C   UNL     1       3.938   7.146  17.537  0.00  0.00    +0.000 C 
ATOM      3  N   UNL     1       2.575   7.495  17.862  0.00  0.00    +0.000 N 
ATOM      4  C   UNL     1       2.147   8.806  17.865  0.00  0.00    +0.000 C 
ATOM      5  O   UNL     1       2.918   9.739  17.628  0.00  0.00    +0.000 OA
ATOM      6  C   UNL     1       1.801   6.284  18.003  0.00  0.00    +0.000 C 
ATOM      7  C   UNL     1       2.779   5.271  18.653  0.00  0.00    +0.000 C 
ATOM      8  C   UNL     1       2.558   3.847  18.104  0.00  0.00    +0.000 C 
ATOM      9  C   UNL     1       1.218   3.266  18.543  0.00  0.00    +0.000 C 
ATOM     10  O   UNL     1       1.126   3.254  19.965  0.00  0.00    +0.000 OA
ATOM     11  C   UNL     1       1.200   4.558  20.534  0.00  0.00    +0.000 C 
ATOM     12  C   UNL     1       2.527   5.231  20.183  0.00  0.00    +0.000 C 
ENDROOT
BRANCH   1  14
ATOM     13  N   UNL     1       5.151   5.117  16.239  0.00  0.00    +0.000 N 
ATOM     14  C   UNL     1       5.167   4.965  17.610  0.00  0.00    +0.000 C 
ATOM     15  O   UNL     1       5.942   4.206  18.187  0.00  0.00    +0.000 OA
ATOM     16  H   UNL     1       4.394   5.634  15.809  0.00  0.00    +0.000 HD
BRANCH  13  18
ATOM     17  C   UNL     1       5.391   4.066  14.017  0.00  0.00    +0.000 C 
ATOM     18  C   UNL     1       6.033   4.337  15.377  0.00  0.00    +0.000 C 
ATOM     19  C   UNL     1       7.367   5.055  15.206  0.00  0.00    +0.000 C 
ENDBRANCH  13  18
ENDBRANCH   1  14
BRANCH   4  20
ATOM     20  C   UNL     1       0.693   9.088  18.228  0.00  0.00    +0.000 C 
BRANCH  20  21
ATOM     21  C   UNL     1       0.508   9.432  19.691  0.00  0.00    +0.000 A 
ATOM     22  C   UNL     1       1.165   8.695  20.692  0.00  0.00    +0.000 A 
ATOM     23  C   UNL     1       0.964   8.987  22.044  0.00  0.00    +0.000 A 
ATOM     24  C   UNL     1       0.115  10.027  22.413  0.00  0.00    +0.000 A 
ATOM     25  C   UNL     1      -0.509  10.778  21.425  0.00  0.00    +0.000 A 
ATOM     26  F   UNL     1      -1.320  11.785  21.776  0.00  0.00    +0.000 F 
ATOM     27  C   UNL     1      -0.316  10.497  20.076  0.00  0.00    +0.000 A 
ENDBRANCH  20  21
ENDBRANCH   4  20
TORSDOF 4
ENDMDL
MODEL 4
REMARK VINA RESULT:      -8.6      3.200      7.713
REMARK  Name = 
REMARK  6 active torsions:
REMARK  status: ('A' for Active; 'I' for Inactive)
REMARK    1  A    between atoms: C_1  and  C_2
REMARK    2  A    between atoms: C_2  and  C_3
REMARK    3  A    between atoms: C_2  and  N_4
REMARK    4  A    between atoms: C_5  and  C_7
REMARK    5  A    between atoms: C_10  and  C_12
REMARK    6  A    between atoms: C_12  and  C_13
REMARK                            x       y       z     vdW  Elec       q    Type
REMARK                         _______ _______ _______ _____ _____    ______ ____
ROOT
ATOM      1  C   UNL     1       4.180   5.859  18.468  0.00  0.00    +0.000 C 
ATOM      2  C   UNL     1       3.946   7.109  17.615  0.00  0.00    +0.000 C 
ATOM      3  N   UNL     1       2.560   7.440  17.852  0.00  0.00    +0.000 N 
ATOM      4  C   UNL     1       2.111   8.742  17.805  0.00  0.00    +0.000 C 
ATOM      5  O   UNL     1       2.878   9.684  17.596  0.00  0.00    +0.000 OA
ATOM      6  C   UNL     1       1.798   6.217  17.969  0.00  0.00    +0.000 C 
ATOM      7  C   UNL     1       2.753   5.234  18.695  0.00  0.00    +0.000 C 
ATOM      8  C   UNL     1       2.589   3.797  18.161  0.00  0.00    +0.000 C 
ATOM      9  C   UNL     1       1.235   3.200  18.531  0.00  0.00    +0.000 C 
ATOM     10  O   UNL     1       1.059   3.212  19.945  0.00  0.00    +0.000 OA
ATOM     11  C   UNL     1       1.077   4.527  20.493  0.00  0.00    +0.000 C 
ATOM     12  C   UNL     1       2.411   5.217  20.208  0.00  0.00    +0.000 C 
ENDROOT
BRANCH   1  14
ATOM     13  N   UNL     1       5.230   5.040  16.425  0.00  0.00    +0.000 N 
ATOM     14  C   UNL     1       5.204   4.952  17.801  0.00  0.00    +0.000 C 
ATOM     15  O   UNL     1       5.986   4.250  18.439  0.00  0.00    +0.000 OA
ATOM     16  H   UNL     1       4.470   5.508  15.947  0.00  0.00    +0.000 HD
BRANCH  13  18
ATOM     17  C   UNL     1       5.622   3.976  14.231  0.00  0.00    +0.000 C 
ATOM     18  C   UNL     1       6.169   4.256  15.630  0.00  0.00    +0.000 C 
ATOM     19  C   UNL     1       7.512   4.973  15.547  0.00  0.00    +0.000 C 
ENDBRANCH  13  18
ENDBRANCH   1  14
BRANCH   4  20
ATOM     20  C   UNL     1       0.633   9.005  18.075  0.00  0.00    +0.000 C 
BRANCH  20  21
ATOM     21  C   UNL     1       0.389   9.664  19.416  0.00  0.00    +0.000 A 
ATOM     22  C   UNL     1      -0.236  10.921  19.497  0.00  0.00    +0.000 A 
ATOM     23  C   UNL     1      -0.427  11.548  20.732  0.00  0.00    +0.000 A 
ATOM     24  C   UNL     1      -0.009  10.920  21.902  0.00  0.00    +0.000 A 
ATOM     25  C   UNL     1       0.578   9.663  21.828  0.00  0.00    +0.000 A 
ATOM     26  F   UNL     1       0.974   9.053  22.953  0.00  0.00    +0.000 F 
ATOM     27  C   UNL     1       0.773   9.030  20.604  0.00  0.00    +0.000 A 
ENDBRANCH  20  21
ENDBRANCH   4  20
TORSDOF 4
ENDMDL
MODEL 5
REMARK VINA RESULT:      -8.3      2.692      7.765
REMARK  Name = 
REMARK  6 active torsions:
REMARK  status: ('A' for Active; 'I' for Inactive)
REMARK    1  A    between atoms: C_1  and  C_2
REMARK    2  A    between atoms: C_2  and  C_3
REMARK    3  A    between atoms: C_2  and  N_4
REMARK    4  A    between atoms: C_5  and  C_7
REMARK    5  A    between atoms: C_10  and  C_12
REMARK    6  A    between atoms: C_12  and  C_13
REMARK                            x       y       z     vdW  Elec       q    Type
REMARK                         _______ _______ _______ _____ _____    ______ ____
ROOT
ATOM      1  C   UNL     1       4.690   4.882  16.101  0.00  0.00    +0.000 C 
ATOM      2  C   UNL     1       3.699   4.097  16.966  0.00  0.00    +0.000 C 
ATOM      3  N   UNL     1       3.629   4.855  18.193  0.00  0.00    +0.000 N 
ATOM      4  C   UNL     1       2.482   4.886  18.958  0.00  0.00    +0.000 C 
ATOM      5  O   UNL     1       1.456   4.298  18.608  0.00  0.00    +0.000 OA
ATOM      6  C   UNL     1       4.940   5.381  18.496  0.00  0.00    +0.000 C 
ATOM      7  C   UNL     1       5.548   5.730  17.113  0.00  0.00    +0.000 C 
ATOM      8  C   UNL     1       7.062   5.437  17.076  0.00  0.00    +0.000 C 
ATOM      9  C   UNL     1       7.850   6.382  17.976  0.00  0.00    +0.000 C 
ATOM     10  O   UNL     1       7.611   7.737  17.601  0.00  0.00    +0.000 OA
ATOM     11  C   UNL     1       6.243   8.113  17.730  0.00  0.00    +0.000 C 
ATOM     12  C   UNL     1       5.354   7.245  16.840  0.00  0.00    +0.000 C 
ENDROOT
BRANCH   1  14
ATOM     13  N   UNL     1       5.566   4.343  13.890  0.00  0.00    +0.000 N 
ATOM     14  C   UNL     1       5.471   3.933  15.203  0.00  0.00    +0.000 C 
ATOM     15  O   UNL     1       6.025   2.921  15.627  0.00  0.00    +0.000 OA
ATOM     16  H   UNL     1       4.968   5.092  13.563  0.00  0.00    +0.000 HD
BRANCH  13  18
ATOM     17  C   UNL     1       5.357   2.880  11.910  0.00  0.00    +0.000 C 
ATOM     18  C   UNL     1       6.300   3.562  12.900  0.00  0.00    +0.000 C 
ATOM     19  C   UNL     1       7.296   4.453  12.164  0.00  0.00    +0.000 C 
ENDBRANCH  13  18
ENDBRANCH   1  14
BRANCH   4  20
ATOM     20  C   UNL     1       2.490   5.718  20.235  0.00  0.00    +0.000 C 
BRANCH  20  21
ATOM     21  C   UNL     1       1.978   7.126  20.023  0.00  0.00    +0.000 A 
ATOM     22  C   UNL     1       1.294   7.805  21.046  0.00  0.00    +0.000 A 
ATOM     23  C   UNL     1       0.786   9.091  20.838  0.00  0.00    +0.000 A 
ATOM     24  C   UNL     1       0.968   9.720  19.609  0.00  0.00    +0.000 A 
ATOM     25  C   UNL     1       1.673   9.065  18.607  0.00  0.00    +0.000 A 
ATOM     26  F   UNL     1       1.856   9.670  17.426  0.00  0.00    +0.000 F 
ATOM     27  C   UNL     1       2.182   7.785  18.804  0.00  0.00    +0.000 A 
ENDBRANCH  20  21
ENDBRANCH   4  20
TORSDOF 4
ENDMDL
MODEL 6
REMARK VINA RESULT:      -8.1      1.342      1.625
REMARK  Name = 
REMARK  6 active torsions:
REMARK  status: ('A' for Active; 'I' for Inactive)
REMARK    1  A    between atoms: C_1  and  C_2
REMARK    2  A    between atoms: C_2  and  C_3
REMARK    3  A    between atoms: C_2  and  N_4
REMARK    4  A    between atoms: C_5  and  C_7
REMARK    5  A    between atoms: C_10  and  C_12
REMARK    6  A    between atoms: C_12  and  C_13
REMARK                            x       y       z     vdW  Elec       q    Type
REMARK                         _______ _______ _______ _____ _____    ______ ____
ROOT
ATOM      1  C   UNL     1       2.735   5.726  18.314  0.00  0.00    +0.000 C 
ATOM      2  C   UNL     1       3.899   6.633  17.903  0.00  0.00    +0.000 C 
ATOM      3  N   UNL     1       4.930   5.711  17.486  0.00  0.00    +0.000 N 
ATOM      4  C   UNL     1       5.849   6.048  16.514  0.00  0.00    +0.000 C 
ATOM      5  O   UNL     1       5.807   7.134  15.934  0.00  0.00    +0.000 OA
ATOM      6  C   UNL     1       4.893   4.546  18.340  0.00  0.00    +0.000 C 
ATOM      7  C   UNL     1       3.386   4.329  18.635  0.00  0.00    +0.000 C 
ATOM      8  C   UNL     1       3.163   3.833  20.078  0.00  0.00    +0.000 C 
ATOM      9  C   UNL     1       3.698   2.420  20.286  0.00  0.00    +0.000 C 
ATOM     10  O   UNL     1       3.086   1.519  19.366  0.00  0.00    +0.000 OA
ATOM     11  C   UNL     1       3.355   1.850  18.007  0.00  0.00    +0.000 C 
ATOM     12  C   UNL     1       2.830   3.246  17.673  0.00  0.00    +0.000 C 
ENDROOT
BRANCH   1  14
ATOM     13  N   UNL     1       1.910   7.744  19.407  0.00  0.00    +0.000 N 
ATOM     14  C   UNL     1       1.945   6.366  19.447  0.00  0.00    +0.000 C 
ATOM     15  O   UNL     1       1.335   5.708  20.286  0.00  0.00    +0.000 OA
ATOM     16  H   UNL     1       2.550   8.236  18.795  0.00  0.00    +0.000 HD
BRANCH  13  18
ATOM     17  C   UNL     1       1.952   8.619  21.717  0.00  0.00    +0.000 C 
ATOM     18  C   UNL     1       1.176   8.516  20.404  0.00  0.00    +0.000 C 
ATOM     19  C   UNL     1       0.856   9.904  19.861  0.00  0.00    +0.000 C 
ENDBRANCH  13  18
ENDBRANCH   1  14
BRANCH   4  20
ATOM     20  C   UNL     1       6.899   5.013  16.127  0.00  0.00    +0.000 C 
BRANCH  20  21
ATOM     21  C   UNL     1       6.934   4.740  14.638  0.00  0.00    +0.000 A 
ATOM     22  C   UNL     1       7.824   5.433  13.800  0.00  0.00    +0.000 A 
ATOM     23  C   UNL     1       7.830   5.210  12.420  0.00  0.00    +0.000 A 
ATOM     24  C   UNL     1       6.957   4.280  11.862  0.00  0.00    +0.000 A 
ATOM     25  C   UNL     1       6.100   3.569  12.692  0.00  0.00    +0.000 A 
ATOM     26  F   UNL     1       5.263   2.667  12.159  0.00  0.00    +0.000 F 
ATOM     27  C   UNL     1       6.085   3.783  14.067  0.00  0.00    +0.000 A 
ENDBRANCH  20  21
ENDBRANCH   4  20
TORSDOF 4
ENDMDL
MODEL 7
REMARK VINA RESULT:      -8.1      3.723      8.231
REMARK  Name = 
REMARK  6 active torsions:
REMARK  status: ('A' for Active; 'I' for Inactive)
REMARK    1  A    between atoms: C_1  and  C_2
REMARK    2  A    between atoms: C_2  and  C_3
REMARK    3  A    between atoms: C_2  and  N_4
REMARK    4  A    between atoms: C_5  and  C_7
REMARK    5  A    between atoms: C_10  and  C_12
REMARK    6  A    between atoms: C_12  and  C_13
REMARK                            x       y       z     vdW  Elec       q    Type
REMARK                         _______ _______ _______ _____ _____    ______ ____
ROOT
ATOM      1  C   UNL     1       3.876   7.232  18.054  0.00  0.00    +0.000 C 
ATOM      2  C   UNL     1       3.292   8.538  17.508  0.00  0.00    +0.000 C 
ATOM      3  N   UNL     1       1.943   8.560  18.021  0.00  0.00    +0.000 N 
ATOM      4  C   UNL     1       1.296   9.746  18.301  0.00  0.00    +0.000 C 
ATOM      5  O   UNL     1       1.854  10.836  18.160  0.00  0.00    +0.000 OA
ATOM      6  C   UNL     1       1.416   7.214  18.019  0.00  0.00    +0.000 C 
ATOM      7  C   UNL     1       2.632   6.322  18.379  0.00  0.00    +0.000 C 
ATOM      8  C   UNL     1       2.595   4.987  17.608  0.00  0.00    +0.000 C 
ATOM      9  C   UNL     1       1.446   4.095  18.065  0.00  0.00    +0.000 C 
ATOM     10  O   UNL     1       1.541   3.841  19.464  0.00  0.00    +0.000 OA
ATOM     11  C   UNL     1       1.459   5.029  20.247  0.00  0.00    +0.000 C 
ATOM     12  C   UNL     1       2.591   5.993  19.894  0.00  0.00    +0.000 C 
ENDROOT
BRANCH   1  14
ATOM     13  N   UNL     1       5.696   5.674  17.598  0.00  0.00    +0.000 N 
ATOM     14  C   UNL     1       4.882   6.654  17.069  0.00  0.00    +0.000 C 
ATOM     15  O   UNL     1       4.920   6.985  15.886  0.00  0.00    +0.000 OA
ATOM     16  H   UNL     1       5.731   5.552  18.603  0.00  0.00    +0.000 HD
BRANCH  13  18
ATOM     17  C   UNL     1       7.840   4.447  17.642  0.00  0.00    +0.000 C 
ATOM     18  C   UNL     1       6.701   4.998  16.785  0.00  0.00    +0.000 C 
ATOM     19  C   UNL     1       6.052   3.882  15.974  0.00  0.00    +0.000 C 
ENDBRANCH  13  18
ENDBRANCH   1  14
BRANCH   4  20
ATOM     20  C   UNL     1      -0.126   9.679  18.848  0.00  0.00    +0.000 C 
BRANCH  20  21
ATOM     21  C   UNL     1      -0.183   9.821  20.354  0.00  0.00    +0.000 A 
ATOM     22  C   UNL     1       0.094   8.727  21.191  0.00  0.00    +0.000 A 
ATOM     23  C   UNL     1       0.003   8.847  22.581  0.00  0.00    +0.000 A 
ATOM     24  C   UNL     1      -0.352  10.066  23.152  0.00  0.00    +0.000 A 
ATOM     25  C   UNL     1      -0.594  11.158  22.329  0.00  0.00    +0.000 A 
ATOM     26  F   UNL     1      -0.929  12.335  22.876  0.00  0.00    +0.000 F 
ATOM     27  C   UNL     1      -0.506  11.050  20.944  0.00  0.00    +0.000 A 
ENDBRANCH  20  21
ENDBRANCH   4  20
TORSDOF 4
ENDMDL
MODEL 8
REMARK VINA RESULT:      -8.1      1.633      2.017
REMARK  Name = 
REMARK  6 active torsions:
REMARK  status: ('A' for Active; 'I' for Inactive)
REMARK    1  A    between atoms: C_1  and  C_2
REMARK    2  A    between atoms: C_2  and  C_3
REMARK    3  A    between atoms: C_2  and  N_4
REMARK    4  A    between atoms: C_5  and  C_7
REMARK    5  A    between atoms: C_10  and  C_12
REMARK    6  A    between atoms: C_12  and  C_13
REMARK                            x       y       z     vdW  Elec       q    Type
REMARK                         _______ _______ _______ _____ _____    ______ ____
ROOT
ATOM      1  C   UNL     1       2.767   6.186  18.748  0.00  0.00    +0.000 C 
ATOM      2  C   UNL     1       4.117   6.903  18.661  0.00  0.00    +0.000 C 
ATOM      3  N   UNL     1       5.021   5.889  18.171  0.00  0.00    +0.000 N 
ATOM      4  C   UNL     1       6.113   6.210  17.393  0.00  0.00    +0.000 C 
ATOM      5  O   UNL     1       6.345   7.372  17.051  0.00  0.00    +0.000 OA
ATOM      6  C   UNL     1       4.661   4.617  18.755  0.00  0.00    +0.000 C 
ATOM      7  C   UNL     1       3.113   4.653  18.837  0.00  0.00    +0.000 C 
ATOM      8  C   UNL     1       2.603   3.952  20.113  0.00  0.00    +0.000 C 
ATOM      9  C   UNL     1       2.849   2.448  20.077  0.00  0.00    +0.000 C 
ATOM     10  O   UNL     1       2.228   1.873  18.930  0.00  0.00    +0.000 OA
ATOM     11  C   UNL     1       2.742   2.390  17.706  0.00  0.00    +0.000 C 
ATOM     12  C   UNL     1       2.520   3.900  17.617  0.00  0.00    +0.000 C 
ENDROOT
BRANCH   1  14
ATOM     13  N   UNL     1       1.675   8.098  19.798  0.00  0.00    +0.000 N 
ATOM     14  C   UNL     1       1.946   6.749  19.900  0.00  0.00    +0.000 C 
ATOM     15  O   UNL     1       1.507   6.048  20.809  0.00  0.00    +0.000 OA
ATOM     16  H   UNL     1       2.185   8.654  19.122  0.00  0.00    +0.000 HD
BRANCH  13  18
ATOM     17  C   UNL     1       1.686   9.053  22.076  0.00  0.00    +0.000 C 
ATOM     18  C   UNL     1       0.880   8.792  20.805  0.00  0.00    +0.000 C 
ATOM     19  C   UNL     1       0.340  10.100  20.235  0.00  0.00    +0.000 C 
ENDBRANCH  13  18
ENDBRANCH   1  14
BRANCH   4  20
ATOM     20  C   UNL     1       7.013   5.077  16.911  0.00  0.00    +0.000 C 
BRANCH  20  21
ATOM     21  C   UNL     1       6.774   4.714  15.461  0.00  0.00    +0.000 A 
ATOM     22  C   UNL     1       5.769   3.798  15.105  0.00  0.00    +0.000 A 
ATOM     23  C   UNL     1       5.573   3.432  13.769  0.00  0.00    +0.000 A 
ATOM     24  C   UNL     1       6.371   3.988  12.772  0.00  0.00    +0.000 A 
ATOM     25  C   UNL     1       7.343   4.918  13.118  0.00  0.00    +0.000 A 
ATOM     26  F   UNL     1       8.107   5.461  12.160  0.00  0.00    +0.000 F 
ATOM     27  C   UNL     1       7.546   5.290  14.444  0.00  0.00    +0.000 A 
ENDBRANCH  20  21
ENDBRANCH   4  20
TORSDOF 4
ENDMDL
MODEL 9
REMARK VINA RESULT:      -8.1      3.251      7.976
REMARK  Name = 
REMARK  6 active torsions:
REMARK  status: ('A' for Active; 'I' for Inactive)
REMARK    1  A    between atoms: C_1  and  C_2
REMARK    2  A    between atoms: C_2  and  C_3
REMARK    3  A    between atoms: C_2  and  N_4
REMARK    4  A    between atoms: C_5  and  C_7
REMARK    5  A    between atoms: C_10  and  C_12
REMARK    6  A    between atoms: C_12  and  C_13
REMARK                            x       y       z     vdW  Elec       q    Type
REMARK                         _______ _______ _______ _____ _____    ______ ____
ROOT
ATOM      1  C   UNL     1       4.735   4.935  16.084  0.00  0.00    +0.000 C 
ATOM      2  C   UNL     1       3.736   4.160  16.947  0.00  0.00    +0.000 C 
ATOM      3  N   UNL     1       3.657   4.928  18.167  0.00  0.00    +0.000 N 
ATOM      4  C   UNL     1       2.504   4.967  18.922  0.00  0.00    +0.000 C 
ATOM      5  O   UNL     1       1.480   4.379  18.570  0.00  0.00    +0.000 OA
ATOM      6  C   UNL     1       4.967   5.455  18.476  0.00  0.00    +0.000 C 
ATOM      7  C   UNL     1       5.586   5.791  17.095  0.00  0.00    +0.000 C 
ATOM      8  C   UNL     1       7.099   5.495  17.072  0.00  0.00    +0.000 C 
ATOM      9  C   UNL     1       7.882   6.446  17.971  0.00  0.00    +0.000 C 
ATOM     10  O   UNL     1       7.649   7.798  17.583  0.00  0.00    +0.000 OA
ATOM     11  C   UNL     1       6.280   8.177  17.698  0.00  0.00    +0.000 C 
ATOM     12  C   UNL     1       5.397   7.303  16.807  0.00  0.00    +0.000 C 
ENDROOT
BRANCH   1  14
ATOM     13  N   UNL     1       5.633   4.380  13.885  0.00  0.00    +0.000 N 
ATOM     14  C   UNL     1       5.521   3.978  15.200  0.00  0.00    +0.000 C 
ATOM     15  O   UNL     1       6.065   2.966  15.636  0.00  0.00    +0.000 OA
ATOM     16  H   UNL     1       5.041   5.130  13.547  0.00  0.00    +0.000 HD
BRANCH  13  18
ATOM     17  C   UNL     1       5.436   2.867  11.942  0.00  0.00    +0.000 C 
ATOM     18  C   UNL     1       6.374   3.590  12.908  0.00  0.00    +0.000 C 
ATOM     19  C   UNL     1       7.346   4.482  12.143  0.00  0.00    +0.000 C 
ENDBRANCH  13  18
ENDBRANCH   1  14
BRANCH   4  20
ATOM     20  C   UNL     1       2.503   5.810  20.193  0.00  0.00    +0.000 C 
BRANCH  20  21
ATOM     21  C   UNL     1       1.963   7.206  19.972  0.00  0.00    +0.000 A 
ATOM     22  C   UNL     1       2.154   7.866  18.746  0.00  0.00    +0.000 A 
ATOM     23  C   UNL     1       1.689   9.171  18.554  0.00  0.00    +0.000 A 
ATOM     24  C   UNL     1       1.016   9.827  19.580  0.00  0.00    +0.000 A 
ATOM     25  C   UNL     1       0.796   9.165  20.782  0.00  0.00    +0.000 A 
ATOM     26  F   UNL     1       0.141   9.791  21.769  0.00  0.00    +0.000 F 
ATOM     27  C   UNL     1       1.254   7.867  20.984  0.00  0.00    +0.000 A 
ENDBRANCH  20  21
ENDBRANCH   4  20
TORSDOF 4
ENDMDL
