MODEL 1
REMARK VINA RESULT:      -8.0      0.000      0.000
REMARK  Name = 
REMARK  9 active torsions:
REMARK  status: ('A' for Active; 'I' for Inactive)
REMARK    1  A    between atoms: C_1  and  C_2
REMARK    2  A    between atoms: C_2  and  C_3
REMARK    3  A    between atoms: C_3  and  N_4
REMARK    4  A    between atoms: C_9  and  C_10
REMARK    5  A    between atoms: N_13  and  C_14
REMARK    6  A    between atoms: C_14  and  C_15
REMARK    7  A    between atoms: C_16  and  C_17
REMARK    8  A    between atoms: N_27  and  C_28
REMARK    9  A    between atoms: C_28  and  C_29
REMARK                            x       y       z     vdW  Elec       q    Type
REMARK                         _______ _______ _______ _____ _____    ______ ____
ROOT
ATOM      1  N   UNL     1       4.106   4.484  17.676  0.00  0.00    +0.000 N 
ATOM      2  C   UNL     1       3.891   5.865  17.669  0.00  0.00    +0.000 A 
ATOM      3  O   UNL     1       4.281   6.635  16.795  0.00  0.00    +0.000 OA
ATOM      4  C   UNL     1       3.159   6.313  18.797  0.00  0.00    +0.000 A 
ATOM      5  N   UNL     1       2.760   7.568  19.147  0.00  0.00    +0.000 N 
ATOM      6  C   UNL     1       2.063   7.466  20.332  0.00  0.00    +0.000 A 
ATOM      7  N   UNL     1       2.011   6.202  20.730  0.00  0.00    +0.000 NA
ATOM      8  C   UNL     1       2.680   5.494  19.769  0.00  0.00    +0.000 A 
ATOM      9  N   UNL     1       2.856   4.130  19.701  0.00  0.00    +0.000 N 
ATOM     10  C   UNL     1       3.594   3.583  18.636  0.00  0.00    +0.000 A 
ATOM     11  O   UNL     1       3.778   2.369  18.537  0.00  0.00    +0.000 OA
ATOM     12  H   UNL     1       2.938   8.414  18.624  0.00  0.00    +0.000 HD
ENDROOT
BRANCH   6  13
ATOM     13  C   UNL     1       1.454   8.622  21.042  0.00  0.00    +0.000 A 
ATOM     14  C   UNL     1       1.390   8.884  22.424  0.00  0.00    +0.000 A 
ATOM     15  N   UNL     1       0.753  10.026  22.706  0.00  0.00    +0.000 NA
ATOM     16  N   UNL     1       0.382  10.495  21.492  0.00  0.00    +0.000 N 
ATOM     17  C   UNL     1       0.807   9.690  20.461  0.00  0.00    +0.000 A 
BRANCH  16  18
ATOM     18  C   UNL     1      -0.462  11.690  21.387  0.00  0.00    +0.000 C 
BRANCH  18  19
ATOM     19  C   UNL     1      -1.327  11.580  20.142  0.00  0.00    +0.000 C 
ATOM     20  C   UNL     1      -2.069  11.486  19.074  0.00  0.00    +0.000 C 
BRANCH  20  21
ATOM     21  C   UNL     1      -2.879  11.375  17.902  0.00  0.00    +0.000 A 
ATOM     22  C   UNL     1      -4.230  11.732  17.948  0.00  0.00    +0.000 A 
ATOM     23  C   UNL     1      -5.024  11.628  16.803  0.00  0.00    +0.000 A 
ATOM     24  C   UNL     1      -4.466  11.167  15.611  0.00  0.00    +0.000 A 
ATOM     25  C   UNL     1      -3.121  10.815  15.577  0.00  0.00    +0.000 A 
ATOM     26  F   UNL     1      -2.587  10.373  14.429  0.00  0.00    +0.000 F 
ATOM     27  C   UNL     1      -2.320  10.914  16.709  0.00  0.00    +0.000 A 
ENDBRANCH  20  21
ENDBRANCH  18  19
ENDBRANCH  16  18
ENDBRANCH   6  13
BRANCH   9  28
ATOM     28  C   UNL     1       2.242   3.239  20.682  0.00  0.00    +0.000 C 
ATOM     29  C   UNL     1       0.795   2.895  20.361  0.00  0.00    +0.000 C 
ENDBRANCH   9  28
BRANCH   1  30
ATOM     30  C   UNL     1       4.876   3.927  16.562  0.00  0.00    +0.000 C 
BRANCH  30  32
ATOM     31  C   UNL     1       6.879   4.645  15.210  0.00  0.00    +0.000 C 
ATOM     32  C   UNL     1       6.349   4.341  16.605  0.00  0.00    +0.000 C 
ENDBRANCH  30  32
ENDBRANCH   1  30
TORSDOF 7
ENDMDL
MODEL 2
REMARK VINA RESULT:      -7.9      1.491      2.011
REMARK  Name = 
REMARK  9 active torsions:
REMARK  status: ('A' for Active; 'I' for Inactive)
REMARK    1  A    between atoms: C_1  and  C_2
REMARK    2  A    between atoms: C_2  and  C_3
REMARK    3  A    between atoms: C_3  and  N_4
REMARK    4  A    between atoms: C_9  and  C_10
REMARK    5  A    between atoms: N_13  and  C_14
REMARK    6  A    between atoms: C_14  and  C_15
REMARK    7  A    between atoms: C_16  and  C_17
REMARK    8  A    between atoms: N_27  and  C_28
REMARK    9  A    between atoms: C_28  and  C_29
REMARK                            x       y       z     vdW  Elec       q    Type
REMARK                         _______ _______ _______ _____ _____    ______ ____
ROOT
ATOM      1  N   UNL     1       5.442   4.814  15.704  0.00  0.00    +0.000 N 
ATOM      2  C   UNL     1       4.975   6.101  15.988  0.00  0.00    +0.000 A 
ATOM      3  O   UNL     1       5.206   7.100  15.312  0.00  0.00    +0.000 OA
ATOM      4  C   UNL     1       4.186   6.151  17.164  0.00  0.00    +0.000 A 
ATOM      5  N   UNL     1       3.565   7.205  17.764  0.00  0.00    +0.000 N 
ATOM      6  C   UNL     1       2.913   6.723  18.879  0.00  0.00    +0.000 A 
ATOM      7  N   UNL     1       3.100   5.415  18.993  0.00  0.00    +0.000 NA
ATOM      8  C   UNL     1       3.878   5.068  17.923  0.00  0.00    +0.000 A 
ATOM      9  N   UNL     1       4.303   3.806  17.568  0.00  0.00    +0.000 N 
ATOM     10  C   UNL     1       5.117   3.649  16.432  0.00  0.00    +0.000 A 
ATOM     11  O   UNL     1       5.521   2.539  16.080  0.00  0.00    +0.000 OA
ATOM     12  H   UNL     1       3.577   8.163  17.441  0.00  0.00    +0.000 HD
ENDROOT
BRANCH   6  13
ATOM     13  C   UNL     1       2.108   7.566  19.803  0.00  0.00    +0.000 A 
ATOM     14  C   UNL     1       1.617   7.260  21.086  0.00  0.00    +0.000 A 
ATOM     15  N   UNL     1       0.919   8.264  21.627  0.00  0.00    +0.000 NA
ATOM     16  N   UNL     1       0.941   9.222  20.671  0.00  0.00    +0.000 N 
ATOM     17  C   UNL     1       1.669   8.849  19.565  0.00  0.00    +0.000 A 
BRANCH  16  18
ATOM     18  C   UNL     1       0.165  10.456  20.841  0.00  0.00    +0.000 C 
BRANCH  18  19
ATOM     19  C   UNL     1      -0.806  10.597  19.680  0.00  0.00    +0.000 C 
ATOM     20  C   UNL     1      -1.639  10.719  18.685  0.00  0.00    +0.000 C 
BRANCH  20  21
ATOM     21  C   UNL     1      -2.549  10.845  17.590  0.00  0.00    +0.000 A 
ATOM     22  C   UNL     1      -3.790  11.459  17.779  0.00  0.00    +0.000 A 
ATOM     23  C   UNL     1      -4.681  11.588  16.710  0.00  0.00    +0.000 A 
ATOM     24  C   UNL     1      -4.330  11.100  15.452  0.00  0.00    +0.000 A 
ATOM     25  C   UNL     1      -3.092  10.490  15.275  0.00  0.00    +0.000 A 
ATOM     26  F   UNL     1      -2.757  10.022  14.064  0.00  0.00    +0.000 F 
ATOM     27  C   UNL     1      -2.197  10.356  16.331  0.00  0.00    +0.000 A 
ENDBRANCH  20  21
ENDBRANCH  18  19
ENDBRANCH  16  18
ENDBRANCH   6  13
BRANCH   9  28
ATOM     28  C   UNL     1       3.875   2.626  18.315  0.00  0.00    +0.000 C 
ATOM     29  C   UNL     1       2.482   2.145  17.937  0.00  0.00    +0.000 C 
ENDBRANCH   9  28
BRANCH   1  30
ATOM     30  C   UNL     1       6.289   4.662  14.519  0.00  0.00    +0.000 C 
BRANCH  30  32
ATOM     31  C   UNL     1       6.379   3.385  12.347  0.00  0.00    +0.000 C 
ATOM     32  C   UNL     1       5.501   4.193  13.293  0.00  0.00    +0.000 C 
ENDBRANCH  30  32
ENDBRANCH   1  30
TORSDOF 7
ENDMDL
MODEL 3
REMARK VINA RESULT:      -7.8      3.318      4.174
REMARK  Name = 
REMARK  9 active torsions:
REMARK  status: ('A' for Active; 'I' for Inactive)
REMARK    1  A    between atoms: C_1  and  C_2
REMARK    2  A    between atoms: C_2  and  C_3
REMARK    3  A    between atoms: C_3  and  N_4
REMARK    4  A    between atoms: C_9  and  C_10
REMARK    5  A    between atoms: N_13  and  C_14
REMARK    6  A    between atoms: C_14  and  C_15
REMARK    7  A    between atoms: C_16  and  C_17
REMARK    8  A    between atoms: N_27  and  C_28
REMARK    9  A    between atoms: C_28  and  C_29
REMARK                            x       y       z     vdW  Elec       q    Type
REMARK                         _______ _______ _______ _____ _____    ______ ____
ROOT
ATOM      1  N   UNL     1       4.889   5.253  17.886  0.00  0.00    +0.000 N 
ATOM      2  C   UNL     1       4.485   6.434  17.255  0.00  0.00    +0.000 A 
ATOM      3  O   UNL     1       4.968   6.880  16.217  0.00  0.00    +0.000 OA
ATOM      4  C   UNL     1       3.434   7.092  17.943  0.00  0.00    +0.000 A 
ATOM      5  N   UNL     1       2.782   8.253  17.652  0.00  0.00    +0.000 N 
ATOM      6  C   UNL     1       1.830   8.449  18.629  0.00  0.00    +0.000 A 
ATOM      7  N   UNL     1       1.863   7.460  19.512  0.00  0.00    +0.000 NA
ATOM      8  C   UNL     1       2.848   6.619  19.073  0.00  0.00    +0.000 A 
ATOM      9  N   UNL     1       3.232   5.415  19.622  0.00  0.00    +0.000 N 
ATOM     10  C   UNL     1       4.286   4.695  19.034  0.00  0.00    +0.000 A 
ATOM     11  O   UNL     1       4.663   3.616  19.495  0.00  0.00    +0.000 OA
ATOM     12  H   UNL     1       2.962   8.851  16.857  0.00  0.00    +0.000 HD
ENDROOT
BRANCH   6  13
ATOM     13  C   UNL     1       0.900   9.610  18.664  0.00  0.00    +0.000 A 
ATOM     14  C   UNL     1      -0.283   9.823  17.932  0.00  0.00    +0.000 A 
ATOM     15  N   UNL     1      -0.864  10.994  18.217  0.00  0.00    +0.000 NA
ATOM     16  N   UNL     1      -0.031  11.553  19.125  0.00  0.00    +0.000 N 
ATOM     17  C   UNL     1       1.032  10.740  19.441  0.00  0.00    +0.000 A 
BRANCH  16  18
ATOM     18  C   UNL     1      -0.265  12.923  19.598  0.00  0.00    +0.000 C 
BRANCH  18  19
ATOM     19  C   UNL     1      -1.466  12.929  20.529  0.00  0.00    +0.000 C 
ATOM     20  C   UNL     1      -2.497  12.934  21.328  0.00  0.00    +0.000 C 
BRANCH  20  21
ATOM     21  C   UNL     1      -3.631  12.939  22.197  0.00  0.00    +0.000 A 
ATOM     22  C   UNL     1      -4.898  13.249  21.692  0.00  0.00    +0.000 A 
ATOM     23  C   UNL     1      -6.011  13.251  22.538  0.00  0.00    +0.000 A 
ATOM     24  C   UNL     1      -5.856  12.944  23.889  0.00  0.00    +0.000 A 
ATOM     25  C   UNL     1      -4.590  12.637  24.380  0.00  0.00    +0.000 A 
ATOM     26  F   UNL     1      -4.444  12.341  25.680  0.00  0.00    +0.000 F 
ATOM     27  C   UNL     1      -3.476  12.631  23.549  0.00  0.00    +0.000 A 
ENDBRANCH  20  21
ENDBRANCH  18  19
ENDBRANCH  16  18
ENDBRANCH   6  13
BRANCH   9  28
ATOM     28  C   UNL     1       2.525   4.849  20.768  0.00  0.00    +0.000 C 
ATOM     29  C   UNL     1       1.294   4.043  20.380  0.00  0.00    +0.000 C 
ENDBRANCH   9  28
BRANCH   1  30
ATOM     30  C   UNL     1       5.988   4.512  17.264  0.00  0.00    +0.000 C 
BRANCH  30  32
ATOM     31  C   UNL     1       7.677   5.545  18.825  0.00  0.00    +0.000 C 
ATOM     32  C   UNL     1       7.326   5.249  17.373  0.00  0.00    +0.000 C 
ENDBRANCH  30  32
ENDBRANCH   1  30
TORSDOF 7
ENDMDL
MODEL 4
REMARK VINA RESULT:      -7.8      2.628      3.194
REMARK  Name = 
REMARK  9 active torsions:
REMARK  status: ('A' for Active; 'I' for Inactive)
REMARK    1  A    between atoms: C_1  and  C_2
REMARK    2  A    between atoms: C_2  and  C_3
REMARK    3  A    between atoms: C_3  and  N_4
REMARK    4  A    between atoms: C_9  and  C_10
REMARK    5  A    between atoms: N_13  and  C_14
REMARK    6  A    between atoms: C_14  and  C_15
REMARK    7  A    between atoms: C_16  and  C_17
REMARK    8  A    between atoms: N_27  and  C_28
REMARK    9  A    between atoms: C_28  and  C_29
REMARK                            x       y       z     vdW  Elec       q    Type
REMARK                         _______ _______ _______ _____ _____    ______ ____
ROOT
ATOM      1  N   UNL     1       4.903   5.094  17.726  0.00  0.00    +0.000 N 
ATOM      2  C   UNL     1       4.478   6.348  17.276  0.00  0.00    +0.000 A 
ATOM      3  O   UNL     1       4.894   6.914  16.269  0.00  0.00    +0.000 OA
ATOM      4  C   UNL     1       3.490   6.925  18.113  0.00  0.00    +0.000 A 
ATOM      5  N   UNL     1       2.840   8.119  18.014  0.00  0.00    +0.000 N 
ATOM      6  C   UNL     1       1.964   8.202  19.075  0.00  0.00    +0.000 A 
ATOM      7  N   UNL     1       2.040   7.111  19.824  0.00  0.00    +0.000 NA
ATOM      8  C   UNL     1       2.977   6.322  19.215  0.00  0.00    +0.000 A 
ATOM      9  N   UNL     1       3.376   5.056  19.584  0.00  0.00    +0.000 N 
ATOM     10  C   UNL     1       4.373   4.404  18.838  0.00  0.00    +0.000 A 
ATOM     11  O   UNL     1       4.761   3.272  19.134  0.00  0.00    +0.000 OA
ATOM     12  H   UNL     1       2.975   8.809  17.288  0.00  0.00    +0.000 HD
ENDROOT
BRANCH   6  13
ATOM     13  C   UNL     1       1.060   9.359  19.319  0.00  0.00    +0.000 A 
ATOM     14  C   UNL     1       0.386   9.727  20.499  0.00  0.00    +0.000 A 
ATOM     15  N   UNL     1      -0.354  10.831  20.350  0.00  0.00    +0.000 NA
ATOM     16  N   UNL     1      -0.174  11.165  19.051  0.00  0.00    +0.000 N 
ATOM     17  C   UNL     1       0.691  10.316  18.400  0.00  0.00    +0.000 A 
BRANCH  16  18
ATOM     18  C   UNL     1      -0.933  12.273  18.459  0.00  0.00    +0.000 C 
BRANCH  18  19
ATOM     19  C   UNL     1      -2.347  12.261  19.019  0.00  0.00    +0.000 C 
ATOM     20  C   UNL     1      -3.559  12.251  19.499  0.00  0.00    +0.000 C 
BRANCH  20  21
ATOM     21  C   UNL     1      -4.887  12.232  20.025  0.00  0.00    +0.000 A 
ATOM     22  C   UNL     1      -5.947  11.781  19.232  0.00  0.00    +0.000 A 
ATOM     23  C   UNL     1      -7.248  11.757  19.744  0.00  0.00    +0.000 A 
ATOM     24  C   UNL     1      -7.487  12.185  21.050  0.00  0.00    +0.000 A 
ATOM     25  C   UNL     1      -6.424  12.632  21.829  0.00  0.00    +0.000 A 
ATOM     26  F   UNL     1      -6.658  13.042  23.084  0.00  0.00    +0.000 F 
ATOM     27  C   UNL     1      -5.127  12.660  21.331  0.00  0.00    +0.000 A 
ENDBRANCH  20  21
ENDBRANCH  18  19
ENDBRANCH  16  18
ENDBRANCH   6  13
BRANCH   9  28
ATOM     28  C   UNL     1       2.741   4.359  20.700  0.00  0.00    +0.000 C 
ATOM     29  C   UNL     1       1.423   3.697  20.326  0.00  0.00    +0.000 C 
ENDBRANCH   9  28
BRANCH   1  30
ATOM     30  C   UNL     1       5.942   4.425  16.941  0.00  0.00    +0.000 C 
BRANCH  30  32
ATOM     31  C   UNL     1       6.201   4.013  14.466  0.00  0.00    +0.000 C 
ATOM     32  C   UNL     1       5.375   3.712  15.710  0.00  0.00    +0.000 C 
ENDBRANCH  30  32
ENDBRANCH   1  30
TORSDOF 7
ENDMDL
MODEL 5
REMARK VINA RESULT:      -7.7      3.037      3.855
REMARK  Name = 
REMARK  9 active torsions:
REMARK  status: ('A' for Active; 'I' for Inactive)
REMARK    1  A    between atoms: C_1  and  C_2
REMARK    2  A    between atoms: C_2  and  C_3
REMARK    3  A    between atoms: C_3  and  N_4
REMARK    4  A    between atoms: C_9  and  C_10
REMARK    5  A    between atoms: N_13  and  C_14
REMARK    6  A    between atoms: C_14  and  C_15
REMARK    7  A    between atoms: C_16  and  C_17
REMARK    8  A    between atoms: N_27  and  C_28
REMARK    9  A    between atoms: C_28  and  C_29
REMARK                            x       y       z     vdW  Elec       q    Type
REMARK                         _______ _______ _______ _____ _____    ______ ____
ROOT
ATOM      1  N   UNL     1       4.568   5.205  17.951  0.00  0.00    +0.000 N 
ATOM      2  C   UNL     1       4.207   6.455  17.440  0.00  0.00    +0.000 A 
ATOM      3  O   UNL     1       4.660   6.954  16.413  0.00  0.00    +0.000 OA
ATOM      4  C   UNL     1       3.238   7.115  18.236  0.00  0.00    +0.000 A 
ATOM      5  N   UNL     1       2.646   8.332  18.075  0.00  0.00    +0.000 N 
ATOM      6  C   UNL     1       1.762   8.504  19.119  0.00  0.00    +0.000 A 
ATOM      7  N   UNL     1       1.779   7.446  19.918  0.00  0.00    +0.000 NA
ATOM      8  C   UNL     1       2.685   6.587  19.358  0.00  0.00    +0.000 A 
ATOM      9  N   UNL     1       3.020   5.322  19.789  0.00  0.00    +0.000 N 
ATOM     10  C   UNL     1       3.993   4.591  19.086  0.00  0.00    +0.000 A 
ATOM     11  O   UNL     1       4.325   3.458  19.438  0.00  0.00    +0.000 OA
ATOM     12  H   UNL     1       2.821   8.981  17.320  0.00  0.00    +0.000 HD
ENDROOT
BRANCH   6  13
ATOM     13  C   UNL     1       0.911   9.711  19.298  0.00  0.00    +0.000 A 
ATOM     14  C   UNL     1      -0.124  10.199  18.478  0.00  0.00    +0.000 A 
ATOM     15  N   UNL     1      -0.671  11.325  18.949  0.00  0.00    +0.000 NA
ATOM     16  N   UNL     1       0.036  11.579  20.074  0.00  0.00    +0.000 N 
ATOM     17  C   UNL     1       0.984  10.616  20.334  0.00  0.00    +0.000 A 
BRANCH  16  18
ATOM     18  C   UNL     1      -0.187  12.821  20.824  0.00  0.00    +0.000 C 
BRANCH  18  19
ATOM     19  C   UNL     1      -1.576  12.786  21.441  0.00  0.00    +0.000 C 
ATOM     20  C   UNL     1      -2.767  12.755  21.970  0.00  0.00    +0.000 C 
BRANCH  20  21
ATOM     21  C   UNL     1      -4.071  12.730  22.553  0.00  0.00    +0.000 A 
ATOM     22  C   UNL     1      -4.216  12.580  23.936  0.00  0.00    +0.000 A 
ATOM     23  C   UNL     1      -5.490  12.558  24.511  0.00  0.00    +0.000 A 
ATOM     24  C   UNL     1      -6.619  12.685  23.702  0.00  0.00    +0.000 A 
ATOM     25  C   UNL     1      -6.462  12.833  22.327  0.00  0.00    +0.000 A 
ATOM     26  F   UNL     1      -7.549  12.956  21.552  0.00  0.00    +0.000 F 
ATOM     27  C   UNL     1      -5.200  12.857  21.744  0.00  0.00    +0.000 A 
ENDBRANCH  20  21
ENDBRANCH  18  19
ENDBRANCH  16  18
ENDBRANCH   6  13
BRANCH   9  28
ATOM     28  C   UNL     1       2.341   4.707  20.927  0.00  0.00    +0.000 C 
ATOM     29  C   UNL     1       1.033   4.025  20.552  0.00  0.00    +0.000 C 
ENDBRANCH   9  28
BRANCH   1  30
ATOM     30  C   UNL     1       5.583   4.453  17.211  0.00  0.00    +0.000 C 
BRANCH  30  32
ATOM     31  C   UNL     1       6.058   3.868  14.804  0.00  0.00    +0.000 C 
ATOM     32  C   UNL     1       5.028   3.831  15.926  0.00  0.00    +0.000 C 
ENDBRANCH  30  32
ENDBRANCH   1  30
TORSDOF 7
ENDMDL
MODEL 6
REMARK VINA RESULT:      -7.7      3.370      3.988
REMARK  Name = 
REMARK  9 active torsions:
REMARK  status: ('A' for Active; 'I' for Inactive)
REMARK    1  A    between atoms: C_1  and  C_2
REMARK    2  A    between atoms: C_2  and  C_3
REMARK    3  A    between atoms: C_3  and  N_4
REMARK    4  A    between atoms: C_9  and  C_10
REMARK    5  A    between atoms: N_13  and  C_14
REMARK    6  A    between atoms: C_14  and  C_15
REMARK    7  A    between atoms: C_16  and  C_17
REMARK    8  A    between atoms: N_27  and  C_28
REMARK    9  A    between atoms: C_28  and  C_29
REMARK                            x       y       z     vdW  Elec       q    Type
REMARK                         _______ _______ _______ _____ _____    ______ ____
ROOT
ATOM      1  N   UNL     1       4.164   5.219  18.161  0.00  0.00    +0.000 N 
ATOM      2  C   UNL     1       3.740   6.515  17.851  0.00  0.00    +0.000 A 
ATOM      3  O   UNL     1       4.098   7.158  16.868  0.00  0.00    +0.000 OA
ATOM      4  C   UNL     1       2.828   7.035  18.803  0.00  0.00    +0.000 A 
ATOM      5  N   UNL     1       2.202   8.245  18.853  0.00  0.00    +0.000 N 
ATOM      6  C   UNL     1       1.404   8.252  19.977  0.00  0.00    +0.000 A 
ATOM      7  N   UNL     1       1.506   7.098  20.623  0.00  0.00    +0.000 NA
ATOM      8  C   UNL     1       2.378   6.348  19.884  0.00  0.00    +0.000 A 
ATOM      9  N   UNL     1       2.770   5.047  20.114  0.00  0.00    +0.000 N 
ATOM     10  C   UNL     1       3.696   4.444  19.244  0.00  0.00    +0.000 A 
ATOM     11  O   UNL     1       4.076   3.284  19.414  0.00  0.00    +0.000 OA
ATOM     12  H   UNL     1       2.303   8.993  18.181  0.00  0.00    +0.000 HD
ENDROOT
BRANCH   6  13
ATOM     13  C   UNL     1       0.548   9.400  20.383  0.00  0.00    +0.000 A 
ATOM     14  C   UNL     1      -0.340  10.165  19.605  0.00  0.00    +0.000 A 
ATOM     15  N   UNL     1      -0.942  11.132  20.306  0.00  0.00    +0.000 NA
ATOM     16  N   UNL     1      -0.416  11.004  21.546  0.00  0.00    +0.000 N 
ATOM     17  C   UNL     1       0.469   9.955  21.641  0.00  0.00    +0.000 A 
BRANCH  16  18
ATOM     18  C   UNL     1      -0.740  11.981  22.592  0.00  0.00    +0.000 C 
BRANCH  18  19
ATOM     19  C   UNL     1      -2.236  12.252  22.573  0.00  0.00    +0.000 C 
ATOM     20  C   UNL     1      -3.518  12.485  22.556  0.00  0.00    +0.000 C 
BRANCH  20  21
ATOM     21  C   UNL     1      -4.925  12.736  22.531  0.00  0.00    +0.000 A 
ATOM     22  C   UNL     1      -5.618  12.711  21.318  0.00  0.00    +0.000 A 
ATOM     23  C   UNL     1      -6.995  12.953  21.289  0.00  0.00    +0.000 A 
ATOM     24  C   UNL     1      -7.677  13.218  22.476  0.00  0.00    +0.000 A 
ATOM     25  C   UNL     1      -6.976  13.240  23.678  0.00  0.00    +0.000 A 
ATOM     26  F   UNL     1      -7.635  13.495  24.818  0.00  0.00    +0.000 F 
ATOM     27  C   UNL     1      -5.607  13.002  23.719  0.00  0.00    +0.000 A 
ENDBRANCH  20  21
ENDBRANCH  18  19
ENDBRANCH  16  18
ENDBRANCH   6  13
BRANCH   9  28
ATOM     28  C   UNL     1       2.198   4.268  21.209  0.00  0.00    +0.000 C 
ATOM     29  C   UNL     1       1.071   3.346  20.768  0.00  0.00    +0.000 C 
ENDBRANCH   9  28
BRANCH   1  30
ATOM     30  C   UNL     1       5.129   4.601  17.248  0.00  0.00    +0.000 C 
BRANCH  30  32
ATOM     31  C   UNL     1       7.275   5.907  17.025  0.00  0.00    +0.000 C 
ATOM     32  C   UNL     1       6.573   4.755  17.733  0.00  0.00    +0.000 C 
ENDBRANCH  30  32
ENDBRANCH   1  30
TORSDOF 7
ENDMDL
MODEL 7
REMARK VINA RESULT:      -7.7      2.982      3.556
REMARK  Name = 
REMARK  9 active torsions:
REMARK  status: ('A' for Active; 'I' for Inactive)
REMARK    1  A    between atoms: C_1  and  C_2
REMARK    2  A    between atoms: C_2  and  C_3
REMARK    3  A    between atoms: C_3  and  N_4
REMARK    4  A    between atoms: C_9  and  C_10
REMARK    5  A    between atoms: N_13  and  C_14
REMARK    6  A    between atoms: C_14  and  C_15
REMARK    7  A    between atoms: C_16  and  C_17
REMARK    8  A    between atoms: N_27  and  C_28
REMARK    9  A    between atoms: C_28  and  C_29
REMARK                            x       y       z     vdW  Elec       q    Type
REMARK                         _______ _______ _______ _____ _____    ______ ____
ROOT
ATOM      1  N   UNL     1       3.902   5.241  17.978  0.00  0.00    +0.000 N 
ATOM      2  C   UNL     1       3.533   6.590  17.978  0.00  0.00    +0.000 A 
ATOM      3  O   UNL     1       3.861   7.410  17.124  0.00  0.00    +0.000 OA
ATOM      4  C   UNL     1       2.717   6.937  19.084  0.00  0.00    +0.000 A 
ATOM      5  N   UNL     1       2.167   8.134  19.432  0.00  0.00    +0.000 N 
ATOM      6  C   UNL     1       1.447   7.938  20.591  0.00  0.00    +0.000 A 
ATOM      7  N   UNL     1       1.526   6.671  20.975  0.00  0.00    +0.000 NA
ATOM      8  C   UNL     1       2.302   6.057  20.031  0.00  0.00    +0.000 A 
ATOM      9  N   UNL     1       2.634   4.722  19.955  0.00  0.00    +0.000 N 
ATOM     10  C   UNL     1       3.464   4.276  18.911  0.00  0.00    +0.000 A 
ATOM     11  O   UNL     1       3.787   3.092  18.808  0.00  0.00    +0.000 OA
ATOM     12  H   UNL     1       2.265   9.002  18.923  0.00  0.00    +0.000 HD
ENDROOT
BRANCH   6  13
ATOM     13  C   UNL     1       0.688   9.009  21.291  0.00  0.00    +0.000 A 
ATOM     14  C   UNL     1      -0.255   8.896  22.331  0.00  0.00    +0.000 A 
ATOM     15  N   UNL     1      -0.747  10.079  22.713  0.00  0.00    +0.000 NA
ATOM     16  N   UNL     1      -0.132  10.964  21.894  0.00  0.00    +0.000 N 
ATOM     17  C   UNL     1       0.760  10.361  21.038  0.00  0.00    +0.000 A 
BRANCH  16  18
ATOM     18  C   UNL     1      -0.507  12.382  21.921  0.00  0.00    +0.000 C 
BRANCH  18  19
ATOM     19  C   UNL     1      -2.005  12.496  22.153  0.00  0.00    +0.000 C 
ATOM     20  C   UNL     1      -3.290  12.593  22.351  0.00  0.00    +0.000 C 
BRANCH  20  21
ATOM     21  C   UNL     1      -4.697  12.708  22.571  0.00  0.00    +0.000 A 
ATOM     22  C   UNL     1      -5.191  12.890  23.866  0.00  0.00    +0.000 A 
ATOM     23  C   UNL     1      -6.566  13.006  24.085  0.00  0.00    +0.000 A 
ATOM     24  C   UNL     1      -7.448  12.939  23.007  0.00  0.00    +0.000 A 
ATOM     25  C   UNL     1      -6.946  12.757  21.722  0.00  0.00    +0.000 A 
ATOM     26  F   UNL     1      -7.796  12.693  20.687  0.00  0.00    +0.000 F 
ATOM     27  C   UNL     1      -5.579  12.640  21.492  0.00  0.00    +0.000 A 
ENDBRANCH  20  21
ENDBRANCH  18  19
ENDBRANCH  16  18
ENDBRANCH   6  13
BRANCH   9  28
ATOM     28  C   UNL     1       2.092   3.754  20.906  0.00  0.00    +0.000 C 
ATOM     29  C   UNL     1       0.771   3.145  20.460  0.00  0.00    +0.000 C 
ENDBRANCH   9  28
BRANCH   1  30
ATOM     30  C   UNL     1       4.766   4.790  16.886  0.00  0.00    +0.000 C 
BRANCH  30  32
ATOM     31  C   UNL     1       7.022   5.893  16.651  0.00  0.00    +0.000 C 
ATOM     32  C   UNL     1       6.244   4.750  17.288  0.00  0.00    +0.000 C 
ENDBRANCH  30  32
ENDBRANCH   1  30
TORSDOF 7
ENDMDL
MODEL 8
REMARK VINA RESULT:      -7.7      3.116      4.370
REMARK  Name = 
REMARK  9 active torsions:
REMARK  status: ('A' for Active; 'I' for Inactive)
REMARK    1  A    between atoms: C_1  and  C_2
REMARK    2  A    between atoms: C_2  and  C_3
REMARK    3  A    between atoms: C_3  and  N_4
REMARK    4  A    between atoms: C_9  and  C_10
REMARK    5  A    between atoms: N_13  and  C_14
REMARK    6  A    between atoms: C_14  and  C_15
REMARK    7  A    between atoms: C_16  and  C_17
REMARK    8  A    between atoms: N_27  and  C_28
REMARK    9  A    between atoms: C_28  and  C_29
REMARK                            x       y       z     vdW  Elec       q    Type
REMARK                         _______ _______ _______ _____ _____    ______ ____
ROOT
ATOM      1  N   UNL     1       4.989   5.159  17.633  0.00  0.00    +0.000 N 
ATOM      2  C   UNL     1       4.661   6.368  17.010  0.00  0.00    +0.000 A 
ATOM      3  O   UNL     1       5.172   6.790  15.976  0.00  0.00    +0.000 OA
ATOM      4  C   UNL     1       3.652   7.085  17.701  0.00  0.00    +0.000 A 
ATOM      5  N   UNL     1       3.074   8.286  17.418  0.00  0.00    +0.000 N 
ATOM      6  C   UNL     1       2.134   8.534  18.395  0.00  0.00    +0.000 A 
ATOM      7  N   UNL     1       2.103   7.538  19.270  0.00  0.00    +0.000 NA
ATOM      8  C   UNL     1       3.035   6.641  18.826  0.00  0.00    +0.000 A 
ATOM      9  N   UNL     1       3.341   5.412  19.368  0.00  0.00    +0.000 N 
ATOM     10  C   UNL     1       4.350   4.631  18.776  0.00  0.00    +0.000 A 
ATOM     11  O   UNL     1       4.658   3.527  19.229  0.00  0.00    +0.000 OA
ATOM     12  H   UNL     1       3.292   8.878  16.628  0.00  0.00    +0.000 HD
ENDROOT
BRANCH   6  13
ATOM     13  C   UNL     1       1.278   9.751  18.438  0.00  0.00    +0.000 A 
ATOM     14  C   UNL     1       1.636  11.079  18.735  0.00  0.00    +0.000 A 
ATOM     15  N   UNL     1       0.596  11.919  18.686  0.00  0.00    +0.000 NA
ATOM     16  N   UNL     1      -0.450  11.118  18.375  0.00  0.00    +0.000 N 
ATOM     17  C   UNL     1      -0.076   9.806  18.193  0.00  0.00    +0.000 A 
BRANCH  16  18
ATOM     18  C   UNL     1      -1.814  11.657  18.350  0.00  0.00    +0.000 C 
BRANCH  18  19
ATOM     19  C   UNL     1      -2.157  12.206  19.726  0.00  0.00    +0.000 C 
ATOM     20  C   UNL     1      -2.451  12.677  20.905  0.00  0.00    +0.000 C 
BRANCH  20  21
ATOM     21  C   UNL     1      -2.780  13.190  22.198  0.00  0.00    +0.000 A 
ATOM     22  C   UNL     1      -2.375  14.477  22.564  0.00  0.00    +0.000 A 
ATOM     23  C   UNL     1      -2.698  14.983  23.827  0.00  0.00    +0.000 A 
ATOM     24  C   UNL     1      -3.427  14.201  24.722  0.00  0.00    +0.000 A 
ATOM     25  C   UNL     1      -3.825  12.922  24.346  0.00  0.00    +0.000 A 
ATOM     26  F   UNL     1      -4.526  12.172  25.209  0.00  0.00    +0.000 F 
ATOM     27  C   UNL     1      -3.509  12.407  23.094  0.00  0.00    +0.000 A 
ENDBRANCH  20  21
ENDBRANCH  18  19
ENDBRANCH  16  18
ENDBRANCH   6  13
BRANCH   9  28
ATOM     28  C   UNL     1       2.598   4.882  20.508  0.00  0.00    +0.000 C 
ATOM     29  C   UNL     1       1.331   4.140  20.110  0.00  0.00    +0.000 C 
ENDBRANCH   9  28
BRANCH   1  30
ATOM     30  C   UNL     1       6.040   4.356  17.007  0.00  0.00    +0.000 C 
BRANCH  30  32
ATOM     31  C   UNL     1       7.367   5.737  18.648  0.00  0.00    +0.000 C 
ATOM     32  C   UNL     1       7.439   4.734  17.504  0.00  0.00    +0.000 C 
ENDBRANCH  30  32
ENDBRANCH   1  30
TORSDOF 7
ENDMDL
MODEL 9
REMARK VINA RESULT:      -7.6      2.886      3.609
REMARK  Name = 
REMARK  9 active torsions:
REMARK  status: ('A' for Active; 'I' for Inactive)
REMARK    1  A    between atoms: C_1  and  C_2
REMARK    2  A    between atoms: C_2  and  C_3
REMARK    3  A    between atoms: C_3  and  N_4
REMARK    4  A    between atoms: C_9  and  C_10
REMARK    5  A    between atoms: N_13  and  C_14
REMARK    6  A    between atoms: C_14  and  C_15
REMARK    7  A    between atoms: C_16  and  C_17
REMARK    8  A    between atoms: N_27  and  C_28
REMARK    9  A    between atoms: C_28  and  C_29
REMARK                            x       y       z     vdW  Elec       q    Type
REMARK                         _______ _______ _______ _____ _____    ______ ____
ROOT
ATOM      1  N   UNL     1       4.378   4.769  17.974  0.00  0.00    +0.000 N 
ATOM      2  C   UNL     1       4.013   6.045  17.534  0.00  0.00    +0.000 A 
ATOM      3  O   UNL     1       4.375   6.556  16.477  0.00  0.00    +0.000 OA
ATOM      4  C   UNL     1       3.159   6.716  18.445  0.00  0.00    +0.000 A 
ATOM      5  N   UNL     1       2.601   7.957  18.377  0.00  0.00    +0.000 N 
ATOM      6  C   UNL     1       1.839   8.131  19.513  0.00  0.00    +0.000 A 
ATOM      7  N   UNL     1       1.900   7.051  20.279  0.00  0.00    +0.000 NA
ATOM      8  C   UNL     1       2.708   6.177  19.606  0.00  0.00    +0.000 A 
ATOM      9  N   UNL     1       3.038   4.889  19.968  0.00  0.00    +0.000 N 
ATOM     10  C   UNL     1       3.904   4.144  19.148  0.00  0.00    +0.000 A 
ATOM     11  O   UNL     1       4.227   2.991  19.435  0.00  0.00    +0.000 OA
ATOM     12  H   UNL     1       2.719   8.621  17.623  0.00  0.00    +0.000 HD
ENDROOT
BRANCH   6  13
ATOM     13  C   UNL     1       1.058   9.362  19.811  0.00  0.00    +0.000 A 
ATOM     14  C   UNL     1       0.777   9.956  21.056  0.00  0.00    +0.000 A 
ATOM     15  N   UNL     1       0.032  11.062  20.945  0.00  0.00    +0.000 NA
ATOM     16  N   UNL     1      -0.190  11.168  19.614  0.00  0.00    +0.000 N 
ATOM     17  C   UNL     1       0.432  10.175  18.893  0.00  0.00    +0.000 A 
BRANCH  16  18
ATOM     18  C   UNL     1      -1.088  12.205  19.094  0.00  0.00    +0.000 C 
BRANCH  18  19
ATOM     19  C   UNL     1      -2.237  12.403  20.069  0.00  0.00    +0.000 C 
ATOM     20  C   UNL     1      -3.223  12.573  20.905  0.00  0.00    +0.000 C 
BRANCH  20  21
ATOM     21  C   UNL     1      -4.305  12.751  21.821  0.00  0.00    +0.000 A 
ATOM     22  C   UNL     1      -4.053  12.848  23.193  0.00  0.00    +0.000 A 
ATOM     23  C   UNL     1      -5.109  13.026  24.091  0.00  0.00    +0.000 A 
ATOM     24  C   UNL     1      -6.418  13.107  23.616  0.00  0.00    +0.000 A 
ATOM     25  C   UNL     1      -6.657  13.009  22.249  0.00  0.00    +0.000 A 
ATOM     26  F   UNL     1      -7.916  13.087  21.795  0.00  0.00    +0.000 F 
ATOM     27  C   UNL     1      -5.615  12.832  21.345  0.00  0.00    +0.000 A 
ENDBRANCH  20  21
ENDBRANCH  18  19
ENDBRANCH  16  18
ENDBRANCH   6  13
BRANCH   9  28
ATOM     28  C   UNL     1       2.460   4.267  21.156  0.00  0.00    +0.000 C 
ATOM     29  C   UNL     1       1.210   3.451  20.862  0.00  0.00    +0.000 C 
ENDBRANCH   9  28
BRANCH   1  30
ATOM     30  C   UNL     1       5.280   4.003  17.111  0.00  0.00    +0.000 C 
BRANCH  30  32
ATOM     31  C   UNL     1       7.288   4.763  15.789  0.00  0.00    +0.000 C 
ATOM     32  C   UNL     1       6.724   4.508  17.180  0.00  0.00    +0.000 C 
ENDBRANCH  30  32
ENDBRANCH   1  30
TORSDOF 7
ENDMDL
