MODEL 1
REMARK VINA RESULT:      -7.7      0.000      0.000
REMARK  Name = 
REMARK  3 active torsions:
REMARK  status: ('A' for Active; 'I' for Inactive)
REMARK    1  A    between atoms: C_5  and  C_7
REMARK    2  A    between atoms: C_9  and  C_10
REMARK    3  A    between atoms: C_28  and  N_29
REMARK                            x       y       z     vdW  Elec       q    Type
REMARK                         _______ _______ _______ _____ _____    ______ ____
ROOT
ATOM      1  C   UNL     1       4.300   2.713  20.067  0.00  0.00    +0.000 A 
ATOM      2  N   UNL     1       4.894   3.421  19.077  0.00  0.00    +0.000 NA
ATOM      3  C   UNL     1       4.328   4.647  18.759  0.00  0.00    +0.000 A 
ATOM      4  C   UNL     1       3.208   5.206  19.450  0.00  0.00    +0.000 A 
ATOM      5  N   UNL     1       2.485   6.410  19.245  0.00  0.00    +0.000 N 
ATOM      6  C   UNL     1       2.022   6.933  20.573  0.00  0.00    +0.000 C 
ATOM      7  C   UNL     1       1.643   8.392  20.467  0.00  0.00    +0.000 C 
ATOM      8  C   UNL     1       0.686   9.453  19.990  0.00  0.00    +0.000 C 
ATOM      9  C   UNL     1       1.030   9.705  18.504  0.00  0.00    +0.000 C 
ATOM     10  C   UNL     1       1.533   8.470  17.650  0.00  0.00    +0.000 C 
ATOM     11  C   UNL     1       2.632   7.378  18.088  0.00  0.00    +0.000 C 
ATOM     12  N   UNL     1       2.699   4.439  20.478  0.00  0.00    +0.000 NA
ATOM     13  C   UNL     1       3.203   3.211  20.762  0.00  0.00    +0.000 A 
ENDROOT
BRANCH   1  18
ATOM     14  N   UNL     1       6.765  -0.098  22.881  0.00  0.00    +0.000 NA
ATOM     15  C   UNL     1       6.075  -0.129  21.799  0.00  0.00    +0.000 C 
ATOM     16  N   UNL     1       5.886  -1.258  21.090  0.00  0.00    +0.000 N 
ATOM     17  N   UNL     1       5.535   1.071  21.388  0.00  0.00    +0.000 N 
ATOM     18  C   UNL     1       4.767   1.295  20.276  0.00  0.00    +0.000 C 
ATOM     19  O   UNL     1       4.495   0.427  19.439  0.00  0.00    +0.000 OA
ATOM     20  H   UNL     1       7.074  -1.054  23.097  0.00  0.00    +0.000 HD
ATOM     21  H   UNL     1       6.631  -1.946  21.113  0.00  0.00    +0.000 HD
ATOM     22  H   UNL     1       5.507  -1.107  20.154  0.00  0.00    +0.000 HD
ATOM     23  H   UNL     1       5.755   1.841  22.004  0.00  0.00    +0.000 HD
ENDBRANCH   1  18
BRANCH   3  24
ATOM     24  C   UNL     1       4.957   5.132  17.533  0.00  0.00    +0.000 A 
ATOM     25  C   UNL     1       6.135   5.824  17.291  0.00  0.00    +0.000 A 
ATOM     26  C   UNL     1       6.466   5.549  15.936  0.00  0.00    +0.000 A 
ATOM     27  C   UNL     1       7.600   5.686  15.125  0.00  0.00    +0.000 A 
ATOM     28  C   UNL     1       7.603   5.040  13.878  0.00  0.00    +0.000 A 
ATOM     29  C   UNL     1       6.485   4.337  13.418  0.00  0.00    +0.000 A 
ATOM     30  C   UNL     1       5.307   4.294  14.162  0.00  0.00    +0.000 A 
ATOM     31  C   UNL     1       5.362   4.897  15.414  0.00  0.00    +0.000 A 
ATOM     32  O   UNL     1       4.385   4.816  16.349  0.00  0.00    +0.000 OA
ENDBRANCH   3  24
BRANCH  13  33
ATOM     33  N   UNL     1       2.618   2.548  21.843  0.00  0.00    +0.000 N 
ATOM     34  H   UNL     1       2.645   3.143  22.667  0.00  0.00    +0.000 HD
ATOM     35  H   UNL     1       1.690   2.196  21.616  0.00  0.00    +0.000 HD
ENDBRANCH  13  33
TORSDOF 3
ENDMDL
MODEL 2
REMARK VINA RESULT:      -7.6      3.143      7.214
REMARK  Name = 
REMARK  3 active torsions:
REMARK  status: ('A' for Active; 'I' for Inactive)
REMARK    1  A    between atoms: C_5  and  C_7
REMARK    2  A    between atoms: C_9  and  C_10
REMARK    3  A    between atoms: C_28  and  N_29
REMARK                            x       y       z     vdW  Elec       q    Type
REMARK                         _______ _______ _______ _____ _____    ______ ____
ROOT
ATOM      1  C   UNL     1       1.546   9.516  18.976  0.00  0.00    +0.000 A 
ATOM      2  N   UNL     1       2.389   8.879  18.129  0.00  0.00    +0.000 NA
ATOM      3  C   UNL     1       2.750   7.581  18.465  0.00  0.00    +0.000 A 
ATOM      4  C   UNL     1       2.240   6.888  19.605  0.00  0.00    +0.000 A 
ATOM      5  N   UNL     1       2.518   5.593  20.118  0.00  0.00    +0.000 N 
ATOM      6  C   UNL     1       1.269   5.034  20.734  0.00  0.00    +0.000 C 
ATOM      7  C   UNL     1       1.379   3.536  20.894  0.00  0.00    +0.000 C 
ATOM      8  C   UNL     1       1.970   2.346  21.605  0.00  0.00    +0.000 C 
ATOM      9  C   UNL     1       3.364   2.118  20.974  0.00  0.00    +0.000 C 
ATOM     10  C   UNL     1       4.168   3.396  20.496  0.00  0.00    +0.000 C 
ATOM     11  C   UNL     1       3.591   4.634  19.644  0.00  0.00    +0.000 C 
ATOM     12  N   UNL     1       1.347   7.596  20.384  0.00  0.00    +0.000 NA
ATOM     13  C   UNL     1       1.030   8.886  20.103  0.00  0.00    +0.000 A 
ENDROOT
BRANCH   1  18
ATOM     14  N   UNL     1       3.621  13.544  17.802  0.00  0.00    +0.000 NA
ATOM     15  C   UNL     1       2.470  13.071  18.117  0.00  0.00    +0.000 C 
ATOM     16  N   UNL     1       1.366  13.839  18.191  0.00  0.00    +0.000 N 
ATOM     17  N   UNL     1       2.420  11.720  18.387  0.00  0.00    +0.000 N 
ATOM     18  C   UNL     1       1.317  10.988  18.743  0.00  0.00    +0.000 C 
ATOM     19  O   UNL     1       0.196  11.473  18.925  0.00  0.00    +0.000 OA
ATOM     20  H   UNL     1       3.514  14.543  17.587  0.00  0.00    +0.000 HD
ATOM     21  H   UNL     1       1.495  14.805  18.470  0.00  0.00    +0.000 HD
ATOM     22  H   UNL     1       0.573  13.390  18.653  0.00  0.00    +0.000 HD
ATOM     23  H   UNL     1       3.315  11.261  18.301  0.00  0.00    +0.000 HD
ENDBRANCH   1  18
BRANCH   3  24
ATOM     24  C   UNL     1       3.829   7.167  17.572  0.00  0.00    +0.000 A 
ATOM     25  C   UNL     1       5.159   7.548  17.463  0.00  0.00    +0.000 A 
ATOM     26  C   UNL     1       5.812   6.467  16.810  0.00  0.00    +0.000 A 
ATOM     27  C   UNL     1       7.138   6.058  16.616  0.00  0.00    +0.000 A 
ATOM     28  C   UNL     1       7.363   4.760  16.127  0.00  0.00    +0.000 A 
ATOM     29  C   UNL     1       6.303   3.918  15.775  0.00  0.00    +0.000 A 
ATOM     30  C   UNL     1       4.982   4.356  15.851  0.00  0.00    +0.000 A 
ATOM     31  C   UNL     1       4.797   5.624  16.391  0.00  0.00    +0.000 A 
ATOM     32  O   UNL     1       3.591   6.158  16.703  0.00  0.00    +0.000 OA
ENDBRANCH   3  24
BRANCH  13  33
ATOM     33  N   UNL     1       0.093   9.481  20.950  0.00  0.00    +0.000 N 
ATOM     34  H   UNL     1      -0.812   9.034  20.830  0.00  0.00    +0.000 HD
ATOM     35  H   UNL     1       0.417   9.508  21.916  0.00  0.00    +0.000 HD
ENDBRANCH  13  33
TORSDOF 3
ENDMDL
MODEL 3
REMARK VINA RESULT:      -7.6      6.192     11.215
REMARK  Name = 
REMARK  3 active torsions:
REMARK  status: ('A' for Active; 'I' for Inactive)
REMARK    1  A    between atoms: C_5  and  C_7
REMARK    2  A    between atoms: C_9  and  C_10
REMARK    3  A    between atoms: C_28  and  N_29
REMARK                            x       y       z     vdW  Elec       q    Type
REMARK                         _______ _______ _______ _____ _____    ______ ____
ROOT
ATOM      1  C   UNL     1       0.826  11.145  18.822  0.00  0.00    +0.000 A 
ATOM      2  N   UNL     1      -0.308  11.169  19.562  0.00  0.00    +0.000 NA
ATOM      3  C   UNL     1      -0.782  12.419  19.936  0.00  0.00    +0.000 A 
ATOM      4  C   UNL     1      -0.174  13.649  19.537  0.00  0.00    +0.000 A 
ATOM      5  N   UNL     1      -0.493  14.997  19.848  0.00  0.00    +0.000 N 
ATOM      6  C   UNL     1      -0.173  15.860  18.662  0.00  0.00    +0.000 C 
ATOM      7  C   UNL     1      -0.880  17.191  18.766  0.00  0.00    +0.000 C 
ATOM      8  C   UNL     1      -1.007  18.546  19.410  0.00  0.00    +0.000 C 
ATOM      9  C   UNL     1      -1.788  18.325  20.726  0.00  0.00    +0.000 C 
ATOM     10  C   UNL     1      -1.554  16.960  21.495  0.00  0.00    +0.000 C 
ATOM     11  C   UNL     1      -1.518  15.486  20.851  0.00  0.00    +0.000 C 
ATOM     12  N   UNL     1       0.947  13.530  18.742  0.00  0.00    +0.000 NA
ATOM     13  C   UNL     1       1.459  12.315  18.417  0.00  0.00    +0.000 A 
ENDROOT
BRANCH   1  18
ATOM     14  N   UNL     1       1.899   7.054  20.828  0.00  0.00    +0.000 NA
ATOM     15  C   UNL     1       2.002   7.671  19.707  0.00  0.00    +0.000 C 
ATOM     16  N   UNL     1       2.589   7.121  18.627  0.00  0.00    +0.000 N 
ATOM     17  N   UNL     1       1.482   8.947  19.664  0.00  0.00    +0.000 N 
ATOM     18  C   UNL     1       1.470   9.801  18.592  0.00  0.00    +0.000 C 
ATOM     19  O   UNL     1       1.991   9.546  17.502  0.00  0.00    +0.000 OA
ATOM     20  H   UNL     1       2.285   6.109  20.715  0.00  0.00    +0.000 HD
ATOM     21  H   UNL     1       3.344   6.465  18.797  0.00  0.00    +0.000 HD
ATOM     22  H   UNL     1       2.794   7.784  17.878  0.00  0.00    +0.000 HD
ATOM     23  H   UNL     1       1.075   9.243  20.540  0.00  0.00    +0.000 HD
ENDBRANCH   1  18
BRANCH   3  24
ATOM     24  C   UNL     1      -1.854  12.223  20.909  0.00  0.00    +0.000 A 
ATOM     25  C   UNL     1      -1.851  11.969  22.273  0.00  0.00    +0.000 A 
ATOM     26  C   UNL     1      -3.123  12.396  22.742  0.00  0.00    +0.000 A 
ATOM     27  C   UNL     1      -3.698  12.675  23.989  0.00  0.00    +0.000 A 
ATOM     28  C   UNL     1      -4.936  13.340  24.011  0.00  0.00    +0.000 A 
ATOM     29  C   UNL     1      -5.617  13.655  22.831  0.00  0.00    +0.000 A 
ATOM     30  C   UNL     1      -5.113  13.275  21.588  0.00  0.00    +0.000 A 
ATOM     31  C   UNL     1      -3.861  12.670  21.603  0.00  0.00    +0.000 A 
ATOM     32  O   UNL     1      -3.132  12.384  20.498  0.00  0.00    +0.000 OA
ENDBRANCH   3  24
BRANCH  13  33
ATOM     33  N   UNL     1       2.579  12.329  17.583  0.00  0.00    +0.000 N 
ATOM     34  H   UNL     1       3.371  11.909  18.064  0.00  0.00    +0.000 HD
ATOM     35  H   UNL     1       2.381  11.917  16.673  0.00  0.00    +0.000 HD
ENDBRANCH  13  33
TORSDOF 3
ENDMDL
MODEL 4
REMARK VINA RESULT:      -7.3      3.050      7.307
REMARK  Name = 
REMARK  3 active torsions:
REMARK  status: ('A' for Active; 'I' for Inactive)
REMARK    1  A    between atoms: C_5  and  C_7
REMARK    2  A    between atoms: C_9  and  C_10
REMARK    3  A    between atoms: C_28  and  N_29
REMARK                            x       y       z     vdW  Elec       q    Type
REMARK                         _______ _______ _______ _____ _____    ______ ____
ROOT
ATOM      1  C   UNL     1       1.419   9.280  19.059  0.00  0.00    +0.000 A 
ATOM      2  N   UNL     1       2.277   8.703  18.184  0.00  0.00    +0.000 NA
ATOM      3  C   UNL     1       2.724   7.427  18.498  0.00  0.00    +0.000 A 
ATOM      4  C   UNL     1       2.286   6.693  19.644  0.00  0.00    +0.000 A 
ATOM      5  N   UNL     1       2.655   5.414  20.136  0.00  0.00    +0.000 N 
ATOM      6  C   UNL     1       1.458   4.775  20.778  0.00  0.00    +0.000 C 
ATOM      7  C   UNL     1       1.664   3.285  20.920  0.00  0.00    +0.000 C 
ATOM      8  C   UNL     1       2.344   2.127  21.603  0.00  0.00    +0.000 C 
ATOM      9  C   UNL     1       3.731   1.990  20.936  0.00  0.00    +0.000 C 
ATOM     10  C   UNL     1       4.445   3.318  20.450  0.00  0.00    +0.000 C 
ATOM     11  C   UNL     1       3.772   4.526  19.626  0.00  0.00    +0.000 C 
ATOM     12  N   UNL     1       1.372   7.339  20.452  0.00  0.00    +0.000 NA
ATOM     13  C   UNL     1       0.971   8.610  20.192  0.00  0.00    +0.000 A 
ENDROOT
BRANCH   1  18
ATOM     14  N   UNL     1      -1.773  12.256  17.367  0.00  0.00    +0.000 NA
ATOM     15  C   UNL     1      -0.624  12.248  17.941  0.00  0.00    +0.000 C 
ATOM     16  N   UNL     1       0.048  13.376  18.235  0.00  0.00    +0.000 N 
ATOM     17  N   UNL     1      -0.103  11.007  18.239  0.00  0.00    +0.000 N 
ATOM     18  C   UNL     1       1.096  10.737  18.847  0.00  0.00    +0.000 C 
ATOM     19  O   UNL     1       1.916  11.604  19.168  0.00  0.00    +0.000 OA
ATOM     20  H   UNL     1      -2.064  13.233  17.237  0.00  0.00    +0.000 HD
ATOM     21  H   UNL     1      -0.087  14.167  17.615  0.00  0.00    +0.000 HD
ATOM     22  H   UNL     1       1.026  13.227  18.490  0.00  0.00    +0.000 HD
ATOM     23  H   UNL     1      -0.703  10.243  17.963  0.00  0.00    +0.000 HD
ENDBRANCH   1  18
BRANCH   3  24
ATOM     24  C   UNL     1       3.803   7.086  17.574  0.00  0.00    +0.000 A 
ATOM     25  C   UNL     1       5.108   7.539  17.444  0.00  0.00    +0.000 A 
ATOM     26  C   UNL     1       5.802   6.507  16.756  0.00  0.00    +0.000 A 
ATOM     27  C   UNL     1       7.143   6.171  16.525  0.00  0.00    +0.000 A 
ATOM     28  C   UNL     1       7.425   4.897  16.006  0.00  0.00    +0.000 A 
ATOM     29  C   UNL     1       6.403   4.006  15.661  0.00  0.00    +0.000 A 
ATOM     30  C   UNL     1       5.063   4.373  15.774  0.00  0.00    +0.000 A 
ATOM     31  C   UNL     1       4.824   5.619  16.342  0.00  0.00    +0.000 A 
ATOM     32  O   UNL     1       3.599   6.083  16.691  0.00  0.00    +0.000 OA
ENDBRANCH   3  24
BRANCH  13  33
ATOM     33  N   UNL     1       0.022   9.140  21.069  0.00  0.00    +0.000 N 
ATOM     34  H   UNL     1      -0.316  10.030  20.713  0.00  0.00    +0.000 HD
ATOM     35  H   UNL     1      -0.717   8.470  21.279  0.00  0.00    +0.000 HD
ENDBRANCH  13  33
TORSDOF 3
ENDMDL
MODEL 5
REMARK VINA RESULT:      -7.1      7.684     11.111
REMARK  Name = 
REMARK  3 active torsions:
REMARK  status: ('A' for Active; 'I' for Inactive)
REMARK    1  A    between atoms: C_5  and  C_7
REMARK    2  A    between atoms: C_9  and  C_10
REMARK    3  A    between atoms: C_28  and  N_29
REMARK                            x       y       z     vdW  Elec       q    Type
REMARK                         _______ _______ _______ _____ _____    ______ ____
ROOT
ATOM      1  C   UNL     1      -2.533  12.899  22.906  0.00  0.00    +0.000 A 
ATOM      2  N   UNL     1      -1.964  11.902  22.186  0.00  0.00    +0.000 NA
ATOM      3  C   UNL     1      -0.790  12.209  21.513  0.00  0.00    +0.000 A 
ATOM      4  C   UNL     1      -0.142  13.480  21.589  0.00  0.00    +0.000 A 
ATOM      5  N   UNL     1       1.025  13.978  20.952  0.00  0.00    +0.000 N 
ATOM      6  C   UNL     1       1.722  14.926  21.884  0.00  0.00    +0.000 C 
ATOM      7  C   UNL     1       3.154  15.139  21.452  0.00  0.00    +0.000 C 
ATOM      8  C   UNL     1       4.144  15.741  20.490  0.00  0.00    +0.000 C 
ATOM      9  C   UNL     1       4.195  14.788  19.273  0.00  0.00    +0.000 C 
ATOM     10  C   UNL     1       2.856  14.045  18.869  0.00  0.00    +0.000 C 
ATOM     11  C   UNL     1       1.830  13.300  19.862  0.00  0.00    +0.000 C 
ATOM     12  N   UNL     1      -0.764  14.420  22.386  0.00  0.00    +0.000 NA
ATOM     13  C   UNL     1      -1.945  14.155  23.003  0.00  0.00    +0.000 A 
ENDROOT
BRANCH   1  18
ATOM     14  N   UNL     1      -7.067  12.542  21.803  0.00  0.00    +0.000 NA
ATOM     15  C   UNL     1      -6.279  12.470  22.814  0.00  0.00    +0.000 C 
ATOM     16  N   UNL     1      -6.720  12.219  24.062  0.00  0.00    +0.000 N 
ATOM     17  N   UNL     1      -4.940  12.673  22.557  0.00  0.00    +0.000 N 
ATOM     18  C   UNL     1      -3.911  12.648  23.462  0.00  0.00    +0.000 C 
ATOM     19  O   UNL     1      -4.065  12.485  24.677  0.00  0.00    +0.000 OA
ATOM     20  H   UNL     1      -8.022  12.333  22.120  0.00  0.00    +0.000 HD
ATOM     21  H   UNL     1      -7.649  12.551  24.297  0.00  0.00    +0.000 HD
ATOM     22  H   UNL     1      -6.031  12.399  24.794  0.00  0.00    +0.000 HD
ATOM     23  H   UNL     1      -4.742  12.857  21.585  0.00  0.00    +0.000 HD
ENDBRANCH   1  18
BRANCH   3  24
ATOM     24  C   UNL     1      -0.475  11.093  20.623  0.00  0.00    +0.000 A 
ATOM     25  C   UNL     1      -0.392  10.987  19.243  0.00  0.00    +0.000 A 
ATOM     26  C   UNL     1       0.440   9.860  18.998  0.00  0.00    +0.000 A 
ATOM     27  C   UNL     1       1.141   9.342  17.901  0.00  0.00    +0.000 A 
ATOM     28  C   UNL     1       2.081   8.326  18.139  0.00  0.00    +0.000 A 
ATOM     29  C   UNL     1       2.270   7.790  19.417  0.00  0.00    +0.000 A 
ATOM     30  C   UNL     1       1.494   8.213  20.495  0.00  0.00    +0.000 A 
ATOM     31  C   UNL     1       0.614   9.257  20.232  0.00  0.00    +0.000 A 
ATOM     32  O   UNL     1      -0.099   9.918  21.176  0.00  0.00    +0.000 OA
ENDBRANCH   3  24
BRANCH  13  33
ATOM     33  N   UNL     1      -2.456  15.179  23.803  0.00  0.00    +0.000 N 
ATOM     34  H   UNL     1      -1.733  15.516  24.433  0.00  0.00    +0.000 HD
ATOM     35  H   UNL     1      -2.896  15.912  23.247  0.00  0.00    +0.000 HD
ENDBRANCH  13  33
TORSDOF 3
ENDMDL
MODEL 6
REMARK VINA RESULT:      -6.9      3.855      8.502
REMARK  Name = 
REMARK  3 active torsions:
REMARK  status: ('A' for Active; 'I' for Inactive)
REMARK    1  A    between atoms: C_5  and  C_7
REMARK    2  A    between atoms: C_9  and  C_10
REMARK    3  A    between atoms: C_28  and  N_29
REMARK                            x       y       z     vdW  Elec       q    Type
REMARK                         _______ _______ _______ _____ _____    ______ ____
ROOT
ATOM      1  C   UNL     1       1.434   9.481  18.772  0.00  0.00    +0.000 A 
ATOM      2  N   UNL     1       1.296   8.221  19.249  0.00  0.00    +0.000 NA
ATOM      3  C   UNL     1       2.179   7.268  18.761  0.00  0.00    +0.000 A 
ATOM      4  C   UNL     1       3.235   7.563  17.843  0.00  0.00    +0.000 A 
ATOM      5  N   UNL     1       4.195   6.725  17.219  0.00  0.00    +0.000 N 
ATOM      6  C   UNL     1       5.476   7.491  17.053  0.00  0.00    +0.000 C 
ATOM      7  C   UNL     1       6.631   6.548  16.809  0.00  0.00    +0.000 C 
ATOM      8  C   UNL     1       7.363   5.602  15.894  0.00  0.00    +0.000 C 
ATOM      9  C   UNL     1       6.622   4.249  15.993  0.00  0.00    +0.000 C 
ATOM     10  C   UNL     1       5.054   4.288  16.210  0.00  0.00    +0.000 C 
ATOM     11  C   UNL     1       4.249   5.211  17.254  0.00  0.00    +0.000 C 
ATOM     12  N   UNL     1       3.332   8.882  17.450  0.00  0.00    +0.000 NA
ATOM     13  C   UNL     1       2.439   9.815  17.871  0.00  0.00    +0.000 A 
ENDROOT
BRANCH   1  18
ATOM     14  N   UNL     1      -2.064  12.064  17.041  0.00  0.00    +0.000 NA
ATOM     15  C   UNL     1      -1.473  11.804  18.150  0.00  0.00    +0.000 C 
ATOM     16  N   UNL     1      -1.837  12.369  19.317  0.00  0.00    +0.000 N 
ATOM     17  N   UNL     1      -0.427  10.909  18.086  0.00  0.00    +0.000 N 
ATOM     18  C   UNL     1       0.354  10.473  19.124  0.00  0.00    +0.000 C 
ATOM     19  O   UNL     1       0.250  10.883  20.285  0.00  0.00    +0.000 OA
ATOM     20  H   UNL     1      -2.843  12.707  17.231  0.00  0.00    +0.000 HD
ATOM     21  H   UNL     1      -2.219  13.308  19.274  0.00  0.00    +0.000 HD
ATOM     22  H   UNL     1      -1.161  12.244  20.072  0.00  0.00    +0.000 HD
ATOM     23  H   UNL     1      -0.252  10.562  17.154  0.00  0.00    +0.000 HD
ENDBRANCH   1  18
BRANCH   3  24
ATOM     24  C   UNL     1       1.721   5.955  19.208  0.00  0.00    +0.000 A 
ATOM     25  C   UNL     1       1.325   4.815  18.525  0.00  0.00    +0.000 A 
ATOM     26  C   UNL     1       1.503   3.742  19.441  0.00  0.00    +0.000 A 
ATOM     27  C   UNL     1       1.557   2.344  19.361  0.00  0.00    +0.000 A 
ATOM     28  C   UNL     1       2.021   1.636  20.482  0.00  0.00    +0.000 A 
ATOM     29  C   UNL     1       2.356   2.291  21.672  0.00  0.00    +0.000 A 
ATOM     30  C   UNL     1       2.192   3.669  21.804  0.00  0.00    +0.000 A 
ATOM     31  C   UNL     1       1.784   4.341  20.657  0.00  0.00    +0.000 A 
ATOM     32  O   UNL     1       1.731   5.689  20.534  0.00  0.00    +0.000 OA
ENDBRANCH   3  24
BRANCH  13  33
ATOM     33  N   UNL     1       2.664  11.118  17.424  0.00  0.00    +0.000 N 
ATOM     34  H   UNL     1       2.303  11.224  16.480  0.00  0.00    +0.000 HD
ATOM     35  H   UNL     1       2.313  11.812  18.083  0.00  0.00    +0.000 HD
ENDBRANCH  13  33
TORSDOF 3
ENDMDL
MODEL 7
REMARK VINA RESULT:      -6.9      9.658     11.141
REMARK  Name = 
REMARK  3 active torsions:
REMARK  status: ('A' for Active; 'I' for Inactive)
REMARK    1  A    between atoms: C_5  and  C_7
REMARK    2  A    between atoms: C_9  and  C_10
REMARK    3  A    between atoms: C_28  and  N_29
REMARK                            x       y       z     vdW  Elec       q    Type
REMARK                         _______ _______ _______ _____ _____    ______ ____
ROOT
ATOM      1  C   UNL     1       7.504  12.767  24.996  0.00  0.00    +0.000 A 
ATOM      2  N   UNL     1       8.227  12.202  24.000  0.00  0.00    +0.000 NA
ATOM      3  C   UNL     1       8.672  13.048  22.994  0.00  0.00    +0.000 A 
ATOM      4  C   UNL     1       8.456  14.461  22.993  0.00  0.00    +0.000 A 
ATOM      5  N   UNL     1       8.801  15.462  22.047  0.00  0.00    +0.000 N 
ATOM      6  C   UNL     1       9.116  16.734  22.778  0.00  0.00    +0.000 C 
ATOM      7  C   UNL     1       9.894  17.678  21.890  0.00  0.00    +0.000 C 
ATOM      8  C   UNL     1       9.930  18.627  20.721  0.00  0.00    +0.000 C 
ATOM      9  C   UNL     1      10.065  17.747  19.458  0.00  0.00    +0.000 C 
ATOM     10  C   UNL     1       9.351  16.332  19.472  0.00  0.00    +0.000 C 
ATOM     11  C   UNL     1       9.381  15.250  20.663  0.00  0.00    +0.000 C 
ATOM     12  N   UNL     1       7.754  14.957  24.073  0.00  0.00    +0.000 NA
ATOM     13  C   UNL     1       7.260  14.136  25.034  0.00  0.00    +0.000 A 
ENDROOT
BRANCH   1  18
ATOM     14  N   UNL     1       3.913   9.825  25.591  0.00  0.00    +0.000 NA
ATOM     15  C   UNL     1       4.926  10.301  26.220  0.00  0.00    +0.000 C 
ATOM     16  N   UNL     1       5.217   9.960  27.490  0.00  0.00    +0.000 N 
ATOM     17  N   UNL     1       5.708  11.197  25.524  0.00  0.00    +0.000 N 
ATOM     18  C   UNL     1       6.834  11.837  25.974  0.00  0.00    +0.000 C 
ATOM     19  O   UNL     1       7.276  11.728  27.123  0.00  0.00    +0.000 OA
ATOM     20  H   UNL     1       3.441   9.146  26.200  0.00  0.00    +0.000 HD
ATOM     21  H   UNL     1       4.435   9.733  28.096  0.00  0.00    +0.000 HD
ATOM     22  H   UNL     1       5.910  10.562  27.937  0.00  0.00    +0.000 HD
ATOM     23  H   UNL     1       5.380  11.371  24.585  0.00  0.00    +0.000 HD
ENDBRANCH   1  18
BRANCH   3  24
ATOM     24  C   UNL     1       9.213  12.223  21.916  0.00  0.00    +0.000 A 
ATOM     25  C   UNL     1       8.619  11.373  20.994  0.00  0.00    +0.000 A 
ATOM     26  C   UNL     1       9.539  11.282  19.914  0.00  0.00    +0.000 A 
ATOM     27  C   UNL     1       9.496  10.838  18.585  0.00  0.00    +0.000 A 
ATOM     28  C   UNL     1      10.572  11.166  17.744  0.00  0.00    +0.000 A 
ATOM     29  C   UNL     1      11.691  11.854  18.224  0.00  0.00    +0.000 A 
ATOM     30  C   UNL     1      11.800  12.197  19.571  0.00  0.00    +0.000 A 
ATOM     31  C   UNL     1      10.692  11.905  20.360  0.00  0.00    +0.000 A 
ATOM     32  O   UNL     1      10.535  12.308  21.644  0.00  0.00    +0.000 OA
ENDBRANCH   3  24
BRANCH  13  33
ATOM     33  N   UNL     1       6.593  14.764  26.088  0.00  0.00    +0.000 N 
ATOM     34  H   UNL     1       6.654  14.190  26.925  0.00  0.00    +0.000 HD
ATOM     35  H   UNL     1       6.910  15.724  26.219  0.00  0.00    +0.000 HD
ENDBRANCH  13  33
TORSDOF 3
ENDMDL
MODEL 8
REMARK VINA RESULT:      -6.9      7.371     10.709
REMARK  Name = 
REMARK  3 active torsions:
REMARK  status: ('A' for Active; 'I' for Inactive)
REMARK    1  A    between atoms: C_5  and  C_7
REMARK    2  A    between atoms: C_9  and  C_10
REMARK    3  A    between atoms: C_28  and  N_29
REMARK                            x       y       z     vdW  Elec       q    Type
REMARK                         _______ _______ _______ _____ _____    ______ ____
ROOT
ATOM      1  C   UNL     1      -2.193  13.066  21.827  0.00  0.00    +0.000 A 
ATOM      2  N   UNL     1      -1.590  11.984  21.279  0.00  0.00    +0.000 NA
ATOM      3  C   UNL     1      -0.391  12.206  20.617  0.00  0.00    +0.000 A 
ATOM      4  C   UNL     1       0.247  13.482  20.540  0.00  0.00    +0.000 A 
ATOM      5  N   UNL     1       1.437  13.898  19.887  0.00  0.00    +0.000 N 
ATOM      6  C   UNL     1       2.090  14.975  20.703  0.00  0.00    +0.000 C 
ATOM      7  C   UNL     1       3.538  15.141  20.304  0.00  0.00    +0.000 C 
ATOM      8  C   UNL     1       4.564  15.612  19.308  0.00  0.00    +0.000 C 
ATOM      9  C   UNL     1       4.671  14.499  18.241  0.00  0.00    +0.000 C 
ATOM     10  C   UNL     1       3.353  13.692  17.891  0.00  0.00    +0.000 C 
ATOM     11  C   UNL     1       2.291  13.083  18.936  0.00  0.00    +0.000 C 
ATOM     12  N   UNL     1      -0.412  14.518  21.170  0.00  0.00    +0.000 NA
ATOM     13  C   UNL     1      -1.616  14.330  21.771  0.00  0.00    +0.000 A 
ENDROOT
BRANCH   1  18
ATOM     14  N   UNL     1      -4.721  12.301  25.691  0.00  0.00    +0.000 NA
ATOM     15  C   UNL     1      -4.862  12.480  24.427  0.00  0.00    +0.000 C 
ATOM     16  N   UNL     1      -6.066  12.477  23.824  0.00  0.00    +0.000 N 
ATOM     17  N   UNL     1      -3.703  12.670  23.707  0.00  0.00    +0.000 N 
ATOM     18  C   UNL     1      -3.592  12.880  22.357  0.00  0.00    +0.000 C 
ATOM     19  O   UNL     1      -4.550  12.872  21.577  0.00  0.00    +0.000 OA
ATOM     20  H   UNL     1      -5.654  12.213  26.112  0.00  0.00    +0.000 HD
ATOM     21  H   UNL     1      -6.783  11.885  24.230  0.00  0.00    +0.000 HD
ATOM     22  H   UNL     1      -6.024  12.415  22.805  0.00  0.00    +0.000 HD
ATOM     23  H   UNL     1      -2.869  12.646  24.276  0.00  0.00    +0.000 HD
ENDBRANCH   1  18
BRANCH   3  24
ATOM     24  C   UNL     1      -0.033  10.980  19.907  0.00  0.00    +0.000 A 
ATOM     25  C   UNL     1       0.293  10.722  18.583  0.00  0.00    +0.000 A 
ATOM     26  C   UNL     1       1.034   9.509  18.604  0.00  0.00    +0.000 A 
ATOM     27  C   UNL     1       1.870   8.820  17.715  0.00  0.00    +0.000 A 
ATOM     28  C   UNL     1       2.639   7.758  18.219  0.00  0.00    +0.000 A 
ATOM     29  C   UNL     1       2.530   7.346  19.552  0.00  0.00    +0.000 A 
ATOM     30  C   UNL     1       1.615   7.945  20.416  0.00  0.00    +0.000 A 
ATOM     31  C   UNL     1       0.913   9.027  19.897  0.00  0.00    +0.000 A 
ATOM     32  O   UNL     1       0.110   9.842  20.622  0.00  0.00    +0.000 OA
ENDBRANCH   3  24
BRANCH  13  33
ATOM     33  N   UNL     1      -2.165  15.450  22.397  0.00  0.00    +0.000 N 
ATOM     34  H   UNL     1      -2.661  16.017  21.714  0.00  0.00    +0.000 HD
ATOM     35  H   UNL     1      -2.725  15.196  23.209  0.00  0.00    +0.000 HD
ENDBRANCH  13  33
TORSDOF 3
ENDMDL
MODEL 9
REMARK VINA RESULT:      -6.9      9.795     13.304
REMARK  Name = 
REMARK  3 active torsions:
REMARK  status: ('A' for Active; 'I' for Inactive)
REMARK    1  A    between atoms: C_5  and  C_7
REMARK    2  A    between atoms: C_9  and  C_10
REMARK    3  A    between atoms: C_28  and  N_29
REMARK                            x       y       z     vdW  Elec       q    Type
REMARK                         _______ _______ _______ _____ _____    ______ ____
ROOT
ATOM      1  C   UNL     1      -4.940  13.846  20.569  0.00  0.00    +0.000 A 
ATOM      2  N   UNL     1      -3.994  13.083  21.167  0.00  0.00    +0.000 NA
ATOM      3  C   UNL     1      -3.182  13.713  22.100  0.00  0.00    +0.000 A 
ATOM      4  C   UNL     1      -3.334  15.080  22.488  0.00  0.00    +0.000 A 
ATOM      5  N   UNL     1      -2.587  15.889  23.384  0.00  0.00    +0.000 N 
ATOM      6  C   UNL     1      -3.515  16.861  24.053  0.00  0.00    +0.000 C 
ATOM      7  C   UNL     1      -2.880  17.430  25.300  0.00  0.00    +0.000 C 
ATOM      8  C   UNL     1      -1.862  18.337  25.941  0.00  0.00    +0.000 C 
ATOM      9  C   UNL     1      -0.528  17.557  25.935  0.00  0.00    +0.000 C 
ATOM     10  C   UNL     1      -0.254  16.585  24.714  0.00  0.00    +0.000 C 
ATOM     11  C   UNL     1      -1.286  15.529  24.073  0.00  0.00    +0.000 C 
ATOM     12  N   UNL     1      -4.356  15.767  21.865  0.00  0.00    +0.000 NA
ATOM     13  C   UNL     1      -5.120  15.183  20.907  0.00  0.00    +0.000 A 
ENDROOT
BRANCH   1  18
ATOM     14  N   UNL     1      -4.427  11.662  16.462  0.00  0.00    +0.000 NA
ATOM     15  C   UNL     1      -5.342  12.090  17.255  0.00  0.00    +0.000 C 
ATOM     16  N   UNL     1      -6.655  11.962  16.985  0.00  0.00    +0.000 N 
ATOM     17  N   UNL     1      -4.906  12.703  18.410  0.00  0.00    +0.000 N 
ATOM     18  C   UNL     1      -5.681  13.238  19.406  0.00  0.00    +0.000 C 
ATOM     19  O   UNL     1      -6.915  13.288  19.367  0.00  0.00    +0.000 OA
ATOM     20  H   UNL     1      -4.880  11.194  15.667  0.00  0.00    +0.000 HD
ATOM     21  H   UNL     1      -6.927  11.980  16.008  0.00  0.00    +0.000 HD
ATOM     22  H   UNL     1      -7.262  12.527  17.582  0.00  0.00    +0.000 HD
ATOM     23  H   UNL     1      -3.900  12.738  18.490  0.00  0.00    +0.000 HD
ENDBRANCH   1  18
BRANCH   3  24
ATOM     24  C   UNL     1      -2.096  12.799  22.445  0.00  0.00    +0.000 A 
ATOM     25  C   UNL     1      -1.995  11.762  23.362  0.00  0.00    +0.000 A 
ATOM     26  C   UNL     1      -0.941  10.935  22.885  0.00  0.00    +0.000 A 
ATOM     27  C   UNL     1      -0.482   9.636  23.141  0.00  0.00    +0.000 A 
ATOM     28  C   UNL     1       0.451   9.078  22.252  0.00  0.00    +0.000 A 
ATOM     29  C   UNL     1       0.968   9.812  21.180  0.00  0.00    +0.000 A 
ATOM     30  C   UNL     1       0.610  11.145  20.984  0.00  0.00    +0.000 A 
ATOM     31  C   UNL     1      -0.357  11.644  21.850  0.00  0.00    +0.000 A 
ATOM     32  O   UNL     1      -0.957  12.852  21.718  0.00  0.00    +0.000 OA
ENDBRANCH   3  24
BRANCH  13  33
ATOM     33  N   UNL     1      -6.139  15.976  20.374  0.00  0.00    +0.000 N 
ATOM     34  H   UNL     1      -6.686  16.384  21.127  0.00  0.00    +0.000 HD
ATOM     35  H   UNL     1      -5.781  16.656  19.705  0.00  0.00    +0.000 HD
ENDBRANCH  13  33
TORSDOF 3
ENDMDL
