MODEL 1
REMARK VINA RESULT:      -7.6      0.000      0.000
REMARK  Name = 
REMARK  4 active torsions:
REMARK  status: ('A' for Active; 'I' for Inactive)
REMARK    1  A    between atoms: C_2  and  C_3
REMARK    2  A    between atoms: C_3  and  N_4
REMARK    3  A    between atoms: C_7  and  N_8
REMARK    4  A    between atoms: C_21  and  C_22
REMARK                            x       y       z     vdW  Elec       q    Type
REMARK                         _______ _______ _______ _____ _____    ______ ____
ROOT
ATOM      1  N   UNL     1       2.848   6.892  18.681  0.00  0.00    +0.000 N 
ATOM      2  C   UNL     1       1.996   7.808  19.292  0.00  0.00    +0.000 A 
ATOM      3  N   UNL     1       1.961   9.049  18.889  0.00  0.00    +0.000 NA
ATOM      4  C   UNL     1       1.141   9.967  19.507  0.00  0.00    +0.000 A 
ATOM      5  C   UNL     1       0.326   9.598  20.502  0.00  0.00    +0.000 A 
ATOM      6  C   UNL     1       0.300   8.218  20.954  0.00  0.00    +0.000 A 
ATOM      7  O   UNL     1      -0.502   7.884  21.821  0.00  0.00    +0.000 OA
ATOM      8  N   UNL     1       1.217   7.382  20.360  0.00  0.00    +0.000 N 
ATOM      9  C   UNL     1       1.248   6.024  20.851  0.00  0.00    +0.000 C 
ATOM     10  C   UNL     1       2.559   5.333  20.544  0.00  0.00    +0.000 C 
ATOM     11  C   UNL     1       2.856   5.451  19.049  0.00  0.00    +0.000 C 
ENDROOT
BRANCH   4  12
ATOM     12  N   UNL     1       1.111  11.295  19.106  0.00  0.00    +0.000 N 
ATOM     13  C   UNL     1      -0.065  12.030  18.590  0.00  0.00    +0.000 C 
ATOM     14  C   UNL     1       0.481  13.478  18.543  0.00  0.00    +0.000 C 
ATOM     15  C   UNL     1       1.936  13.250  18.174  0.00  0.00    +0.000 C 
ATOM     16  C   UNL     1       2.147  12.309  19.360  0.00  0.00    +0.000 C 
ATOM     17  C   UNL     1       1.667  13.225  20.497  0.00  0.00    +0.000 C 
ATOM     18  O   UNL     1       0.569  13.986  19.904  0.00  0.00    +0.000 OA
ENDBRANCH   4  12
BRANCH  11  19
ATOM     19  C   UNL     1       1.886   4.565  18.213  0.00  0.00    +0.000 C 
ATOM     20  F   UNL     1       1.095   3.781  18.971  0.00  0.00    +0.000 F 
ATOM     21  F   UNL     1       1.097   5.332  17.423  0.00  0.00    +0.000 F 
ATOM     22  F   UNL     1       2.557   3.738  17.368  0.00  0.00    +0.000 F 
ENDBRANCH  11  19
BRANCH   1  23
ATOM     23  C   UNL     1       3.984   7.400  17.875  0.00  0.00    +0.000 C 
BRANCH  23  25
ATOM     24  O   UNL     1       4.743   6.353  15.813  0.00  0.00    +0.000 OA
ATOM     25  C   UNL     1       4.753   6.354  17.039  0.00  0.00    +0.000 C 
ATOM     26  N   UNL     1       5.430   5.373  17.770  0.00  0.00    +0.000 N 
ATOM     27  C   UNL     1       6.086   4.271  17.053  0.00  0.00    +0.000 C 
ATOM     28  C   UNL     1       7.601   4.493  17.019  0.00  0.00    +0.000 C 
ATOM     29  O   UNL     1       8.118   4.634  18.355  0.00  0.00    +0.000 OA
ATOM     30  C   UNL     1       7.530   5.769  19.006  0.00  0.00    +0.000 C 
ATOM     31  C   UNL     1       6.004   5.627  19.099  0.00  0.00    +0.000 C 
ENDBRANCH  23  25
ENDBRANCH   1  23
TORSDOF 4
ENDMDL
MODEL 2
REMARK VINA RESULT:      -7.4      1.066      1.526
REMARK  Name = 
REMARK  4 active torsions:
REMARK  status: ('A' for Active; 'I' for Inactive)
REMARK    1  A    between atoms: C_2  and  C_3
REMARK    2  A    between atoms: C_3  and  N_4
REMARK    3  A    between atoms: C_7  and  N_8
REMARK    4  A    between atoms: C_21  and  C_22
REMARK                            x       y       z     vdW  Elec       q    Type
REMARK                         _______ _______ _______ _____ _____    ______ ____
ROOT
ATOM      1  N   UNL     1       2.785   6.719  18.492  0.00  0.00    +0.000 N 
ATOM      2  C   UNL     1       2.002   7.650  19.169  0.00  0.00    +0.000 A 
ATOM      3  N   UNL     1       1.943   8.888  18.758  0.00  0.00    +0.000 NA
ATOM      4  C   UNL     1       1.193   9.821  19.439  0.00  0.00    +0.000 A 
ATOM      5  C   UNL     1       0.468   9.470  20.508  0.00  0.00    +0.000 A 
ATOM      6  C   UNL     1       0.469   8.094  20.975  0.00  0.00    +0.000 A 
ATOM      7  O   UNL     1      -0.254   7.777  21.914  0.00  0.00    +0.000 OA
ATOM      8  N   UNL     1       1.319   7.243  20.308  0.00  0.00    +0.000 N 
ATOM      9  C   UNL     1       1.380   5.889  20.808  0.00  0.00    +0.000 C 
ATOM     10  C   UNL     1       2.650   5.180  20.389  0.00  0.00    +0.000 C 
ATOM     11  C   UNL     1       2.811   5.281  18.872  0.00  0.00    +0.000 C 
ENDROOT
BRANCH   4  12
ATOM     12  N   UNL     1       1.140  11.145  19.030  0.00  0.00    +0.000 N 
ATOM     13  C   UNL     1      -0.069  11.884  18.601  0.00  0.00    +0.000 C 
ATOM     14  C   UNL     1       0.482  13.327  18.497  0.00  0.00    +0.000 C 
ATOM     15  C   UNL     1       1.901  13.086  18.017  0.00  0.00    +0.000 C 
ATOM     16  C   UNL     1       2.200  12.154  19.192  0.00  0.00    +0.000 C 
ATOM     17  C   UNL     1       1.816  13.083  20.354  0.00  0.00    +0.000 C 
ATOM     18  O   UNL     1       0.680  13.847  19.843  0.00  0.00    +0.000 OA
ENDBRANCH   4  12
BRANCH  11  19
ATOM     19  C   UNL     1       1.760   4.399  18.137  0.00  0.00    +0.000 C 
ATOM     20  F   UNL     1       0.974   3.697  18.976  0.00  0.00    +0.000 F 
ATOM     21  F   UNL     1       0.967   5.159  17.344  0.00  0.00    +0.000 F 
ATOM     22  F   UNL     1       2.347   3.495  17.310  0.00  0.00    +0.000 F 
ENDBRANCH  11  19
BRANCH   1  23
ATOM     23  C   UNL     1       3.848   7.207  17.580  0.00  0.00    +0.000 C 
BRANCH  23  25
ATOM     24  O   UNL     1       5.721   6.249  18.803  0.00  0.00    +0.000 OA
ATOM     25  C   UNL     1       5.230   6.532  17.717  0.00  0.00    +0.000 C 
ATOM     26  N   UNL     1       5.912   6.301  16.518  0.00  0.00    +0.000 N 
ATOM     27  C   UNL     1       7.282   5.772  16.565  0.00  0.00    +0.000 C 
ATOM     28  C   UNL     1       7.286   4.285  16.201  0.00  0.00    +0.000 C 
ATOM     29  O   UNL     1       6.687   4.083  14.907  0.00  0.00    +0.000 OA
ATOM     30  C   UNL     1       5.322   4.523  14.909  0.00  0.00    +0.000 C 
ATOM     31  C   UNL     1       5.220   6.017  15.252  0.00  0.00    +0.000 C 
ENDBRANCH  23  25
ENDBRANCH   1  23
TORSDOF 4
ENDMDL
MODEL 3
REMARK VINA RESULT:      -7.4      5.063      8.592
REMARK  Name = 
REMARK  4 active torsions:
REMARK  status: ('A' for Active; 'I' for Inactive)
REMARK    1  A    between atoms: C_2  and  C_3
REMARK    2  A    between atoms: C_3  and  N_4
REMARK    3  A    between atoms: C_7  and  N_8
REMARK    4  A    between atoms: C_21  and  C_22
REMARK                            x       y       z     vdW  Elec       q    Type
REMARK                         _______ _______ _______ _____ _____    ______ ____
ROOT
ATOM      1  N   UNL     1      -0.051  11.944  21.275  0.00  0.00    +0.000 N 
ATOM      2  C   UNL     1       0.872  12.183  20.261  0.00  0.00    +0.000 A 
ATOM      3  N   UNL     1       1.516  13.318  20.206  0.00  0.00    +0.000 NA
ATOM      4  C   UNL     1       2.409  13.572  19.190  0.00  0.00    +0.000 A 
ATOM      5  C   UNL     1       2.676  12.644  18.263  0.00  0.00    +0.000 A 
ATOM      6  C   UNL     1       2.016  11.351  18.310  0.00  0.00    +0.000 A 
ATOM      7  O   UNL     1       2.324  10.488  17.493  0.00  0.00    +0.000 OA
ATOM      8  N   UNL     1       1.063  11.207  19.292  0.00  0.00    +0.000 N 
ATOM      9  C   UNL     1       0.352   9.950  19.304  0.00  0.00    +0.000 C 
ATOM     10  C   UNL     1      -0.971  10.047  20.034  0.00  0.00    +0.000 C 
ATOM     11  C   UNL     1      -0.740  10.634  21.426  0.00  0.00    +0.000 C 
ENDROOT
BRANCH   4  12
ATOM     12  N   UNL     1       3.081  14.782  19.104  0.00  0.00    +0.000 N 
ATOM     13  C   UNL     1       4.305  15.054  18.316  0.00  0.00    +0.000 C 
ATOM     14  C   UNL     1       4.416  16.592  18.452  0.00  0.00    +0.000 C 
ATOM     15  C   UNL     1       3.891  16.819  19.857  0.00  0.00    +0.000 C 
ATOM     16  C   UNL     1       2.581  16.095  19.546  0.00  0.00    +0.000 C 
ATOM     17  C   UNL     1       2.141  16.892  18.308  0.00  0.00    +0.000 C 
ATOM     18  O   UNL     1       3.391  17.207  17.620  0.00  0.00    +0.000 OA
ENDBRANCH   4  12
BRANCH  11  19
ATOM     19  C   UNL     1      -0.001   9.619  22.348  0.00  0.00    +0.000 C 
ATOM     20  F   UNL     1       1.340   9.691  22.251  0.00  0.00    +0.000 F 
ATOM     21  F   UNL     1      -0.347   9.809  23.644  0.00  0.00    +0.000 F 
ATOM     22  F   UNL     1      -0.342   8.335  22.062  0.00  0.00    +0.000 F 
ENDBRANCH  11  19
BRANCH   1  23
ATOM     23  C   UNL     1      -0.597  13.098  22.031  0.00  0.00    +0.000 C 
BRANCH  23  25
ATOM     24  O   UNL     1      -2.323  13.658  20.409  0.00  0.00    +0.000 OA
ATOM     25  C   UNL     1      -1.984  13.613  21.586  0.00  0.00    +0.000 C 
ATOM     26  N   UNL     1      -2.818  14.069  22.611  0.00  0.00    +0.000 N 
ATOM     27  C   UNL     1      -4.106  14.686  22.264  0.00  0.00    +0.000 C 
ATOM     28  C   UNL     1      -5.249  13.705  22.534  0.00  0.00    +0.000 C 
ATOM     29  O   UNL     1      -5.225  13.270  23.907  0.00  0.00    +0.000 OA
ATOM     30  C   UNL     1      -3.996  12.591  24.199  0.00  0.00    +0.000 C 
ATOM     31  C   UNL     1      -2.786  13.509  23.970  0.00  0.00    +0.000 C 
ENDBRANCH  23  25
ENDBRANCH   1  23
TORSDOF 4
ENDMDL
MODEL 4
REMARK VINA RESULT:      -7.3      5.628      8.777
REMARK  Name = 
REMARK  4 active torsions:
REMARK  status: ('A' for Active; 'I' for Inactive)
REMARK    1  A    between atoms: C_2  and  C_3
REMARK    2  A    between atoms: C_3  and  N_4
REMARK    3  A    between atoms: C_7  and  N_8
REMARK    4  A    between atoms: C_21  and  C_22
REMARK                            x       y       z     vdW  Elec       q    Type
REMARK                         _______ _______ _______ _____ _____    ______ ____
ROOT
ATOM      1  N   UNL     1      -0.364  12.112  20.009  0.00  0.00    +0.000 N 
ATOM      2  C   UNL     1      -1.443  11.666  19.250  0.00  0.00    +0.000 A 
ATOM      3  N   UNL     1      -2.632  12.174  19.428  0.00  0.00    +0.000 NA
ATOM      4  C   UNL     1      -3.709  11.718  18.700  0.00  0.00    +0.000 A 
ATOM      5  C   UNL     1      -3.552  10.779  17.760  0.00  0.00    +0.000 A 
ATOM      6  C   UNL     1      -2.239  10.216  17.498  0.00  0.00    +0.000 A 
ATOM      7  O   UNL     1      -2.103   9.406  16.586  0.00  0.00    +0.000 OA
ATOM      8  N   UNL     1      -1.233  10.646  18.331  0.00  0.00    +0.000 N 
ATOM      9  C   UNL     1       0.063  10.041  18.124  0.00  0.00    +0.000 C 
ATOM     10  C   UNL     1       0.952  10.161  19.343  0.00  0.00    +0.000 C 
ATOM     11  C   UNL     1       1.022  11.624  19.778  0.00  0.00    +0.000 C 
ENDROOT
BRANCH   4  12
ATOM     12  N   UNL     1      -4.983  12.230  18.895  0.00  0.00    +0.000 N 
ATOM     13  C   UNL     1      -5.355  13.336  19.807  0.00  0.00    +0.000 C 
ATOM     14  C   UNL     1      -6.832  13.572  19.407  0.00  0.00    +0.000 C 
ATOM     15  C   UNL     1      -7.293  12.165  19.073  0.00  0.00    +0.000 C 
ATOM     16  C   UNL     1      -6.166  11.977  18.057  0.00  0.00    +0.000 C 
ATOM     17  C   UNL     1      -6.414  13.210  17.175  0.00  0.00    +0.000 C 
ATOM     18  O   UNL     1      -6.862  14.238  18.112  0.00  0.00    +0.000 OA
ENDBRANCH   4  12
BRANCH  11  19
ATOM     19  C   UNL     1       1.844  12.473  18.764  0.00  0.00    +0.000 C 
ATOM     20  F   UNL     1       2.599  11.726  17.935  0.00  0.00    +0.000 F 
ATOM     21  F   UNL     1       1.027  13.250  18.015  0.00  0.00    +0.000 F 
ATOM     22  F   UNL     1       2.691  13.330  19.392  0.00  0.00    +0.000 F 
ENDBRANCH  11  19
BRANCH   1  23
ATOM     23  C   UNL     1      -0.633  12.845  21.270  0.00  0.00    +0.000 C 
BRANCH  23  25
ATOM     24  O   UNL     1       1.348  13.969  22.128  0.00  0.00    +0.000 OA
ATOM     25  C   UNL     1       0.268  14.066  21.557  0.00  0.00    +0.000 C 
ATOM     26  N   UNL     1      -0.247  15.305  21.164  0.00  0.00    +0.000 N 
ATOM     27  C   UNL     1       0.490  16.529  21.507  0.00  0.00    +0.000 C 
ATOM     28  C   UNL     1       1.216  17.070  20.272  0.00  0.00    +0.000 C 
ATOM     29  O   UNL     1       0.282  17.301  19.201  0.00  0.00    +0.000 OA
ATOM     30  C   UNL     1      -0.362  16.076  18.821  0.00  0.00    +0.000 C 
ATOM     31  C   UNL     1      -1.132  15.464  20.000  0.00  0.00    +0.000 C 
ENDBRANCH  23  25
ENDBRANCH   1  23
TORSDOF 4
ENDMDL
MODEL 5
REMARK VINA RESULT:      -7.3      5.667      8.826
REMARK  Name = 
REMARK  4 active torsions:
REMARK  status: ('A' for Active; 'I' for Inactive)
REMARK    1  A    between atoms: C_2  and  C_3
REMARK    2  A    between atoms: C_3  and  N_4
REMARK    3  A    between atoms: C_7  and  N_8
REMARK    4  A    between atoms: C_21  and  C_22
REMARK                            x       y       z     vdW  Elec       q    Type
REMARK                         _______ _______ _______ _____ _____    ______ ____
ROOT
ATOM      1  N   UNL     1      -0.466  12.166  20.034  0.00  0.00    +0.000 N 
ATOM      2  C   UNL     1      -1.512  11.697  19.244  0.00  0.00    +0.000 A 
ATOM      3  N   UNL     1      -2.716  12.184  19.382  0.00  0.00    +0.000 NA
ATOM      4  C   UNL     1      -3.760  11.706  18.622  0.00  0.00    +0.000 A 
ATOM      5  C   UNL     1      -3.557  10.766  17.693  0.00  0.00    +0.000 A 
ATOM      6  C   UNL     1      -2.226  10.225  17.474  0.00  0.00    +0.000 A 
ATOM      7  O   UNL     1      -2.047   9.414  16.571  0.00  0.00    +0.000 OA
ATOM      8  N   UNL     1      -1.255  10.677  18.337  0.00  0.00    +0.000 N 
ATOM      9  C   UNL     1       0.057  10.095  18.174  0.00  0.00    +0.000 C 
ATOM     10  C   UNL     1       0.905  10.236  19.420  0.00  0.00    +0.000 C 
ATOM     11  C   UNL     1       0.935  11.702  19.850  0.00  0.00    +0.000 C 
ENDROOT
BRANCH   4  12
ATOM     12  N   UNL     1      -5.049  12.196  18.775  0.00  0.00    +0.000 N 
ATOM     13  C   UNL     1      -6.258  11.724  18.063  0.00  0.00    +0.000 C 
ATOM     14  C   UNL     1      -7.371  12.490  18.820  0.00  0.00    +0.000 C 
ATOM     15  C   UNL     1      -6.680  13.800  19.148  0.00  0.00    +0.000 C 
ATOM     16  C   UNL     1      -5.527  13.081  19.850  0.00  0.00    +0.000 C 
ATOM     17  C   UNL     1      -6.330  12.240  20.855  0.00  0.00    +0.000 C 
ATOM     18  O   UNL     1      -7.547  11.879  20.130  0.00  0.00    +0.000 OA
ENDBRANCH   4  12
BRANCH  11  19
ATOM     19  C   UNL     1       1.774  12.561  18.859  0.00  0.00    +0.000 C 
ATOM     20  F   UNL     1       2.521  13.501  19.470  0.00  0.00    +0.000 F 
ATOM     21  F   UNL     1       2.595  11.776  18.120  0.00  0.00    +0.000 F 
ATOM     22  F   UNL     1       0.987  13.213  17.963  0.00  0.00    +0.000 F 
ENDBRANCH  11  19
BRANCH   1  23
ATOM     23  C   UNL     1      -0.788  12.899  21.283  0.00  0.00    +0.000 C 
BRANCH  23  25
ATOM     24  O   UNL     1       1.144  14.016  22.253  0.00  0.00    +0.000 OA
ATOM     25  C   UNL     1       0.105  14.116  21.611  0.00  0.00    +0.000 C 
ATOM     26  N   UNL     1      -0.370  15.354  21.167  0.00  0.00    +0.000 N 
ATOM     27  C   UNL     1       0.356  16.575  21.540  0.00  0.00    +0.000 C 
ATOM     28  C   UNL     1       1.167  17.091  20.349  0.00  0.00    +0.000 C 
ATOM     29  O   UNL     1       0.308  17.314  19.215  0.00  0.00    +0.000 OA
ATOM     30  C   UNL     1      -0.322  16.090  18.811  0.00  0.00    +0.000 C 
ATOM     31  C   UNL     1      -1.175  15.504  19.945  0.00  0.00    +0.000 C 
ENDBRANCH  23  25
ENDBRANCH   1  23
TORSDOF 4
ENDMDL
MODEL 6
REMARK VINA RESULT:      -7.3      5.599      9.097
REMARK  Name = 
REMARK  4 active torsions:
REMARK  status: ('A' for Active; 'I' for Inactive)
REMARK    1  A    between atoms: C_2  and  C_3
REMARK    2  A    between atoms: C_3  and  N_4
REMARK    3  A    between atoms: C_7  and  N_8
REMARK    4  A    between atoms: C_21  and  C_22
REMARK                            x       y       z     vdW  Elec       q    Type
REMARK                         _______ _______ _______ _____ _____    ______ ____
ROOT
ATOM      1  N   UNL     1      -0.543  11.885  20.002  0.00  0.00    +0.000 N 
ATOM      2  C   UNL     1      -1.589  11.516  19.159  0.00  0.00    +0.000 A 
ATOM      3  N   UNL     1      -2.778  12.033  19.316  0.00  0.00    +0.000 NA
ATOM      4  C   UNL     1      -3.823  11.652  18.505  0.00  0.00    +0.000 A 
ATOM      5  C   UNL     1      -3.634  10.782  17.506  0.00  0.00    +0.000 A 
ATOM      6  C   UNL     1      -2.318  10.214  17.267  0.00  0.00    +0.000 A 
ATOM      7  O   UNL     1      -2.149   9.471  16.305  0.00  0.00    +0.000 OA
ATOM      8  N   UNL     1      -1.349  10.563  18.179  0.00  0.00    +0.000 N 
ATOM      9  C   UNL     1      -0.054   9.950  17.991  0.00  0.00    +0.000 C 
ATOM     10  C   UNL     1       0.775   9.963  19.258  0.00  0.00    +0.000 C 
ATOM     11  C   UNL     1       0.845  11.389  19.804  0.00  0.00    +0.000 C 
ENDROOT
BRANCH   4  12
ATOM     12  N   UNL     1      -5.098  12.173  18.675  0.00  0.00    +0.000 N 
ATOM     13  C   UNL     1      -6.314  11.782  17.926  0.00  0.00    +0.000 C 
ATOM     14  C   UNL     1      -7.410  12.537  18.717  0.00  0.00    +0.000 C 
ATOM     15  C   UNL     1      -6.682  13.803  19.128  0.00  0.00    +0.000 C 
ATOM     16  C   UNL     1      -5.559  13.008  19.795  0.00  0.00    +0.000 C 
ATOM     17  C   UNL     1      -6.398  12.136  20.743  0.00  0.00    +0.000 C 
ATOM     18  O   UNL     1      -7.618  11.857  19.987  0.00  0.00    +0.000 OA
ENDBRANCH   4  12
BRANCH  11  19
ATOM     19  C   UNL     1       1.731  12.294  18.897  0.00  0.00    +0.000 C 
ATOM     20  F   UNL     1       2.512  13.142  19.593  0.00  0.00    +0.000 F 
ATOM     21  F   UNL     1       2.524  11.541  18.097  0.00  0.00    +0.000 F 
ATOM     22  F   UNL     1       0.983  13.057  18.058  0.00  0.00    +0.000 F 
ENDBRANCH  11  19
BRANCH   1  23
ATOM     23  C   UNL     1      -0.864  12.528  21.299  0.00  0.00    +0.000 C 
BRANCH  23  25
ATOM     24  O   UNL     1      -0.265  14.726  20.441  0.00  0.00    +0.000 OA
ATOM     25  C   UNL     1      -0.541  14.034  21.414  0.00  0.00    +0.000 C 
ATOM     26  N   UNL     1      -0.538  14.555  22.712  0.00  0.00    +0.000 N 
ATOM     27  C   UNL     1      -0.124  15.949  22.922  0.00  0.00    +0.000 C 
ATOM     28  C   UNL     1      -1.350  16.831  23.174  0.00  0.00    +0.000 C 
ATOM     29  O   UNL     1      -2.106  16.331  24.293  0.00  0.00    +0.000 OA
ATOM     30  C   UNL     1      -2.578  15.002  24.030  0.00  0.00    +0.000 C 
ATOM     31  C   UNL     1      -1.409  14.038  23.778  0.00  0.00    +0.000 C 
ENDBRANCH  23  25
ENDBRANCH   1  23
TORSDOF 4
ENDMDL
MODEL 7
REMARK VINA RESULT:      -7.3      5.613      9.166
REMARK  Name = 
REMARK  4 active torsions:
REMARK  status: ('A' for Active; 'I' for Inactive)
REMARK    1  A    between atoms: C_2  and  C_3
REMARK    2  A    between atoms: C_3  and  N_4
REMARK    3  A    between atoms: C_7  and  N_8
REMARK    4  A    between atoms: C_21  and  C_22
REMARK                            x       y       z     vdW  Elec       q    Type
REMARK                         _______ _______ _______ _____ _____    ______ ____
ROOT
ATOM      1  N   UNL     1      -0.397  12.258  19.975  0.00  0.00    +0.000 N 
ATOM      2  C   UNL     1      -1.436  11.750  19.199  0.00  0.00    +0.000 A 
ATOM      3  N   UNL     1      -2.633  12.267  19.276  0.00  0.00    +0.000 NA
ATOM      4  C   UNL     1      -3.671  11.751  18.533  0.00  0.00    +0.000 A 
ATOM      5  C   UNL     1      -3.467  10.741  17.679  0.00  0.00    +0.000 A 
ATOM      6  C   UNL     1      -2.142  10.164  17.529  0.00  0.00    +0.000 A 
ATOM      7  O   UNL     1      -1.960   9.285  16.691  0.00  0.00    +0.000 OA
ATOM      8  N   UNL     1      -1.179  10.662  18.376  0.00  0.00    +0.000 N 
ATOM      9  C   UNL     1       0.125  10.047  18.283  0.00  0.00    +0.000 C 
ATOM     10  C   UNL     1       0.951  10.265  19.532  0.00  0.00    +0.000 C 
ATOM     11  C   UNL     1       0.999  11.759  19.854  0.00  0.00    +0.000 C 
ENDROOT
BRANCH   4  12
ATOM     12  N   UNL     1      -4.953  12.272  18.622  0.00  0.00    +0.000 N 
ATOM     13  C   UNL     1      -6.064  12.039  17.672  0.00  0.00    +0.000 C 
ATOM     14  C   UNL     1      -7.248  12.688  18.429  0.00  0.00    +0.000 C 
ATOM     15  C   UNL     1      -6.571  13.852  19.128  0.00  0.00    +0.000 C 
ATOM     16  C   UNL     1      -5.550  12.931  19.795  0.00  0.00    +0.000 C 
ATOM     17  C   UNL     1      -6.510  11.942  20.475  0.00  0.00    +0.000 C 
ATOM     18  O   UNL     1      -7.624  11.820  19.537  0.00  0.00    +0.000 OA
ENDBRANCH   4  12
BRANCH  11  19
ATOM     19  C   UNL     1       1.873  12.528  18.819  0.00  0.00    +0.000 C 
ATOM     20  F   UNL     1       2.730  13.397  19.389  0.00  0.00    +0.000 F 
ATOM     21  F   UNL     1       2.584  11.664  18.056  0.00  0.00    +0.000 F 
ATOM     22  F   UNL     1       1.114  13.245  17.950  0.00  0.00    +0.000 F 
ENDBRANCH  11  19
BRANCH   1  23
ATOM     23  C   UNL     1      -0.729  13.087  21.159  0.00  0.00    +0.000 C 
BRANCH  23  25
ATOM     24  O   UNL     1      -1.284  11.416  22.838  0.00  0.00    +0.000 OA
ATOM     25  C   UNL     1      -1.623  12.424  22.229  0.00  0.00    +0.000 C 
ATOM     26  N   UNL     1      -2.871  13.021  22.432  0.00  0.00    +0.000 N 
ATOM     27  C   UNL     1      -3.830  12.384  23.345  0.00  0.00    +0.000 C 
ATOM     28  C   UNL     1      -3.878  13.144  24.673  0.00  0.00    +0.000 C 
ATOM     29  O   UNL     1      -4.204  14.529  24.448  0.00  0.00    +0.000 OA
ATOM     30  C   UNL     1      -3.207  15.155  23.629  0.00  0.00    +0.000 C 
ATOM     31  C   UNL     1      -3.098  14.464  22.261  0.00  0.00    +0.000 C 
ENDBRANCH  23  25
ENDBRANCH   1  23
TORSDOF 4
ENDMDL
MODEL 8
REMARK VINA RESULT:      -7.3      5.014      8.475
REMARK  Name = 
REMARK  4 active torsions:
REMARK  status: ('A' for Active; 'I' for Inactive)
REMARK    1  A    between atoms: C_2  and  C_3
REMARK    2  A    between atoms: C_3  and  N_4
REMARK    3  A    between atoms: C_7  and  N_8
REMARK    4  A    between atoms: C_21  and  C_22
REMARK                            x       y       z     vdW  Elec       q    Type
REMARK                         _______ _______ _______ _____ _____    ______ ____
ROOT
ATOM      1  N   UNL     1       0.017  11.672  21.477  0.00  0.00    +0.000 N 
ATOM      2  C   UNL     1       0.890  12.150  20.502  0.00  0.00    +0.000 A 
ATOM      3  N   UNL     1       1.392  13.352  20.596  0.00  0.00    +0.000 NA
ATOM      4  C   UNL     1       2.233  13.841  19.622  0.00  0.00    +0.000 A 
ATOM      5  C   UNL     1       2.594  13.080  18.583  0.00  0.00    +0.000 A 
ATOM      6  C   UNL     1       2.094  11.722  18.460  0.00  0.00    +0.000 A 
ATOM      7  O   UNL     1       2.490  11.016  17.537  0.00  0.00    +0.000 OA
ATOM      8  N   UNL     1       1.181  11.338  19.414  0.00  0.00    +0.000 N 
ATOM      9  C   UNL     1       0.625  10.013  19.263  0.00  0.00    +0.000 C 
ATOM     10  C   UNL     1      -0.688   9.855  19.998  0.00  0.00    +0.000 C 
ATOM     11  C   UNL     1      -0.507  10.281  21.455  0.00  0.00    +0.000 C 
ENDROOT
BRANCH   4  12
ATOM     12  N   UNL     1       2.754  15.125  19.695  0.00  0.00    +0.000 N 
ATOM     13  C   UNL     1       4.121  15.494  20.127  0.00  0.00    +0.000 C 
ATOM     14  C   UNL     1       4.150  17.002  19.776  0.00  0.00    +0.000 C 
ATOM     15  C   UNL     1       2.716  17.414  20.053  0.00  0.00    +0.000 C 
ATOM     16  C   UNL     1       2.167  16.342  19.112  0.00  0.00    +0.000 C 
ATOM     17  C   UNL     1       2.949  16.701  17.838  0.00  0.00    +0.000 C 
ATOM     18  O   UNL     1       4.253  17.141  18.330  0.00  0.00    +0.000 OA
ENDBRANCH   4  12
BRANCH  11  19
ATOM     19  C   UNL     1       0.361   9.251  22.237  0.00  0.00    +0.000 C 
ATOM     20  F   UNL     1       0.026   9.151  23.538  0.00  0.00    +0.000 F 
ATOM     21  F   UNL     1       0.268   8.021  21.676  0.00  0.00    +0.000 F 
ATOM     22  F   UNL     1       1.681   9.571  22.200  0.00  0.00    +0.000 F 
ENDBRANCH  11  19
BRANCH   1  23
ATOM     23  C   UNL     1      -0.651  12.644  22.376  0.00  0.00    +0.000 C 
BRANCH  23  25
ATOM     24  O   UNL     1      -2.669  11.893  23.509  0.00  0.00    +0.000 OA
ATOM     25  C   UNL     1      -2.176  12.477  22.552  0.00  0.00    +0.000 C 
ATOM     26  N   UNL     1      -2.965  12.998  21.521  0.00  0.00    +0.000 N 
ATOM     27  C   UNL     1      -4.417  12.777  21.550  0.00  0.00    +0.000 C 
ATOM     28  C   UNL     1      -5.137  14.055  21.988  0.00  0.00    +0.000 C 
ATOM     29  O   UNL     1      -4.787  15.150  21.120  0.00  0.00    +0.000 OA
ATOM     30  C   UNL     1      -3.378  15.408  21.176  0.00  0.00    +0.000 C 
ATOM     31  C   UNL     1      -2.570  14.177  20.737  0.00  0.00    +0.000 C 
ENDBRANCH  23  25
ENDBRANCH   1  23
TORSDOF 4
ENDMDL
MODEL 9
REMARK VINA RESULT:      -7.3      7.577      8.738
REMARK  Name = 
REMARK  4 active torsions:
REMARK  status: ('A' for Active; 'I' for Inactive)
REMARK    1  A    between atoms: C_2  and  C_3
REMARK    2  A    between atoms: C_3  and  N_4
REMARK    3  A    between atoms: C_7  and  N_8
REMARK    4  A    between atoms: C_21  and  C_22
REMARK                            x       y       z     vdW  Elec       q    Type
REMARK                         _______ _______ _______ _____ _____    ______ ____
ROOT
ATOM      1  N   UNL     1       8.103  14.636  21.021  0.00  0.00    +0.000 N 
ATOM      2  C   UNL     1       6.774  14.792  21.407  0.00  0.00    +0.000 A 
ATOM      3  N   UNL     1       5.873  15.167  20.539  0.00  0.00    +0.000 NA
ATOM      4  C   UNL     1       4.562  15.350  20.919  0.00  0.00    +0.000 A 
ATOM      5  C   UNL     1       4.172  15.100  22.175  0.00  0.00    +0.000 A 
ATOM      6  C   UNL     1       5.132  14.639  23.163  0.00  0.00    +0.000 A 
ATOM      7  O   UNL     1       4.743  14.350  24.291  0.00  0.00    +0.000 OA
ATOM      8  N   UNL     1       6.438  14.578  22.737  0.00  0.00    +0.000 N 
ATOM      9  C   UNL     1       7.411  14.187  23.730  0.00  0.00    +0.000 C 
ATOM     10  C   UNL     1       8.813  14.621  23.362  0.00  0.00    +0.000 C 
ATOM     11  C   UNL     1       9.143  14.127  21.953  0.00  0.00    +0.000 C 
ENDROOT
BRANCH   4  12
ATOM     12  N   UNL     1       3.599  15.772  20.015  0.00  0.00    +0.000 N 
ATOM     13  C   UNL     1       2.999  17.123  19.938  0.00  0.00    +0.000 C 
ATOM     14  C   UNL     1       2.192  17.019  18.621  0.00  0.00    +0.000 C 
ATOM     15  C   UNL     1       1.740  15.570  18.645  0.00  0.00    +0.000 C 
ATOM     16  C   UNL     1       3.176  15.067  18.794  0.00  0.00    +0.000 C 
ATOM     17  C   UNL     1       3.814  15.763  17.582  0.00  0.00    +0.000 C 
ATOM     18  O   UNL     1       3.123  17.049  17.502  0.00  0.00    +0.000 OA
ENDBRANCH   4  12
BRANCH  11  19
ATOM     19  C   UNL     1       9.329  12.581  21.931  0.00  0.00    +0.000 C 
ATOM     20  F   UNL     1      10.451  12.189  21.296  0.00  0.00    +0.000 F 
ATOM     21  F   UNL     1       9.355  12.083  23.191  0.00  0.00    +0.000 F 
ATOM     22  F   UNL     1       8.294  11.955  21.312  0.00  0.00    +0.000 F 
ENDBRANCH  11  19
BRANCH   1  23
ATOM     23  C   UNL     1       8.562  15.277  19.764  0.00  0.00    +0.000 C 
BRANCH  23  25
ATOM     24  O   UNL     1      10.995  15.231  19.713  0.00  0.00    +0.000 OA
ATOM     25  C   UNL     1       9.941  14.830  19.232  0.00  0.00    +0.000 C 
ATOM     26  N   UNL     1       9.915  13.968  18.132  0.00  0.00    +0.000 N 
ATOM     27  C   UNL     1      11.181  13.590  17.489  0.00  0.00    +0.000 C 
ATOM     28  C   UNL     1      11.569  12.163  17.887  0.00  0.00    +0.000 C 
ATOM     29  O   UNL     1      10.512  11.244  17.551  0.00  0.00    +0.000 OA
ATOM     30  C   UNL     1       9.310  11.577  18.259  0.00  0.00    +0.000 C 
ATOM     31  C   UNL     1       8.835  12.996  17.909  0.00  0.00    +0.000 C 
ENDBRANCH  23  25
ENDBRANCH   1  23
TORSDOF 4
ENDMDL
