MODEL 1
REMARK VINA RESULT:      -7.6      0.000      0.000
REMARK  Name = 
REMARK  4 active torsions:
REMARK  status: ('A' for Active; 'I' for Inactive)
REMARK    1  A    between atoms: C_1  and  C_2
REMARK    2  A    between atoms: C_4  and  C_5
REMARK    3  A    between atoms: C_4  and  C_6
REMARK    4  A    between atoms: N_10  and  C_11
REMARK                            x       y       z     vdW  Elec       q    Type
REMARK                         _______ _______ _______ _____ _____    ______ ____
ROOT
ATOM      1  C   UNL     1      -0.516  12.731  18.466  0.00  0.00    +0.000 C 
ATOM      2  C   UNL     1       0.586  12.231  19.412  0.00  0.00    +0.000 C 
ATOM      3  C   UNL     1       1.584  11.334  18.713  0.00  0.00    +0.000 C 
ATOM      4  C   UNL     1       1.186   9.838  18.664  0.00  0.00    +0.000 C 
ATOM      5  C   UNL     1      -0.167   9.552  17.983  0.00  0.00    +0.000 C 
ATOM      6  C   UNL     1       2.254   9.260  17.696  0.00  0.00    +0.000 C 
ATOM      7  N   UNL     1       1.117   9.318  20.104  0.00  0.00    +0.000 N 
ATOM      8  C   UNL     1       1.507   8.036  20.578  0.00  0.00    +0.000 C 
ATOM      9  O   UNL     1       1.415   7.633  21.737  0.00  0.00    +0.000 OA
ATOM     10  N   UNL     1       2.050   7.179  19.650  0.00  0.00    +0.000 N 
ATOM     11  C   UNL     1       0.335  10.214  21.001  0.00  0.00    +0.000 A 
ATOM     12  C   UNL     1      -0.230   9.770  22.217  0.00  0.00    +0.000 A 
ATOM     13  C   UNL     1      -0.969  10.604  23.067  0.00  0.00    +0.000 A 
ATOM     14  C   UNL     1      -1.186  11.932  22.733  0.00  0.00    +0.000 A 
ATOM     15  C   UNL     1      -0.670  12.404  21.539  0.00  0.00    +0.000 A 
ATOM     16  C   UNL     1       0.069  11.569  20.665  0.00  0.00    +0.000 A 
ATOM     17  H   UNL     1       2.673   7.643  19.027  0.00  0.00    +0.000 HD
ENDROOT
BRANCH  10  18
ATOM     18  C   UNL     1       2.552   5.844  19.994  0.00  0.00    +0.000 C 
ATOM     19  C   UNL     1       1.666   4.762  19.355  0.00  0.00    +0.000 C 
ATOM     20  C   UNL     1       1.787   4.706  17.830  0.00  0.00    +0.000 C 
ATOM     21  C   UNL     1       3.235   4.619  17.356  0.00  0.00    +0.000 C 
ATOM     22  C   UNL     1       4.125   5.678  18.000  0.00  0.00    +0.000 C 
ATOM     23  C   UNL     1       4.007   5.651  19.526  0.00  0.00    +0.000 C 
ENDBRANCH  10  18
TORSDOF 1
ENDMDL
MODEL 2
REMARK VINA RESULT:      -6.7      2.191      7.289
REMARK  Name = 
REMARK  4 active torsions:
REMARK  status: ('A' for Active; 'I' for Inactive)
REMARK    1  A    between atoms: C_1  and  C_2
REMARK    2  A    between atoms: C_4  and  C_5
REMARK    3  A    between atoms: C_4  and  C_6
REMARK    4  A    between atoms: N_10  and  C_11
REMARK                            x       y       z     vdW  Elec       q    Type
REMARK                         _______ _______ _______ _____ _____    ______ ____
ROOT
ATOM      1  C   UNL     1       3.698   2.197  18.104  0.00  0.00    +0.000 C 
ATOM      2  C   UNL     1       4.349   3.483  18.635  0.00  0.00    +0.000 C 
ATOM      3  C   UNL     1       3.595   4.069  19.809  0.00  0.00    +0.000 C 
ATOM      4  C   UNL     1       2.436   5.021  19.425  0.00  0.00    +0.000 C 
ATOM      5  C   UNL     1       1.357   4.391  18.521  0.00  0.00    +0.000 C 
ATOM      6  C   UNL     1       1.737   5.236  20.795  0.00  0.00    +0.000 C 
ATOM      7  N   UNL     1       3.035   6.225  18.689  0.00  0.00    +0.000 N 
ATOM      8  C   UNL     1       2.620   7.581  18.775  0.00  0.00    +0.000 C 
ATOM      9  O   UNL     1       3.099   8.526  18.150  0.00  0.00    +0.000 OA
ATOM     10  N   UNL     1       1.595   7.854  19.649  0.00  0.00    +0.000 N 
ATOM     11  C   UNL     1       3.988   5.825  17.616  0.00  0.00    +0.000 A 
ATOM     12  C   UNL     1       4.330   6.679  16.544  0.00  0.00    +0.000 A 
ATOM     13  C   UNL     1       5.224   6.313  15.530  0.00  0.00    +0.000 A 
ATOM     14  C   UNL     1       5.819   5.061  15.537  0.00  0.00    +0.000 A 
ATOM     15  C   UNL     1       5.496   4.183  16.556  0.00  0.00    +0.000 A 
ATOM     16  C   UNL     1       4.584   4.536  17.582  0.00  0.00    +0.000 A 
ATOM     17  H   UNL     1       1.684   7.351  20.504  0.00  0.00    +0.000 HD
ENDROOT
BRANCH  10  18
ATOM     18  C   UNL     1       1.092   9.212  19.892  0.00  0.00    +0.000 C 
ATOM     19  C   UNL     1      -0.419   9.176  20.176  0.00  0.00    +0.000 C 
ATOM     20  C   UNL     1      -0.765   8.522  21.516  0.00  0.00    +0.000 C 
ATOM     21  C   UNL     1       0.027   9.110  22.681  0.00  0.00    +0.000 C 
ATOM     22  C   UNL     1       1.526   9.165  22.399  0.00  0.00    +0.000 C 
ATOM     23  C   UNL     1       1.817   9.878  21.076  0.00  0.00    +0.000 C 
ENDBRANCH  10  18
TORSDOF 1
ENDMDL
MODEL 3
REMARK VINA RESULT:      -6.5      2.183      7.505
REMARK  Name = 
REMARK  4 active torsions:
REMARK  status: ('A' for Active; 'I' for Inactive)
REMARK    1  A    between atoms: C_1  and  C_2
REMARK    2  A    between atoms: C_4  and  C_5
REMARK    3  A    between atoms: C_4  and  C_6
REMARK    4  A    between atoms: N_10  and  C_11
REMARK                            x       y       z     vdW  Elec       q    Type
REMARK                         _______ _______ _______ _____ _____    ______ ____
ROOT
ATOM      1  C   UNL     1       3.282   2.089  17.896  0.00  0.00    +0.000 C 
ATOM      2  C   UNL     1       4.127   3.274  18.389  0.00  0.00    +0.000 C 
ATOM      3  C   UNL     1       3.431   4.070  19.471  0.00  0.00    +0.000 C 
ATOM      4  C   UNL     1       2.488   5.182  18.951  0.00  0.00    +0.000 C 
ATOM      5  C   UNL     1       1.363   4.691  18.018  0.00  0.00    +0.000 C 
ATOM      6  C   UNL     1       1.767   5.619  20.255  0.00  0.00    +0.000 C 
ATOM      7  N   UNL     1       3.336   6.202  18.183  0.00  0.00    +0.000 N 
ATOM      8  C   UNL     1       3.172   7.614  18.156  0.00  0.00    +0.000 C 
ATOM      9  O   UNL     1       3.850   8.409  17.507  0.00  0.00    +0.000 OA
ATOM     10  N   UNL     1       2.169   8.129  18.941  0.00  0.00    +0.000 N 
ATOM     11  C   UNL     1       4.257   5.561  17.204  0.00  0.00    +0.000 A 
ATOM     12  C   UNL     1       4.808   6.259  16.106  0.00  0.00    +0.000 A 
ATOM     13  C   UNL     1       5.674   5.666  15.179  0.00  0.00    +0.000 A 
ATOM     14  C   UNL     1       6.028   4.331  15.303  0.00  0.00    +0.000 A 
ATOM     15  C   UNL     1       5.495   3.602  16.352  0.00  0.00    +0.000 A 
ATOM     16  C   UNL     1       4.609   4.187  17.290  0.00  0.00    +0.000 A 
ATOM     17  H   UNL     1       2.117   7.683  19.830  0.00  0.00    +0.000 HD
ENDROOT
BRANCH  10  18
ATOM     18  C   UNL     1       1.909   9.569  19.064  0.00  0.00    +0.000 C 
ATOM     19  C   UNL     1       1.065  10.061  17.877  0.00  0.00    +0.000 C 
ATOM     20  C   UNL     1      -0.370   9.531  17.897  0.00  0.00    +0.000 C 
ATOM     21  C   UNL     1      -1.066   9.764  19.236  0.00  0.00    +0.000 C 
ATOM     22  C   UNL     1      -0.227   9.294  20.420  0.00  0.00    +0.000 C 
ATOM     23  C   UNL     1       1.180   9.899  20.379  0.00  0.00    +0.000 C 
ENDBRANCH  10  18
TORSDOF 1
ENDMDL
MODEL 4
REMARK VINA RESULT:      -6.4      1.969      7.342
REMARK  Name = 
REMARK  4 active torsions:
REMARK  status: ('A' for Active; 'I' for Inactive)
REMARK    1  A    between atoms: C_1  and  C_2
REMARK    2  A    between atoms: C_4  and  C_5
REMARK    3  A    between atoms: C_4  and  C_6
REMARK    4  A    between atoms: N_10  and  C_11
REMARK                            x       y       z     vdW  Elec       q    Type
REMARK                         _______ _______ _______ _____ _____    ______ ____
ROOT
ATOM      1  C   UNL     1       3.739   2.653  19.070  0.00  0.00    +0.000 C 
ATOM      2  C   UNL     1       4.367   4.044  19.247  0.00  0.00    +0.000 C 
ATOM      3  C   UNL     1       3.491   4.974  20.057  0.00  0.00    +0.000 C 
ATOM      4  C   UNL     1       2.431   5.747  19.233  0.00  0.00    +0.000 C 
ATOM      5  C   UNL     1       1.456   4.856  18.438  0.00  0.00    +0.000 C 
ATOM      6  C   UNL     1       1.568   6.390  20.353  0.00  0.00    +0.000 C 
ATOM      7  N   UNL     1       3.171   6.652  18.241  0.00  0.00    +0.000 N 
ATOM      8  C   UNL     1       2.804   7.962  17.830  0.00  0.00    +0.000 C 
ATOM      9  O   UNL     1       3.400   8.657  17.009  0.00  0.00    +0.000 OA
ATOM     10  N   UNL     1       1.686   8.499  18.422  0.00  0.00    +0.000 N 
ATOM     11  C   UNL     1       4.240   5.931  17.494  0.00  0.00    +0.000 A 
ATOM     12  C   UNL     1       4.755   6.396  16.263  0.00  0.00    +0.000 A 
ATOM     13  C   UNL     1       5.759   5.726  15.552  0.00  0.00    +0.000 A 
ATOM     14  C   UNL     1       6.295   4.544  16.041  0.00  0.00    +0.000 A 
ATOM     15  C   UNL     1       5.805   4.040  17.232  0.00  0.00    +0.000 A 
ATOM     16  C   UNL     1       4.782   4.702  17.956  0.00  0.00    +0.000 A 
ATOM     17  H   UNL     1       1.641   8.298  19.396  0.00  0.00    +0.000 HD
ENDROOT
BRANCH  10  18
ATOM     18  C   UNL     1       1.211   9.860  18.146  0.00  0.00    +0.000 C 
ATOM     19  C   UNL     1      -0.323   9.880  18.050  0.00  0.00    +0.000 C 
ATOM     20  C   UNL     1      -1.014   9.625  19.392  0.00  0.00    +0.000 C 
ATOM     21  C   UNL     1      -0.494  10.532  20.504  0.00  0.00    +0.000 C 
ATOM     22  C   UNL     1       1.029  10.532  20.594  0.00  0.00    +0.000 C 
ATOM     23  C   UNL     1       1.666  10.847  19.238  0.00  0.00    +0.000 C 
ENDBRANCH  10  18
TORSDOF 1
ENDMDL
MODEL 5
REMARK VINA RESULT:      -6.3      5.528      7.977
REMARK  Name = 
REMARK  4 active torsions:
REMARK  status: ('A' for Active; 'I' for Inactive)
REMARK    1  A    between atoms: C_1  and  C_2
REMARK    2  A    between atoms: C_4  and  C_5
REMARK    3  A    between atoms: C_4  and  C_6
REMARK    4  A    between atoms: N_10  and  C_11
REMARK                            x       y       z     vdW  Elec       q    Type
REMARK                         _______ _______ _______ _____ _____    ______ ____
ROOT
ATOM      1  C   UNL     1       7.582   7.433  17.220  0.00  0.00    +0.000 C 
ATOM      2  C   UNL     1       6.219   7.067  16.611  0.00  0.00    +0.000 C 
ATOM      3  C   UNL     1       5.121   7.002  17.650  0.00  0.00    +0.000 C 
ATOM      4  C   UNL     1       4.979   5.632  18.357  0.00  0.00    +0.000 C 
ATOM      5  C   UNL     1       6.251   5.143  19.077  0.00  0.00    +0.000 C 
ATOM      6  C   UNL     1       3.976   5.967  19.494  0.00  0.00    +0.000 C 
ATOM      7  N   UNL     1       4.596   4.590  17.300  0.00  0.00    +0.000 N 
ATOM      8  C   UNL     1       3.707   3.492  17.454  0.00  0.00    +0.000 C 
ATOM      9  O   UNL     1       3.439   2.652  16.596  0.00  0.00    +0.000 OA
ATOM     10  N   UNL     1       3.083   3.375  18.673  0.00  0.00    +0.000 N 
ATOM     11  C   UNL     1       5.460   4.658  16.088  0.00  0.00    +0.000 A 
ATOM     12  C   UNL     1       5.601   3.576  15.191  0.00  0.00    +0.000 A 
ATOM     13  C   UNL     1       6.411   3.629  14.050  0.00  0.00    +0.000 A 
ATOM     14  C   UNL     1       7.132   4.776  13.753  0.00  0.00    +0.000 A 
ATOM     15  C   UNL     1       7.041   5.853  14.616  0.00  0.00    +0.000 A 
ATOM     16  C   UNL     1       6.234   5.809  15.780  0.00  0.00    +0.000 A 
ATOM     17  H   UNL     1       2.785   4.255  19.031  0.00  0.00    +0.000 HD
ENDROOT
BRANCH  10  18
ATOM     18  C   UNL     1       2.097   2.330  18.969  0.00  0.00    +0.000 C 
ATOM     19  C   UNL     1       2.547   1.500  20.182  0.00  0.00    +0.000 C 
ATOM     20  C   UNL     1       2.505   2.283  21.497  0.00  0.00    +0.000 C 
ATOM     21  C   UNL     1       1.162   2.967  21.733  0.00  0.00    +0.000 C 
ATOM     22  C   UNL     1       0.699   3.778  20.526  0.00  0.00    +0.000 C 
ATOM     23  C   UNL     1       0.707   2.931  19.251  0.00  0.00    +0.000 C 
ENDBRANCH  10  18
TORSDOF 1
ENDMDL
MODEL 6
REMARK VINA RESULT:      -6.2      8.690     10.605
REMARK  Name = 
REMARK  4 active torsions:
REMARK  status: ('A' for Active; 'I' for Inactive)
REMARK    1  A    between atoms: C_1  and  C_2
REMARK    2  A    between atoms: C_4  and  C_5
REMARK    3  A    between atoms: C_4  and  C_6
REMARK    4  A    between atoms: N_10  and  C_11
REMARK                            x       y       z     vdW  Elec       q    Type
REMARK                         _______ _______ _______ _____ _____    ______ ____
ROOT
ATOM      1  C   UNL     1      10.092  16.651  18.046  0.00  0.00    +0.000 C 
ATOM      2  C   UNL     1       9.266  15.355  18.035  0.00  0.00    +0.000 C 
ATOM      3  C   UNL     1       8.160  15.367  19.067  0.00  0.00    +0.000 C 
ATOM      4  C   UNL     1       8.582  14.882  20.475  0.00  0.00    +0.000 C 
ATOM      5  C   UNL     1       9.741  15.675  21.110  0.00  0.00    +0.000 C 
ATOM      6  C   UNL     1       7.332  15.247  21.322  0.00  0.00    +0.000 C 
ATOM      7  N   UNL     1       9.011  13.415  20.361  0.00  0.00    +0.000 N 
ATOM      8  C   UNL     1       8.788  12.376  21.305  0.00  0.00    +0.000 C 
ATOM      9  O   UNL     1       9.169  11.211  21.203  0.00  0.00    +0.000 OA
ATOM     10  N   UNL     1       8.067  12.711  22.426  0.00  0.00    +0.000 N 
ATOM     11  C   UNL     1       9.957  13.179  19.235  0.00  0.00    +0.000 A 
ATOM     12  C   UNL     1      10.811  12.055  19.179  0.00  0.00    +0.000 A 
ATOM     13  C   UNL     1      11.704  11.825  18.125  0.00  0.00    +0.000 A 
ATOM     14  C   UNL     1      11.791  12.720  17.070  0.00  0.00    +0.000 A 
ATOM     15  C   UNL     1      10.989  13.848  17.094  0.00  0.00    +0.000 A 
ATOM     16  C   UNL     1      10.089  14.099  18.159  0.00  0.00    +0.000 A 
ATOM     17  H   UNL     1       7.298  13.307  22.216  0.00  0.00    +0.000 HD
ENDROOT
BRANCH  10  18
ATOM     18  C   UNL     1       7.706  11.738  23.464  0.00  0.00    +0.000 C 
ATOM     19  C   UNL     1       8.557  11.963  24.724  0.00  0.00    +0.000 C 
ATOM     20  C   UNL     1       8.221  13.267  25.454  0.00  0.00    +0.000 C 
ATOM     21  C   UNL     1       6.728  13.418  25.732  0.00  0.00    +0.000 C 
ATOM     22  C   UNL     1       5.875  13.178  24.490  0.00  0.00    +0.000 C 
ATOM     23  C   UNL     1       6.214  11.837  23.834  0.00  0.00    +0.000 C 
ENDBRANCH  10  18
TORSDOF 1
ENDMDL
MODEL 7
REMARK VINA RESULT:      -6.1      1.459      3.326
REMARK  Name = 
REMARK  4 active torsions:
REMARK  status: ('A' for Active; 'I' for Inactive)
REMARK    1  A    between atoms: C_1  and  C_2
REMARK    2  A    between atoms: C_4  and  C_5
REMARK    3  A    between atoms: C_4  and  C_6
REMARK    4  A    between atoms: N_10  and  C_11
REMARK                            x       y       z     vdW  Elec       q    Type
REMARK                         _______ _______ _______ _____ _____    ______ ____
ROOT
ATOM      1  C   UNL     1      -0.588  11.810  22.183  0.00  0.00    +0.000 C 
ATOM      2  C   UNL     1      -0.720  11.156  20.799  0.00  0.00    +0.000 C 
ATOM      3  C   UNL     1      -0.779   9.646  20.876  0.00  0.00    +0.000 C 
ATOM      4  C   UNL     1       0.601   8.944  20.886  0.00  0.00    +0.000 C 
ATOM      5  C   UNL     1       1.537   9.376  22.032  0.00  0.00    +0.000 C 
ATOM      6  C   UNL     1       0.207   7.479  21.217  0.00  0.00    +0.000 C 
ATOM      7  N   UNL     1       1.299   9.253  19.556  0.00  0.00    +0.000 N 
ATOM      8  C   UNL     1       2.121   8.381  18.791  0.00  0.00    +0.000 C 
ATOM      9  O   UNL     1       2.694   8.663  17.740  0.00  0.00    +0.000 OA
ATOM     10  N   UNL     1       2.273   7.103  19.273  0.00  0.00    +0.000 N 
ATOM     11  C   UNL     1       1.261  10.701  19.211  0.00  0.00    +0.000 A 
ATOM     12  C   UNL     1       2.168  11.292  18.303  0.00  0.00    +0.000 A 
ATOM     13  C   UNL     1       2.141  12.653  17.972  0.00  0.00    +0.000 A 
ATOM     14  C   UNL     1       1.201  13.497  18.545  0.00  0.00    +0.000 A 
ATOM     15  C   UNL     1       0.307  12.965  19.457  0.00  0.00    +0.000 A 
ATOM     16  C   UNL     1       0.330  11.593  19.809  0.00  0.00    +0.000 A 
ATOM     17  H   UNL     1       1.421   6.729  19.628  0.00  0.00    +0.000 HD
ENDROOT
BRANCH  10  18
ATOM     18  C   UNL     1       3.044   6.070  18.570  0.00  0.00    +0.000 C 
ATOM     19  C   UNL     1       3.937   5.306  19.560  0.00  0.00    +0.000 C 
ATOM     20  C   UNL     1       3.146   4.429  20.533  0.00  0.00    +0.000 C 
ATOM     21  C   UNL     1       2.153   3.511  19.825  0.00  0.00    +0.000 C 
ATOM     22  C   UNL     1       1.274   4.259  18.827  0.00  0.00    +0.000 C 
ATOM     23  C   UNL     1       2.120   5.074  17.844  0.00  0.00    +0.000 C 
ENDBRANCH  10  18
TORSDOF 1
ENDMDL
MODEL 8
REMARK VINA RESULT:      -6.0      1.519      3.379
REMARK  Name = 
REMARK  4 active torsions:
REMARK  status: ('A' for Active; 'I' for Inactive)
REMARK    1  A    between atoms: C_1  and  C_2
REMARK    2  A    between atoms: C_4  and  C_5
REMARK    3  A    between atoms: C_4  and  C_6
REMARK    4  A    between atoms: N_10  and  C_11
REMARK                            x       y       z     vdW  Elec       q    Type
REMARK                         _______ _______ _______ _____ _____    ______ ____
ROOT
ATOM      1  C   UNL     1      -0.407  10.325  22.917  0.00  0.00    +0.000 C 
ATOM      2  C   UNL     1      -0.691   9.852  21.483  0.00  0.00    +0.000 C 
ATOM      3  C   UNL     1      -0.380   8.384  21.287  0.00  0.00    +0.000 C 
ATOM      4  C   UNL     1       1.091   8.077  20.913  0.00  0.00    +0.000 C 
ATOM      5  C   UNL     1       2.134   8.583  21.929  0.00  0.00    +0.000 C 
ATOM      6  C   UNL     1       1.130   6.529  21.032  0.00  0.00    +0.000 C 
ATOM      7  N   UNL     1       1.382   8.735  19.559  0.00  0.00    +0.000 N 
ATOM      8  C   UNL     1       2.190   8.223  18.508  0.00  0.00    +0.000 C 
ATOM      9  O   UNL     1       2.432   8.785  17.441  0.00  0.00    +0.000 OA
ATOM     10  N   UNL     1       2.737   6.978  18.706  0.00  0.00    +0.000 N 
ATOM     11  C   UNL     1       0.934  10.155  19.503  0.00  0.00    +0.000 A 
ATOM     12  C   UNL     1       1.453  11.081  18.571  0.00  0.00    +0.000 A 
ATOM     13  C   UNL     1       1.039  12.418  18.510  0.00  0.00    +0.000 A 
ATOM     14  C   UNL     1       0.083  12.898  19.392  0.00  0.00    +0.000 A 
ATOM     15  C   UNL     1      -0.437  12.031  20.337  0.00  0.00    +0.000 A 
ATOM     16  C   UNL     1      -0.019  10.679  20.417  0.00  0.00    +0.000 A 
ATOM     17  H   UNL     1       2.096   6.348  19.135  0.00  0.00    +0.000 HD
ENDROOT
BRANCH  10  18
ATOM     18  C   UNL     1       3.547   6.290  17.694  0.00  0.00    +0.000 C 
ATOM     19  C   UNL     1       5.028   6.287  18.109  0.00  0.00    +0.000 C 
ATOM     20  C   UNL     1       5.312   5.400  19.323  0.00  0.00    +0.000 C 
ATOM     21  C   UNL     1       4.755   3.988  19.164  0.00  0.00    +0.000 C 
ATOM     22  C   UNL     1       3.290   3.982  18.735  0.00  0.00    +0.000 C 
ATOM     23  C   UNL     1       3.075   4.840  17.485  0.00  0.00    +0.000 C 
ENDBRANCH  10  18
TORSDOF 1
ENDMDL
MODEL 9
REMARK VINA RESULT:      -5.9      9.303     11.051
REMARK  Name = 
REMARK  4 active torsions:
REMARK  status: ('A' for Active; 'I' for Inactive)
REMARK    1  A    between atoms: C_1  and  C_2
REMARK    2  A    between atoms: C_4  and  C_5
REMARK    3  A    between atoms: C_4  and  C_6
REMARK    4  A    between atoms: N_10  and  C_11
REMARK                            x       y       z     vdW  Elec       q    Type
REMARK                         _______ _______ _______ _____ _____    ______ ____
ROOT
ATOM      1  C   UNL     1      11.499  12.919  16.847  0.00  0.00    +0.000 C 
ATOM      2  C   UNL     1      11.745  13.752  18.115  0.00  0.00    +0.000 C 
ATOM      3  C   UNL     1      11.501  12.961  19.382  0.00  0.00    +0.000 C 
ATOM      4  C   UNL     1      10.033  12.963  19.874  0.00  0.00    +0.000 C 
ATOM      5  C   UNL     1       9.010  12.425  18.854  0.00  0.00    +0.000 C 
ATOM      6  C   UNL     1      10.077  11.896  21.001  0.00  0.00    +0.000 C 
ATOM      7  N   UNL     1       9.651  14.407  20.220  0.00  0.00    +0.000 N 
ATOM      8  C   UNL     1       8.826  14.848  21.290  0.00  0.00    +0.000 C 
ATOM      9  O   UNL     1       8.511  16.012  21.529  0.00  0.00    +0.000 OA
ATOM     10  N   UNL     1       8.352  13.875  22.139  0.00  0.00    +0.000 N 
ATOM     11  C   UNL     1      10.024  15.372  19.148  0.00  0.00    +0.000 A 
ATOM     12  C   UNL     1       9.420  16.642  19.023  0.00  0.00    +0.000 A 
ATOM     13  C   UNL     1       9.763  17.557  18.019  0.00  0.00    +0.000 A 
ATOM     14  C   UNL     1      10.730  17.237  17.078  0.00  0.00    +0.000 A 
ATOM     15  C   UNL     1      11.332  15.993  17.149  0.00  0.00    +0.000 A 
ATOM     16  C   UNL     1      10.988  15.055  18.153  0.00  0.00    +0.000 A 
ATOM     17  H   UNL     1       9.042  13.189  22.350  0.00  0.00    +0.000 HD
ENDROOT
BRANCH  10  18
ATOM     18  C   UNL     1       7.535  14.175  23.320  0.00  0.00    +0.000 C 
ATOM     19  C   UNL     1       6.213  13.393  23.266  0.00  0.00    +0.000 C 
ATOM     20  C   UNL     1       6.397  11.884  23.448  0.00  0.00    +0.000 C 
ATOM     21  C   UNL     1       7.223  11.536  24.683  0.00  0.00    +0.000 C 
ATOM     22  C   UNL     1       8.529  12.322  24.754  0.00  0.00    +0.000 C 
ATOM     23  C   UNL     1       8.280  13.827  24.623  0.00  0.00    +0.000 C 
ENDBRANCH  10  18
TORSDOF 1
ENDMDL
