MODEL 1
REMARK VINA RESULT:      -7.8      0.000      0.000
REMARK  Name = 
REMARK  7 active torsions:
REMARK  status: ('A' for Active; 'I' for Inactive)
REMARK    1  A    between atoms: C_1  and  O_2
REMARK    2  A    between atoms: O_2  and  C_3
REMARK    3  A    between atoms: C_6  and  S_7
REMARK    4  A    between atoms: S_7  and  N_10
REMARK    5  A    between atoms: N_10  and  C_11
REMARK    6  A    between atoms: C_15  and  C_16
REMARK    7  A    between atoms: C_16  and  O_18
REMARK                            x       y       z     vdW  Elec       q    Type
REMARK                         _______ _______ _______ _____ _____    ______ ____
ROOT
ATOM      1  S   UNL     1       5.888   6.296  16.575  0.00  0.00    +0.000 S 
ATOM      2  O   UNL     1       5.011   6.742  15.507  0.00  0.00    +0.000 OA
ATOM      3  O   UNL     1       6.853   7.207  17.148  0.00  0.00    +0.000 OA
ENDROOT
BRANCH   1   7
ATOM      4  C   UNL     1       3.430   4.303  19.910  0.00  0.00    +0.000 A 
ATOM      5  C   UNL     1       4.494   3.656  19.290  0.00  0.00    +0.000 A 
ATOM      6  C   UNL     1       5.204   4.293  18.278  0.00  0.00    +0.000 A 
ATOM      7  C   UNL     1       4.868   5.596  17.877  0.00  0.00    +0.000 A 
ATOM      8  C   UNL     1       3.770   6.287  18.475  0.00  0.00    +0.000 A 
ATOM      9  C   UNL     1       3.328   7.595  18.135  0.00  0.00    +0.000 A 
ATOM     10  C   UNL     1       2.234   8.206  18.756  0.00  0.00    +0.000 A 
ATOM     11  C   UNL     1       1.551   7.542  19.757  0.00  0.00    +0.000 A 
ATOM     12  C   UNL     1       1.958   6.263  20.127  0.00  0.00    +0.000 A 
ATOM     13  C   UNL     1       3.050   5.612  19.507  0.00  0.00    +0.000 A 
BRANCH   4  15
ATOM     14  C   UNL     1       1.738   2.709  20.457  0.00  0.00    +0.000 C 
ATOM     15  O   UNL     1       2.660   3.708  20.884  0.00  0.00    +0.000 OA
ENDBRANCH   4  15
ENDBRANCH   1   7
BRANCH   1  16
ATOM     16  N   UNL     1       6.754   4.946  16.001  0.00  0.00    +0.000 N 
ATOM     17  H   UNL     1       6.532   4.108  16.541  0.00  0.00    +0.000 HD
BRANCH  16  18
ATOM     18  C   UNL     1       6.832   4.791  14.581  0.00  0.00    +0.000 A 
ATOM     19  C   UNL     1       7.751   5.504  13.818  0.00  0.00    +0.000 A 
ATOM     20  N   UNL     1       7.929   5.316  12.491  0.00  0.00    +0.000 NA
ATOM     21  C   UNL     1       7.149   4.378  11.897  0.00  0.00    +0.000 A 
ATOM     22  C   UNL     1       6.216   3.604  12.578  0.00  0.00    +0.000 A 
ATOM     23  C   UNL     1       6.053   3.822  13.948  0.00  0.00    +0.000 A 
BRANCH  22  24
ATOM     24  C   UNL     1       5.426   2.632  11.797  0.00  0.00    +0.000 C 
ATOM     25  O   UNL     1       4.335   2.911  11.326  0.00  0.00    +0.000 OA
BRANCH  24  26
ATOM     26  O   UNL     1       6.020   1.436  11.616  0.00  0.00    +0.000 OA
ATOM     27  H   UNL     1       6.399   1.261  10.733  0.00  0.00    +0.000 HD
ENDBRANCH  24  26
ENDBRANCH  22  24
ENDBRANCH  16  18
ENDBRANCH   1  16
TORSDOF 6
ENDMDL
MODEL 2
REMARK VINA RESULT:      -7.5      2.599      4.753
REMARK  Name = 
REMARK  7 active torsions:
REMARK  status: ('A' for Active; 'I' for Inactive)
REMARK    1  A    between atoms: C_1  and  O_2
REMARK    2  A    between atoms: O_2  and  C_3
REMARK    3  A    between atoms: C_6  and  S_7
REMARK    4  A    between atoms: S_7  and  N_10
REMARK    5  A    between atoms: N_10  and  C_11
REMARK    6  A    between atoms: C_15  and  C_16
REMARK    7  A    between atoms: C_16  and  O_18
REMARK                            x       y       z     vdW  Elec       q    Type
REMARK                         _______ _______ _______ _____ _____    ______ ____
ROOT
ATOM      1  S   UNL     1       5.439   5.043  15.231  0.00  0.00    +0.000 S 
ATOM      2  O   UNL     1       5.180   4.029  14.224  0.00  0.00    +0.000 OA
ATOM      3  O   UNL     1       5.297   6.443  14.901  0.00  0.00    +0.000 OA
ENDROOT
BRANCH   1   7
ATOM      4  C   UNL     1       2.963   3.815  18.906  0.00  0.00    +0.000 A 
ATOM      5  C   UNL     1       3.617   2.879  18.109  0.00  0.00    +0.000 A 
ATOM      6  C   UNL     1       4.347   3.295  17.001  0.00  0.00    +0.000 A 
ATOM      7  C   UNL     1       4.444   4.658  16.677  0.00  0.00    +0.000 A 
ATOM      8  C   UNL     1       3.773   5.647  17.458  0.00  0.00    +0.000 A 
ATOM      9  C   UNL     1       3.785   7.048  17.212  0.00  0.00    +0.000 A 
ATOM     10  C   UNL     1       3.091   7.960  18.015  0.00  0.00    +0.000 A 
ATOM     11  C   UNL     1       2.375   7.510  19.107  0.00  0.00    +0.000 A 
ATOM     12  C   UNL     1       2.346   6.147  19.388  0.00  0.00    +0.000 A 
ATOM     13  C   UNL     1       3.023   5.198  18.588  0.00  0.00    +0.000 A 
BRANCH   4  15
ATOM     14  C   UNL     1       1.038   2.663  19.723  0.00  0.00    +0.000 C 
ATOM     15  O   UNL     1       2.188   3.461  19.987  0.00  0.00    +0.000 OA
ENDBRANCH   4  15
ENDBRANCH   1   7
BRANCH   1  16
ATOM     16  N   UNL     1       7.031   4.820  15.792  0.00  0.00    +0.000 N 
ATOM     17  H   UNL     1       7.706   4.898  15.029  0.00  0.00    +0.000 HD
BRANCH  16  18
ATOM     18  C   UNL     1       7.375   5.468  17.020  0.00  0.00    +0.000 A 
ATOM     19  C   UNL     1       7.593   4.747  18.190  0.00  0.00    +0.000 A 
ATOM     20  N   UNL     1       8.017   5.306  19.346  0.00  0.00    +0.000 NA
ATOM     21  C   UNL     1       8.227   6.646  19.336  0.00  0.00    +0.000 A 
ATOM     22  C   UNL     1       8.054   7.447  18.212  0.00  0.00    +0.000 A 
ATOM     23  C   UNL     1       7.613   6.843  17.033  0.00  0.00    +0.000 A 
BRANCH  22  24
ATOM     24  C   UNL     1       8.305   8.895  18.354  0.00  0.00    +0.000 C 
ATOM     25  O   UNL     1       7.750   9.722  17.649  0.00  0.00    +0.000 OA
BRANCH  24  26
ATOM     26  O   UNL     1       9.160   9.227  19.341  0.00  0.00    +0.000 OA
ATOM     27  H   UNL     1      10.113   9.155  19.140  0.00  0.00    +0.000 HD
ENDBRANCH  24  26
ENDBRANCH  22  24
ENDBRANCH  16  18
ENDBRANCH   1  16
TORSDOF 6
ENDMDL
MODEL 3
REMARK VINA RESULT:      -7.5      1.536      2.933
REMARK  Name = 
REMARK  7 active torsions:
REMARK  status: ('A' for Active; 'I' for Inactive)
REMARK    1  A    between atoms: C_1  and  O_2
REMARK    2  A    between atoms: O_2  and  C_3
REMARK    3  A    between atoms: C_6  and  S_7
REMARK    4  A    between atoms: S_7  and  N_10
REMARK    5  A    between atoms: N_10  and  C_11
REMARK    6  A    between atoms: C_15  and  C_16
REMARK    7  A    between atoms: C_16  and  O_18
REMARK                            x       y       z     vdW  Elec       q    Type
REMARK                         _______ _______ _______ _____ _____    ______ ____
ROOT
ATOM      1  S   UNL     1       5.313   4.400  17.148  0.00  0.00    +0.000 S 
ATOM      2  O   UNL     1       6.618   4.459  17.782  0.00  0.00    +0.000 OA
ATOM      3  O   UNL     1       4.821   3.148  16.620  0.00  0.00    +0.000 OA
ENDROOT
BRANCH   1   7
ATOM      4  C   UNL     1       2.230   6.381  19.925  0.00  0.00    +0.000 A 
ATOM      5  C   UNL     1       2.813   7.064  18.861  0.00  0.00    +0.000 A 
ATOM      6  C   UNL     1       3.748   6.428  18.052  0.00  0.00    +0.000 A 
ATOM      7  C   UNL     1       4.109   5.092  18.288  0.00  0.00    +0.000 A 
ATOM      8  C   UNL     1       3.549   4.362  19.381  0.00  0.00    +0.000 A 
ATOM      9  C   UNL     1       3.855   3.017  19.725  0.00  0.00    +0.000 A 
ATOM     10  C   UNL     1       3.276   2.369  20.821  0.00  0.00    +0.000 A 
ATOM     11  C   UNL     1       2.351   3.032  21.603  0.00  0.00    +0.000 A 
ATOM     12  C   UNL     1       2.015   4.348  21.293  0.00  0.00    +0.000 A 
ATOM     13  C   UNL     1       2.595   5.036  20.203  0.00  0.00    +0.000 A 
BRANCH   4  15
ATOM     14  C   UNL     1       1.320   8.394  20.829  0.00  0.00    +0.000 C 
ATOM     15  O   UNL     1       1.334   6.970  20.787  0.00  0.00    +0.000 OA
ENDBRANCH   4  15
ENDBRANCH   1   7
BRANCH   1  16
ATOM     16  N   UNL     1       5.311   5.519  15.865  0.00  0.00    +0.000 N 
ATOM     17  H   UNL     1       5.551   6.457  16.192  0.00  0.00    +0.000 HD
BRANCH  16  18
ATOM     18  C   UNL     1       5.918   5.093  14.642  0.00  0.00    +0.000 A 
ATOM     19  C   UNL     1       7.189   5.520  14.269  0.00  0.00    +0.000 A 
ATOM     20  N   UNL     1       7.842   5.066  13.176  0.00  0.00    +0.000 NA
ATOM     21  C   UNL     1       7.194   4.149  12.415  0.00  0.00    +0.000 A 
ATOM     22  C   UNL     1       5.931   3.649  12.714  0.00  0.00    +0.000 A 
ATOM     23  C   UNL     1       5.280   4.138  13.849  0.00  0.00    +0.000 A 
BRANCH  22  24
ATOM     24  C   UNL     1       5.342   2.664  11.785  0.00  0.00    +0.000 C 
ATOM     25  O   UNL     1       4.279   2.862  11.220  0.00  0.00    +0.000 OA
BRANCH  24  26
ATOM     26  O   UNL     1       6.086   1.559  11.586  0.00  0.00    +0.000 OA
ATOM     27  H   UNL     1       6.518   1.172  12.372  0.00  0.00    +0.000 HD
ENDBRANCH  24  26
ENDBRANCH  22  24
ENDBRANCH  16  18
ENDBRANCH   1  16
TORSDOF 6
ENDMDL
MODEL 4
REMARK VINA RESULT:      -7.2      0.956      1.091
REMARK  Name = 
REMARK  7 active torsions:
REMARK  status: ('A' for Active; 'I' for Inactive)
REMARK    1  A    between atoms: C_1  and  O_2
REMARK    2  A    between atoms: O_2  and  C_3
REMARK    3  A    between atoms: C_6  and  S_7
REMARK    4  A    between atoms: S_7  and  N_10
REMARK    5  A    between atoms: N_10  and  C_11
REMARK    6  A    between atoms: C_15  and  C_16
REMARK    7  A    between atoms: C_16  and  O_18
REMARK                            x       y       z     vdW  Elec       q    Type
REMARK                         _______ _______ _______ _____ _____    ______ ____
ROOT
ATOM      1  S   UNL     1       6.301   5.392  16.793  0.00  0.00    +0.000 S 
ATOM      2  O   UNL     1       6.960   6.674  16.974  0.00  0.00    +0.000 OA
ATOM      3  O   UNL     1       7.085   4.181  16.711  0.00  0.00    +0.000 OA
ENDROOT
BRANCH   1   7
ATOM      4  C   UNL     1       3.226   4.743  20.148  0.00  0.00    +0.000 A 
ATOM      5  C   UNL     1       4.223   3.813  19.870  0.00  0.00    +0.000 A 
ATOM      6  C   UNL     1       5.126   4.046  18.839  0.00  0.00    +0.000 A 
ATOM      7  C   UNL     1       5.054   5.221  18.075  0.00  0.00    +0.000 A 
ATOM      8  C   UNL     1       4.035   6.192  18.316  0.00  0.00    +0.000 A 
ATOM      9  C   UNL     1       3.854   7.404  17.595  0.00  0.00    +0.000 A 
ATOM     10  C   UNL     1       2.822   8.304  17.879  0.00  0.00    +0.000 A 
ATOM     11  C   UNL     1       1.943   8.039  18.911  0.00  0.00    +0.000 A 
ATOM     12  C   UNL     1       2.091   6.867  19.648  0.00  0.00    +0.000 A 
ATOM     13  C   UNL     1       3.113   5.930  19.375  0.00  0.00    +0.000 A 
BRANCH   4  15
ATOM     14  C   UNL     1       2.032   3.203  21.528  0.00  0.00    +0.000 C 
ATOM     15  O   UNL     1       2.275   4.547  21.124  0.00  0.00    +0.000 OA
ENDBRANCH   4  15
ENDBRANCH   1   7
BRANCH   1  16
ATOM     16  N   UNL     1       5.374   5.485  15.368  0.00  0.00    +0.000 N 
ATOM     17  H   UNL     1       4.908   6.391  15.288  0.00  0.00    +0.000 HD
BRANCH  16  18
ATOM     18  C   UNL     1       5.974   4.967  14.177  0.00  0.00    +0.000 A 
ATOM     19  C   UNL     1       7.242   5.364  13.766  0.00  0.00    +0.000 A 
ATOM     20  N   UNL     1       7.889   4.828  12.707  0.00  0.00    +0.000 NA
ATOM     21  C   UNL     1       7.237   3.855  12.022  0.00  0.00    +0.000 A 
ATOM     22  C   UNL     1       5.976   3.380  12.366  0.00  0.00    +0.000 A 
ATOM     23  C   UNL     1       5.332   3.954  13.464  0.00  0.00    +0.000 A 
BRANCH  22  24
ATOM     24  C   UNL     1       5.383   2.327  11.518  0.00  0.00    +0.000 C 
ATOM     25  O   UNL     1       4.270   2.438  11.030  0.00  0.00    +0.000 OA
BRANCH  24  26
ATOM     26  O   UNL     1       6.178   1.262  11.299  0.00  0.00    +0.000 OA
ATOM     27  H   UNL     1       6.457   0.752  12.084  0.00  0.00    +0.000 HD
ENDBRANCH  24  26
ENDBRANCH  22  24
ENDBRANCH  16  18
ENDBRANCH   1  16
TORSDOF 6
ENDMDL
MODEL 5
REMARK VINA RESULT:      -7.1      5.134      8.632
REMARK  Name = 
REMARK  7 active torsions:
REMARK  status: ('A' for Active; 'I' for Inactive)
REMARK    1  A    between atoms: C_1  and  O_2
REMARK    2  A    between atoms: O_2  and  C_3
REMARK    3  A    between atoms: C_6  and  S_7
REMARK    4  A    between atoms: S_7  and  N_10
REMARK    5  A    between atoms: N_10  and  C_11
REMARK    6  A    between atoms: C_15  and  C_16
REMARK    7  A    between atoms: C_16  and  O_18
REMARK                            x       y       z     vdW  Elec       q    Type
REMARK                         _______ _______ _______ _____ _____    ______ ____
ROOT
ATOM      1  S   UNL     1       0.970   8.741  20.872  0.00  0.00    +0.000 S 
ATOM      2  O   UNL     1      -0.388   8.227  20.892  0.00  0.00    +0.000 OA
ATOM      3  O   UNL     1       1.700   8.904  22.109  0.00  0.00    +0.000 OA
ENDROOT
BRANCH   1   7
ATOM      4  C   UNL     1       3.466   6.380  17.817  0.00  0.00    +0.000 A 
ATOM      5  C   UNL     1       3.172   7.729  17.646  0.00  0.00    +0.000 A 
ATOM      6  C   UNL     1       2.405   8.402  18.591  0.00  0.00    +0.000 A 
ATOM      7  C   UNL     1       1.928   7.736  19.731  0.00  0.00    +0.000 A 
ATOM      8  C   UNL     1       2.191   6.347  19.934  0.00  0.00    +0.000 A 
ATOM      9  C   UNL     1       1.743   5.570  21.037  0.00  0.00    +0.000 A 
ATOM     10  C   UNL     1       2.029   4.207  21.164  0.00  0.00    +0.000 A 
ATOM     11  C   UNL     1       2.793   3.571  20.205  0.00  0.00    +0.000 A 
ATOM     12  C   UNL     1       3.260   4.299  19.114  0.00  0.00    +0.000 A 
ATOM     13  C   UNL     1       2.975   5.674  18.948  0.00  0.00    +0.000 A 
BRANCH   4  15
ATOM     14  C   UNL     1       5.222   6.329  16.200  0.00  0.00    +0.000 C 
ATOM     15  O   UNL     1       4.180   5.650  16.894  0.00  0.00    +0.000 OA
ENDBRANCH   4  15
ENDBRANCH   1   7
BRANCH   1  16
ATOM     16  N   UNL     1       0.936  10.261  20.106  0.00  0.00    +0.000 N 
ATOM     17  H   UNL     1       1.708  10.359  19.444  0.00  0.00    +0.000 HD
BRANCH  16  18
ATOM     18  C   UNL     1      -0.343  10.732  19.673  0.00  0.00    +0.000 A 
ATOM     19  C   UNL     1      -1.103  11.601  20.449  0.00  0.00    +0.000 A 
ATOM     20  N   UNL     1      -2.268  12.150  20.037  0.00  0.00    +0.000 NA
ATOM     21  C   UNL     1      -2.697  11.811  18.796  0.00  0.00    +0.000 A 
ATOM     22  C   UNL     1      -2.000  10.965  17.940  0.00  0.00    +0.000 A 
ATOM     23  C   UNL     1      -0.801  10.411  18.394  0.00  0.00    +0.000 A 
BRANCH  22  24
ATOM     24  C   UNL     1      -2.598  10.673  16.623  0.00  0.00    +0.000 C 
ATOM     25  O   UNL     1      -2.490   9.580  16.090  0.00  0.00    +0.000 OA
BRANCH  24  26
ATOM     26  O   UNL     1      -3.297  11.689  16.081  0.00  0.00    +0.000 OA
ATOM     27  H   UNL     1      -3.288  11.760  15.107  0.00  0.00    +0.000 HD
ENDBRANCH  24  26
ENDBRANCH  22  24
ENDBRANCH  16  18
ENDBRANCH   1  16
TORSDOF 6
ENDMDL
MODEL 6
REMARK VINA RESULT:      -7.1      3.218      7.003
REMARK  Name = 
REMARK  7 active torsions:
REMARK  status: ('A' for Active; 'I' for Inactive)
REMARK    1  A    between atoms: C_1  and  O_2
REMARK    2  A    between atoms: O_2  and  C_3
REMARK    3  A    between atoms: C_6  and  S_7
REMARK    4  A    between atoms: S_7  and  N_10
REMARK    5  A    between atoms: N_10  and  C_11
REMARK    6  A    between atoms: C_15  and  C_16
REMARK    7  A    between atoms: C_16  and  O_18
REMARK                            x       y       z     vdW  Elec       q    Type
REMARK                         _______ _______ _______ _____ _____    ______ ____
ROOT
ATOM      1  S   UNL     1       3.818   2.907  18.691  0.00  0.00    +0.000 S 
ATOM      2  O   UNL     1       3.955   1.746  17.830  0.00  0.00    +0.000 OA
ATOM      3  O   UNL     1       3.782   2.744  20.127  0.00  0.00    +0.000 OA
ENDROOT
BRANCH   1   7
ATOM      4  C   UNL     1       7.135   5.964  17.800  0.00  0.00    +0.000 A 
ATOM      5  C   UNL     1       6.671   5.732  19.092  0.00  0.00    +0.000 A 
ATOM      6  C   UNL     1       5.659   4.805  19.314  0.00  0.00    +0.000 A 
ATOM      7  C   UNL     1       5.100   4.085  18.247  0.00  0.00    +0.000 A 
ATOM      8  C   UNL     1       5.534   4.307  16.904  0.00  0.00    +0.000 A 
ATOM      9  C   UNL     1       5.027   3.652  15.748  0.00  0.00    +0.000 A 
ATOM     10  C   UNL     1       5.492   3.931  14.459  0.00  0.00    +0.000 A 
ATOM     11  C   UNL     1       6.498   4.859  14.276  0.00  0.00    +0.000 A 
ATOM     12  C   UNL     1       7.030   5.516  15.384  0.00  0.00    +0.000 A 
ATOM     13  C   UNL     1       6.570   5.268  16.697  0.00  0.00    +0.000 A 
BRANCH   4  15
ATOM     14  C   UNL     1       7.775   8.264  17.772  0.00  0.00    +0.000 C 
ATOM     15  O   UNL     1       8.100   6.901  17.512  0.00  0.00    +0.000 OA
ENDBRANCH   4  15
ENDBRANCH   1   7
BRANCH   1  16
ATOM     16  N   UNL     1       2.386   3.715  18.244  0.00  0.00    +0.000 N 
ATOM     17  H   UNL     1       1.601   3.065  18.178  0.00  0.00    +0.000 HD
BRANCH  16  18
ATOM     18  C   UNL     1       2.130   4.967  18.886  0.00  0.00    +0.000 A 
ATOM     19  C   UNL     1       1.868   5.049  20.250  0.00  0.00    +0.000 A 
ATOM     20  N   UNL     1       1.720   6.216  20.916  0.00  0.00    +0.000 NA
ATOM     21  C   UNL     1       1.833   7.354  20.186  0.00  0.00    +0.000 A 
ATOM     22  C   UNL     1       2.109   7.375  18.824  0.00  0.00    +0.000 A 
ATOM     23  C   UNL     1       2.255   6.153  18.162  0.00  0.00    +0.000 A 
BRANCH  22  24
ATOM     24  C   UNL     1       2.187   8.689  18.157  0.00  0.00    +0.000 C 
ATOM     25  O   UNL     1       2.709   8.832  17.063  0.00  0.00    +0.000 OA
BRANCH  24  26
ATOM     26  O   UNL     1       1.607   9.701  18.831  0.00  0.00    +0.000 OA
ATOM     27  H   UNL     1       1.559   9.612  19.803  0.00  0.00    +0.000 HD
ENDBRANCH  24  26
ENDBRANCH  22  24
ENDBRANCH  16  18
ENDBRANCH   1  16
TORSDOF 6
ENDMDL
MODEL 7
REMARK VINA RESULT:      -7.0      3.109      6.848
REMARK  Name = 
REMARK  7 active torsions:
REMARK  status: ('A' for Active; 'I' for Inactive)
REMARK    1  A    between atoms: C_1  and  O_2
REMARK    2  A    between atoms: O_2  and  C_3
REMARK    3  A    between atoms: C_6  and  S_7
REMARK    4  A    between atoms: S_7  and  N_10
REMARK    5  A    between atoms: N_10  and  C_11
REMARK    6  A    between atoms: C_15  and  C_16
REMARK    7  A    between atoms: C_16  and  O_18
REMARK                            x       y       z     vdW  Elec       q    Type
REMARK                         _______ _______ _______ _____ _____    ______ ____
ROOT
ATOM      1  S   UNL     1       3.755   2.667  18.728  0.00  0.00    +0.000 S 
ATOM      2  O   UNL     1       3.672   1.303  18.234  0.00  0.00    +0.000 OA
ATOM      3  O   UNL     1       4.227   2.924  20.069  0.00  0.00    +0.000 OA
ENDROOT
BRANCH   1   7
ATOM      4  C   UNL     1       6.072   5.026  15.533  0.00  0.00    +0.000 A 
ATOM      5  C   UNL     1       5.083   4.105  15.200  0.00  0.00    +0.000 A 
ATOM      6  C   UNL     1       4.414   3.407  16.198  0.00  0.00    +0.000 A 
ATOM      7  C   UNL     1       4.716   3.626  17.552  0.00  0.00    +0.000 A 
ATOM      8  C   UNL     1       5.737   4.548  17.936  0.00  0.00    +0.000 A 
ATOM      9  C   UNL     1       6.140   4.834  19.269  0.00  0.00    +0.000 A 
ATOM     10  C   UNL     1       7.159   5.742  19.570  0.00  0.00    +0.000 A 
ATOM     11  C   UNL     1       7.803   6.418  18.552  0.00  0.00    +0.000 A 
ATOM     12  C   UNL     1       7.432   6.174  17.232  0.00  0.00    +0.000 A 
ATOM     13  C   UNL     1       6.417   5.250  16.893  0.00  0.00    +0.000 A 
BRANCH   4  15
ATOM     14  C   UNL     1       7.423   4.940  13.567  0.00  0.00    +0.000 C 
ATOM     15  O   UNL     1       6.800   5.713  14.589  0.00  0.00    +0.000 OA
ENDBRANCH   4  15
ENDBRANCH   1   7
BRANCH   1  16
ATOM     16  N   UNL     1       2.202   3.356  18.604  0.00  0.00    +0.000 N 
ATOM     17  H   UNL     1       1.480   2.694  18.896  0.00  0.00    +0.000 HD
BRANCH  16  18
ATOM     18  C   UNL     1       2.061   4.703  19.062  0.00  0.00    +0.000 A 
ATOM     19  C   UNL     1       1.738   4.995  20.384  0.00  0.00    +0.000 A 
ATOM     20  N   UNL     1       1.693   6.250  20.885  0.00  0.00    +0.000 NA
ATOM     21  C   UNL     1       1.976   7.260  20.026  0.00  0.00    +0.000 A 
ATOM     22  C   UNL     1       2.325   7.068  18.693  0.00  0.00    +0.000 A 
ATOM     23  C   UNL     1       2.362   5.761  18.203  0.00  0.00    +0.000 A 
BRANCH  22  24
ATOM     24  C   UNL     1       2.592   8.266  17.872  0.00  0.00    +0.000 C 
ATOM     25  O   UNL     1       3.343   8.238  16.910  0.00  0.00    +0.000 OA
BRANCH  24  26
ATOM     26  O   UNL     1       1.915   9.369  18.245  0.00  0.00    +0.000 OA
ATOM     27  H   UNL     1       2.428  10.072  18.688  0.00  0.00    +0.000 HD
ENDBRANCH  24  26
ENDBRANCH  22  24
ENDBRANCH  16  18
ENDBRANCH   1  16
TORSDOF 6
ENDMDL
MODEL 8
REMARK VINA RESULT:      -6.9      1.510      2.791
REMARK  Name = 
REMARK  7 active torsions:
REMARK  status: ('A' for Active; 'I' for Inactive)
REMARK    1  A    between atoms: C_1  and  O_2
REMARK    2  A    between atoms: O_2  and  C_3
REMARK    3  A    between atoms: C_6  and  S_7
REMARK    4  A    between atoms: S_7  and  N_10
REMARK    5  A    between atoms: N_10  and  C_11
REMARK    6  A    between atoms: C_15  and  C_16
REMARK    7  A    between atoms: C_16  and  O_18
REMARK                            x       y       z     vdW  Elec       q    Type
REMARK                         _______ _______ _______ _____ _____    ______ ____
ROOT
ATOM      1  S   UNL     1       6.844   5.187  17.612  0.00  0.00    +0.000 S 
ATOM      2  O   UNL     1       7.632   6.164  16.881  0.00  0.00    +0.000 OA
ATOM      3  O   UNL     1       7.350   4.625  18.844  0.00  0.00    +0.000 OA
ENDROOT
BRANCH   1   7
ATOM      4  C   UNL     1       2.728   7.160  18.162  0.00  0.00    +0.000 A 
ATOM      5  C   UNL     1       3.736   7.752  17.407  0.00  0.00    +0.000 A 
ATOM      6  C   UNL     1       4.969   7.124  17.276  0.00  0.00    +0.000 A 
ATOM      7  C   UNL     1       5.212   5.885  17.890  0.00  0.00    +0.000 A 
ATOM      8  C   UNL     1       4.211   5.254  18.689  0.00  0.00    +0.000 A 
ATOM      9  C   UNL     1       4.352   4.014  19.371  0.00  0.00    +0.000 A 
ATOM     10  C   UNL     1       3.330   3.461  20.149  0.00  0.00    +0.000 A 
ATOM     11  C   UNL     1       2.118   4.114  20.258  0.00  0.00    +0.000 A 
ATOM     12  C   UNL     1       1.934   5.325  19.597  0.00  0.00    +0.000 A 
ATOM     13  C   UNL     1       2.953   5.919  18.816  0.00  0.00    +0.000 A 
BRANCH   4  15
ATOM     14  C   UNL     1       1.500   9.157  18.619  0.00  0.00    +0.000 C 
ATOM     15  O   UNL     1       1.503   7.754  18.367  0.00  0.00    +0.000 OA
ENDBRANCH   4  15
ENDBRANCH   1   7
BRANCH   1  16
ATOM     16  N   UNL     1       6.529   3.886  16.560  0.00  0.00    +0.000 N 
ATOM     17  H   UNL     1       5.723   3.343  16.875  0.00  0.00    +0.000 HD
BRANCH  16  18
ATOM     18  C   UNL     1       6.608   4.161  15.159  0.00  0.00    +0.000 A 
ATOM     19  C   UNL     1       7.506   5.093  14.647  0.00  0.00    +0.000 A 
ATOM     20  N   UNL     1       7.687   5.312  13.325  0.00  0.00    +0.000 NA
ATOM     21  C   UNL     1       6.931   4.573  12.475  0.00  0.00    +0.000 A 
ATOM     22  C   UNL     1       6.019   3.608  12.890  0.00  0.00    +0.000 A 
ATOM     23  C   UNL     1       5.853   3.405  14.262  0.00  0.00    +0.000 A 
BRANCH  22  24
ATOM     24  C   UNL     1       5.254   2.891  11.850  0.00  0.00    +0.000 C 
ATOM     25  O   UNL     1       4.259   3.371  11.332  0.00  0.00    +0.000 OA
BRANCH  24  26
ATOM     26  O   UNL     1       5.762   1.694  11.498  0.00  0.00    +0.000 OA
ATOM     27  H   UNL     1       5.357   1.254  10.726  0.00  0.00    +0.000 HD
ENDBRANCH  24  26
ENDBRANCH  22  24
ENDBRANCH  16  18
ENDBRANCH   1  16
TORSDOF 6
ENDMDL
MODEL 9
REMARK VINA RESULT:      -6.8      1.227      2.685
REMARK  Name = 
REMARK  7 active torsions:
REMARK  status: ('A' for Active; 'I' for Inactive)
REMARK    1  A    between atoms: C_1  and  O_2
REMARK    2  A    between atoms: O_2  and  C_3
REMARK    3  A    between atoms: C_6  and  S_7
REMARK    4  A    between atoms: S_7  and  N_10
REMARK    5  A    between atoms: N_10  and  C_11
REMARK    6  A    between atoms: C_15  and  C_16
REMARK    7  A    between atoms: C_16  and  O_18
REMARK                            x       y       z     vdW  Elec       q    Type
REMARK                         _______ _______ _______ _____ _____    ______ ____
ROOT
ATOM      1  S   UNL     1       6.464   5.288  17.501  0.00  0.00    +0.000 S 
ATOM      2  O   UNL     1       6.746   6.438  16.660  0.00  0.00    +0.000 OA
ATOM      3  O   UNL     1       7.457   4.816  18.439  0.00  0.00    +0.000 OA
ENDROOT
BRANCH   1   7
ATOM      4  C   UNL     1       2.489   6.295  19.581  0.00  0.00    +0.000 A 
ATOM      5  C   UNL     1       3.148   7.209  18.764  0.00  0.00    +0.000 A 
ATOM      6  C   UNL     1       4.353   6.865  18.163  0.00  0.00    +0.000 A 
ATOM      7  C   UNL     1       4.915   5.594  18.360  0.00  0.00    +0.000 A 
ATOM      8  C   UNL     1       4.281   4.634  19.206  0.00  0.00    +0.000 A 
ATOM      9  C   UNL     1       4.768   3.329  19.493  0.00  0.00    +0.000 A 
ATOM     10  C   UNL     1       4.097   2.445  20.343  0.00  0.00    +0.000 A 
ATOM     11  C   UNL     1       2.902   2.821  20.924  0.00  0.00    +0.000 A 
ATOM     12  C   UNL     1       2.385   4.087  20.662  0.00  0.00    +0.000 A 
ATOM     13  C   UNL     1       3.047   5.010  19.819  0.00  0.00    +0.000 A 
BRANCH   4  15
ATOM     14  C   UNL     1       1.288   7.808  20.985  0.00  0.00    +0.000 C 
ATOM     15  O   UNL     1       1.318   6.593  20.240  0.00  0.00    +0.000 OA
ENDBRANCH   4  15
ENDBRANCH   1   7
BRANCH   1  16
ATOM     16  N   UNL     1       6.081   3.981  16.478  0.00  0.00    +0.000 N 
ATOM     17  H   UNL     1       5.188   3.559  16.737  0.00  0.00    +0.000 HD
BRANCH  16  18
ATOM     18  C   UNL     1       6.318   4.171  15.080  0.00  0.00    +0.000 A 
ATOM     19  C   UNL     1       7.316   5.024  14.618  0.00  0.00    +0.000 A 
ATOM     20  N   UNL     1       7.642   5.157  13.312  0.00  0.00    +0.000 NA
ATOM     21  C   UNL     1       6.936   4.410  12.428  0.00  0.00    +0.000 A 
ATOM     22  C   UNL     1       5.933   3.518  12.794  0.00  0.00    +0.000 A 
ATOM     23  C   UNL     1       5.617   3.404  14.150  0.00  0.00    +0.000 A 
BRANCH  22  24
ATOM     24  C   UNL     1       5.238   2.783  11.719  0.00  0.00    +0.000 C 
ATOM     25  O   UNL     1       4.248   3.231  11.163  0.00  0.00    +0.000 OA
BRANCH  24  26
ATOM     26  O   UNL     1       5.803   1.608  11.381  0.00  0.00    +0.000 OA
ATOM     27  H   UNL     1       5.812   0.911  12.065  0.00  0.00    +0.000 HD
ENDBRANCH  24  26
ENDBRANCH  22  24
ENDBRANCH  16  18
ENDBRANCH   1  16
TORSDOF 6
ENDMDL
