MODEL 1
REMARK VINA RESULT:      -9.1      0.000      0.000
REMARK  Name = 
REMARK  3 active torsions:
REMARK  status: ('A' for Active; 'I' for Inactive)
REMARK    1  A    between atoms: C_1  and  C_2
REMARK    2  A    between atoms: C_2  and  N_3
REMARK    3  A    between atoms: N_6  and  C_7
REMARK                            x       y       z     vdW  Elec       q    Type
REMARK                         _______ _______ _______ _____ _____    ______ ____
ROOT
ATOM      1  C   UNL     1       2.089   7.009  19.809  0.00  0.00    +0.000 A 
ATOM      2  N   UNL     1       1.599   5.976  20.530  0.00  0.00    +0.000 NA
ATOM      3  C   UNL     1       1.776   4.718  20.123  0.00  0.00    +0.000 A 
ATOM      4  C   UNL     1       1.138   3.715  20.855  0.00  0.00    +0.000 A 
ATOM      5  C   UNL     1       1.138   2.372  20.458  0.00  0.00    +0.000 A 
ATOM      6  C   UNL     1       1.761   2.033  19.276  0.00  0.00    +0.000 A 
ATOM      7  C   UNL     1       2.426   3.021  18.548  0.00  0.00    +0.000 A 
ATOM      8  C   UNL     1       2.522   4.377  18.979  0.00  0.00    +0.000 A 
ATOM      9  C   UNL     1       3.239   5.429  18.293  0.00  0.00    +0.000 A 
ATOM     10  C   UNL     1       2.907   6.768  18.666  0.00  0.00    +0.000 A 
ATOM     11  C   UNL     1       3.357   7.806  17.825  0.00  0.00    +0.000 A 
ATOM     12  C   UNL     1       4.168   7.594  16.718  0.00  0.00    +0.000 A 
ATOM     13  C   UNL     1       4.627   6.328  16.422  0.00  0.00    +0.000 A 
ATOM     14  C   UNL     1       5.489   6.170  15.320  0.00  0.00    +0.000 A 
ATOM     15  C   UNL     1       6.036   4.934  15.012  0.00  0.00    +0.000 A 
ATOM     16  C   UNL     1       5.765   3.856  15.833  0.00  0.00    +0.000 A 
ATOM     17  C   UNL     1       4.899   4.013  16.925  0.00  0.00    +0.000 A 
ATOM     18  C   UNL     1       4.229   5.231  17.227  0.00  0.00    +0.000 A 
ENDROOT
BRANCH   1  22
ATOM     19  N   UNL     1      -0.434  10.322  20.679  0.00  0.00    +0.000 NA
ATOM     20  C   UNL     1      -0.116   9.720  19.368  0.00  0.00    +0.000 C 
ATOM     21  C   UNL     1       1.346   9.269  19.210  0.00  0.00    +0.000 C 
ATOM     22  N   UNL     1       1.689   8.273  20.228  0.00  0.00    +0.000 N 
ATOM     23  C   UNL     1       1.368   8.655  21.607  0.00  0.00    +0.000 C 
ATOM     24  C   UNL     1       0.027   9.431  21.763  0.00  0.00    +0.000 C 
BRANCH  19  26
ATOM     25  C   UNL     1      -0.621  12.361  22.070  0.00  0.00    +0.000 C 
ATOM     26  C   UNL     1       0.003  11.711  20.833  0.00  0.00    +0.000 C 
ENDBRANCH  19  26
ENDBRANCH   1  22
TORSDOF 2
ENDMDL
MODEL 2
REMARK VINA RESULT:      -8.3      0.994      1.364
REMARK  Name = 
REMARK  3 active torsions:
REMARK  status: ('A' for Active; 'I' for Inactive)
REMARK    1  A    between atoms: C_1  and  C_2
REMARK    2  A    between atoms: C_2  and  N_3
REMARK    3  A    between atoms: N_6  and  C_7
REMARK                            x       y       z     vdW  Elec       q    Type
REMARK                         _______ _______ _______ _____ _____    ______ ____
ROOT
ATOM      1  C   UNL     1       1.879   7.040  20.057  0.00  0.00    +0.000 A 
ATOM      2  N   UNL     1       1.687   6.044  20.950  0.00  0.00    +0.000 NA
ATOM      3  C   UNL     1       2.218   4.837  20.749  0.00  0.00    +0.000 A 
ATOM      4  C   UNL     1       1.876   3.830  21.653  0.00  0.00    +0.000 A 
ATOM      5  C   UNL     1       2.261   2.495  21.480  0.00  0.00    +0.000 A 
ATOM      6  C   UNL     1       2.977   2.155  20.352  0.00  0.00    +0.000 A 
ATOM      7  C   UNL     1       3.350   3.156  19.454  0.00  0.00    +0.000 A 
ATOM      8  C   UNL     1       3.051   4.537  19.656  0.00  0.00    +0.000 A 
ATOM      9  C   UNL     1       3.456   5.619  18.787  0.00  0.00    +0.000 A 
ATOM     10  C   UNL     1       2.753   6.854  18.945  0.00  0.00    +0.000 A 
ATOM     11  C   UNL     1       2.908   7.824  17.934  0.00  0.00    +0.000 A 
ATOM     12  C   UNL     1       3.766   7.669  16.854  0.00  0.00    +0.000 A 
ATOM     13  C   UNL     1       4.569   6.552  16.755  0.00  0.00    +0.000 A 
ATOM     14  C   UNL     1       5.461   6.464  15.670  0.00  0.00    +0.000 A 
ATOM     15  C   UNL     1       6.341   5.398  15.551  0.00  0.00    +0.000 A 
ATOM     16  C   UNL     1       6.369   4.438  16.545  0.00  0.00    +0.000 A 
ATOM     17  C   UNL     1       5.474   4.522  17.621  0.00  0.00    +0.000 A 
ATOM     18  C   UNL     1       4.481   5.535  17.739  0.00  0.00    +0.000 A 
ENDROOT
BRANCH   1  22
ATOM     19  N   UNL     1       0.755  10.853  21.573  0.00  0.00    +0.000 NA
ATOM     20  C   UNL     1       0.935   9.582  22.305  0.00  0.00    +0.000 C 
ATOM     21  C   UNL     1       0.432   8.336  21.555  0.00  0.00    +0.000 C 
ATOM     22  N   UNL     1       1.131   8.191  20.275  0.00  0.00    +0.000 N 
ATOM     23  C   UNL     1       1.136   9.389  19.429  0.00  0.00    +0.000 C 
ATOM     24  C   UNL     1       1.305  10.725  20.209  0.00  0.00    +0.000 C 
BRANCH  19  26
ATOM     25  C   UNL     1      -1.225  11.256  23.005  0.00  0.00    +0.000 C 
ATOM     26  C   UNL     1      -0.608  11.389  21.610  0.00  0.00    +0.000 C 
ENDBRANCH  19  26
ENDBRANCH   1  22
TORSDOF 2
ENDMDL
MODEL 3
REMARK VINA RESULT:      -8.1      0.869      1.006
REMARK  Name = 
REMARK  3 active torsions:
REMARK  status: ('A' for Active; 'I' for Inactive)
REMARK    1  A    between atoms: C_1  and  C_2
REMARK    2  A    between atoms: C_2  and  N_3
REMARK    3  A    between atoms: N_6  and  C_7
REMARK                            x       y       z     vdW  Elec       q    Type
REMARK                         _______ _______ _______ _____ _____    ______ ____
ROOT
ATOM      1  C   UNL     1       1.911   6.940  20.226  0.00  0.00    +0.000 A 
ATOM      2  N   UNL     1       1.515   5.830  20.887  0.00  0.00    +0.000 NA
ATOM      3  C   UNL     1       1.748   4.617  20.384  0.00  0.00    +0.000 A 
ATOM      4  C   UNL     1       1.203   3.528  21.065  0.00  0.00    +0.000 A 
ATOM      5  C   UNL     1       1.265   2.219  20.571  0.00  0.00    +0.000 A 
ATOM      6  C   UNL     1       1.855   2.002  19.345  0.00  0.00    +0.000 A 
ATOM      7  C   UNL     1       2.429   3.078  18.666  0.00  0.00    +0.000 A 
ATOM      8  C   UNL     1       2.463   4.405  19.191  0.00  0.00    +0.000 A 
ATOM      9  C   UNL     1       3.086   5.544  18.556  0.00  0.00    +0.000 A 
ATOM     10  C   UNL     1       2.692   6.831  19.037  0.00  0.00    +0.000 A 
ATOM     11  C   UNL     1       3.044   7.951  18.257  0.00  0.00    +0.000 A 
ATOM     12  C   UNL     1       3.817   7.868  17.108  0.00  0.00    +0.000 A 
ATOM     13  C   UNL     1       4.337   6.657  16.702  0.00  0.00    +0.000 A 
ATOM     14  C   UNL     1       5.159   6.631  15.560  0.00  0.00    +0.000 A 
ATOM     15  C   UNL     1       5.765   5.456  15.141  0.00  0.00    +0.000 A 
ATOM     16  C   UNL     1       5.593   4.308  15.892  0.00  0.00    +0.000 A 
ATOM     17  C   UNL     1       4.767   4.334  17.025  0.00  0.00    +0.000 A 
ATOM     18  C   UNL     1       4.039   5.484  17.440  0.00  0.00    +0.000 A 
ENDROOT
BRANCH   1  22
ATOM     19  N   UNL     1      -0.278   9.680  22.633  0.00  0.00    +0.000 NA
ATOM     20  C   UNL     1      -0.780   8.743  21.609  0.00  0.00    +0.000 C 
ATOM     21  C   UNL     1       0.120   8.609  20.368  0.00  0.00    +0.000 C 
ATOM     22  N   UNL     1       1.455   8.143  20.750  0.00  0.00    +0.000 N 
ATOM     23  C   UNL     1       2.096   8.906  21.827  0.00  0.00    +0.000 C 
ATOM     24  C   UNL     1       1.127   9.360  22.957  0.00  0.00    +0.000 C 
BRANCH  19  26
ATOM     25  C   UNL     1      -1.765  11.622  23.014  0.00  0.00    +0.000 C 
ATOM     26  C   UNL     1      -0.504  11.094  22.327  0.00  0.00    +0.000 C 
ENDBRANCH  19  26
ENDBRANCH   1  22
TORSDOF 2
ENDMDL
MODEL 4
REMARK VINA RESULT:      -7.8      2.399      6.755
REMARK  Name = 
REMARK  3 active torsions:
REMARK  status: ('A' for Active; 'I' for Inactive)
REMARK    1  A    between atoms: C_1  and  C_2
REMARK    2  A    between atoms: C_2  and  N_3
REMARK    3  A    between atoms: N_6  and  C_7
REMARK                            x       y       z     vdW  Elec       q    Type
REMARK                         _______ _______ _______ _____ _____    ______ ____
ROOT
ATOM      1  C   UNL     1       3.903   5.168  17.605  0.00  0.00    +0.000 A 
ATOM      2  N   UNL     1       3.816   3.960  18.205  0.00  0.00    +0.000 NA
ATOM      3  C   UNL     1       3.208   3.829  19.385  0.00  0.00    +0.000 A 
ATOM      4  C   UNL     1       3.264   2.575  19.996  0.00  0.00    +0.000 A 
ATOM      5  C   UNL     1       2.779   2.341  21.289  0.00  0.00    +0.000 A 
ATOM      6  C   UNL     1       2.260   3.400  22.002  0.00  0.00    +0.000 A 
ATOM      7  C   UNL     1       2.173   4.654  21.393  0.00  0.00    +0.000 A 
ATOM      8  C   UNL     1       2.571   4.897  20.045  0.00  0.00    +0.000 A 
ATOM      9  C   UNL     1       2.456   6.158  19.349  0.00  0.00    +0.000 A 
ATOM     10  C   UNL     1       3.242   6.301  18.164  0.00  0.00    +0.000 A 
ATOM     11  C   UNL     1       3.386   7.599  17.632  0.00  0.00    +0.000 A 
ATOM     12  C   UNL     1       2.738   8.711  18.151  0.00  0.00    +0.000 A 
ATOM     13  C   UNL     1       1.855   8.579  19.202  0.00  0.00    +0.000 A 
ATOM     14  C   UNL     1       1.182   9.727  19.660  0.00  0.00    +0.000 A 
ATOM     15  C   UNL     1       0.234   9.646  20.668  0.00  0.00    +0.000 A 
ATOM     16  C   UNL     1      -0.085   8.406  21.192  0.00  0.00    +0.000 A 
ATOM     17  C   UNL     1       0.593   7.265  20.742  0.00  0.00    +0.000 A 
ATOM     18  C   UNL     1       1.646   7.303  19.785  0.00  0.00    +0.000 A 
ENDROOT
BRANCH   1  22
ATOM     19  N   UNL     1       7.304   4.672  15.098  0.00  0.00    +0.000 NA
ATOM     20  C   UNL     1       7.157   5.514  16.302  0.00  0.00    +0.000 C 
ATOM     21  C   UNL     1       5.790   6.208  16.433  0.00  0.00    +0.000 C 
ATOM     22  N   UNL     1       4.713   5.216  16.476  0.00  0.00    +0.000 N 
ATOM     23  C   UNL     1       4.736   4.225  15.395  0.00  0.00    +0.000 C 
ATOM     24  C   UNL     1       6.161   3.743  14.995  0.00  0.00    +0.000 C 
BRANCH  19  26
ATOM     25  C   UNL     1       7.198   4.596  12.625  0.00  0.00    +0.000 C 
ATOM     26  C   UNL     1       7.571   5.414  13.864  0.00  0.00    +0.000 C 
ENDBRANCH  19  26
ENDBRANCH   1  22
TORSDOF 2
ENDMDL
MODEL 5
REMARK VINA RESULT:      -7.3      1.220      4.166
REMARK  Name = 
REMARK  3 active torsions:
REMARK  status: ('A' for Active; 'I' for Inactive)
REMARK    1  A    between atoms: C_1  and  C_2
REMARK    2  A    between atoms: C_2  and  N_3
REMARK    3  A    between atoms: N_6  and  C_7
REMARK                            x       y       z     vdW  Elec       q    Type
REMARK                         _______ _______ _______ _____ _____    ______ ____
ROOT
ATOM      1  C   UNL     1       2.480   7.673  18.512  0.00  0.00    +0.000 A 
ATOM      2  N   UNL     1       3.305   7.855  17.456  0.00  0.00    +0.000 NA
ATOM      3  C   UNL     1       4.043   6.847  16.988  0.00  0.00    +0.000 A 
ATOM      4  C   UNL     1       4.957   7.142  15.975  0.00  0.00    +0.000 A 
ATOM      5  C   UNL     1       5.877   6.204  15.490  0.00  0.00    +0.000 A 
ATOM      6  C   UNL     1       5.906   4.950  16.061  0.00  0.00    +0.000 A 
ATOM      7  C   UNL     1       4.979   4.633  17.055  0.00  0.00    +0.000 A 
ATOM      8  C   UNL     1       3.971   5.539  17.501  0.00  0.00    +0.000 A 
ATOM      9  C   UNL     1       2.956   5.247  18.488  0.00  0.00    +0.000 A 
ATOM     10  C   UNL     1       2.293   6.373  19.067  0.00  0.00    +0.000 A 
ATOM     11  C   UNL     1       1.525   6.149  20.227  0.00  0.00    +0.000 A 
ATOM     12  C   UNL     1       1.317   4.889  20.772  0.00  0.00    +0.000 A 
ATOM     13  C   UNL     1       1.820   3.767  20.149  0.00  0.00    +0.000 A 
ATOM     14  C   UNL     1       1.538   2.507  20.711  0.00  0.00    +0.000 A 
ATOM     15  C   UNL     1       1.960   1.339  20.094  0.00  0.00    +0.000 A 
ATOM     16  C   UNL     1       2.623   1.420  18.884  0.00  0.00    +0.000 A 
ATOM     17  C   UNL     1       2.910   2.676  18.330  0.00  0.00    +0.000 A 
ATOM     18  C   UNL     1       2.594   3.907  18.970  0.00  0.00    +0.000 A 
ENDROOT
BRANCH   1  22
ATOM     19  N   UNL     1      -0.477  10.554  19.540  0.00  0.00    +0.000 NA
ATOM     20  C   UNL     1      -0.021  10.134  18.199  0.00  0.00    +0.000 C 
ATOM     21  C   UNL     1       1.492   9.879  18.090  0.00  0.00    +0.000 C 
ATOM     22  N   UNL     1       1.905   8.830  19.025  0.00  0.00    +0.000 N 
ATOM     23  C   UNL     1       1.470   9.026  20.413  0.00  0.00    +0.000 C 
ATOM     24  C   UNL     1       0.037   9.617  20.558  0.00  0.00    +0.000 C 
BRANCH  19  26
ATOM     25  C   UNL     1      -0.709  12.883  18.733  0.00  0.00    +0.000 C 
ATOM     26  C   UNL     1      -0.225  11.961  19.855  0.00  0.00    +0.000 C 
ENDBRANCH  19  26
ENDBRANCH   1  22
TORSDOF 2
ENDMDL
MODEL 6
REMARK VINA RESULT:      -7.2      8.937     10.406
REMARK  Name = 
REMARK  3 active torsions:
REMARK  status: ('A' for Active; 'I' for Inactive)
REMARK    1  A    between atoms: C_1  and  C_2
REMARK    2  A    between atoms: C_2  and  N_3
REMARK    3  A    between atoms: N_6  and  C_7
REMARK                            x       y       z     vdW  Elec       q    Type
REMARK                         _______ _______ _______ _____ _____    ______ ____
ROOT
ATOM      1  C   UNL     1       7.411  13.606  22.261  0.00  0.00    +0.000 A 
ATOM      2  N   UNL     1       6.512  14.544  21.889  0.00  0.00    +0.000 NA
ATOM      3  C   UNL     1       6.690  15.254  20.774  0.00  0.00    +0.000 A 
ATOM      4  C   UNL     1       5.784  16.284  20.522  0.00  0.00    +0.000 A 
ATOM      5  C   UNL     1       5.935  17.182  19.457  0.00  0.00    +0.000 A 
ATOM      6  C   UNL     1       7.044  17.066  18.648  0.00  0.00    +0.000 A 
ATOM      7  C   UNL     1       7.945  16.023  18.872  0.00  0.00    +0.000 A 
ATOM      8  C   UNL     1       7.763  15.039  19.890  0.00  0.00    +0.000 A 
ATOM      9  C   UNL     1       8.634  13.912  20.133  0.00  0.00    +0.000 A 
ATOM     10  C   UNL     1       8.503  13.274  21.405  0.00  0.00    +0.000 A 
ATOM     11  C   UNL     1       9.520  12.378  21.791  0.00  0.00    +0.000 A 
ATOM     12  C   UNL     1      10.582  12.029  20.967  0.00  0.00    +0.000 A 
ATOM     13  C   UNL     1      10.653  12.513  19.678  0.00  0.00    +0.000 A 
ATOM     14  C   UNL     1      11.719  12.089  18.862  0.00  0.00    +0.000 A 
ATOM     15  C   UNL     1      11.809  12.489  17.537  0.00  0.00    +0.000 A 
ATOM     16  C   UNL     1      10.805  13.275  17.004  0.00  0.00    +0.000 A 
ATOM     17  C   UNL     1       9.748  13.704  17.820  0.00  0.00    +0.000 A 
ATOM     18  C   UNL     1       9.661  13.411  19.210  0.00  0.00    +0.000 A 
ENDROOT
BRANCH   1  22
ATOM     19  N   UNL     1       5.449  12.359  25.824  0.00  0.00    +0.000 NA
ATOM     20  C   UNL     1       5.643  13.728  25.305  0.00  0.00    +0.000 C 
ATOM     21  C   UNL     1       7.015  13.976  24.653  0.00  0.00    +0.000 C 
ATOM     22  N   UNL     1       7.220  13.063  23.526  0.00  0.00    +0.000 N 
ATOM     23  C   UNL     1       6.990  11.645  23.823  0.00  0.00    +0.000 C 
ATOM     24  C   UNL     1       5.789  11.375  24.777  0.00  0.00    +0.000 C 
BRANCH  19  26
ATOM     25  C   UNL     1       5.963  10.628  27.518  0.00  0.00    +0.000 C 
ATOM     26  C   UNL     1       6.099  12.098  27.109  0.00  0.00    +0.000 C 
ENDBRANCH  19  26
ENDBRANCH   1  22
TORSDOF 2
ENDMDL
MODEL 7
REMARK VINA RESULT:      -7.2      1.701      4.409
REMARK  Name = 
REMARK  3 active torsions:
REMARK  status: ('A' for Active; 'I' for Inactive)
REMARK    1  A    between atoms: C_1  and  C_2
REMARK    2  A    between atoms: C_2  and  N_3
REMARK    3  A    between atoms: N_6  and  C_7
REMARK                            x       y       z     vdW  Elec       q    Type
REMARK                         _______ _______ _______ _____ _____    ______ ____
ROOT
ATOM      1  C   UNL     1       2.609   7.941  17.802  0.00  0.00    +0.000 A 
ATOM      2  N   UNL     1       3.465   7.796  16.767  0.00  0.00    +0.000 NA
ATOM      3  C   UNL     1       4.270   6.735  16.693  0.00  0.00    +0.000 A 
ATOM      4  C   UNL     1       5.208   6.716  15.660  0.00  0.00    +0.000 A 
ATOM      5  C   UNL     1       6.192   5.725  15.550  0.00  0.00    +0.000 A 
ATOM      6  C   UNL     1       6.260   4.750  16.521  0.00  0.00    +0.000 A 
ATOM      7  C   UNL     1       5.311   4.740  17.544  0.00  0.00    +0.000 A 
ATOM      8  C   UNL     1       4.242   5.682  17.626  0.00  0.00    +0.000 A 
ATOM      9  C   UNL     1       3.203   5.688  18.632  0.00  0.00    +0.000 A 
ATOM     10  C   UNL     1       2.463   6.903  18.770  0.00  0.00    +0.000 A 
ATOM     11  C   UNL     1       1.661   7.048  19.920  0.00  0.00    +0.000 A 
ATOM     12  C   UNL     1       1.493   6.045  20.864  0.00  0.00    +0.000 A 
ATOM     13  C   UNL     1       2.075   4.808  20.680  0.00  0.00    +0.000 A 
ATOM     14  C   UNL     1       1.833   3.806  21.638  0.00  0.00    +0.000 A 
ATOM     15  C   UNL     1       2.336   2.524  21.474  0.00  0.00    +0.000 A 
ATOM     16  C   UNL     1       3.043   2.221  20.325  0.00  0.00    +0.000 A 
ATOM     17  C   UNL     1       3.290   3.224  19.376  0.00  0.00    +0.000 A 
ATOM     18  C   UNL     1       2.889   4.579  19.541  0.00  0.00    +0.000 A 
ENDROOT
BRANCH   1  22
ATOM     19  N   UNL     1       0.353  11.190  19.369  0.00  0.00    +0.000 NA
ATOM     20  C   UNL     1      -0.080   9.802  19.111  0.00  0.00    +0.000 C 
ATOM     21  C   UNL     1       0.493   9.182  17.825  0.00  0.00    +0.000 C 
ATOM     22  N   UNL     1       1.957   9.167  17.871  0.00  0.00    +0.000 N 
ATOM     23  C   UNL     1       2.583  10.452  18.200  0.00  0.00    +0.000 C 
ATOM     24  C   UNL     1       1.824  11.279  19.278  0.00  0.00    +0.000 C 
BRANCH  19  26
ATOM     25  C   UNL     1      -1.859  11.966  18.572  0.00  0.00    +0.000 C 
ATOM     26  C   UNL     1      -0.347  12.204  18.577  0.00  0.00    +0.000 C 
ENDBRANCH  19  26
ENDBRANCH   1  22
TORSDOF 2
ENDMDL
MODEL 8
REMARK VINA RESULT:      -7.1      5.174      9.327
REMARK  Name = 
REMARK  3 active torsions:
REMARK  status: ('A' for Active; 'I' for Inactive)
REMARK    1  A    between atoms: C_1  and  C_2
REMARK    2  A    between atoms: C_2  and  N_3
REMARK    3  A    between atoms: N_6  and  C_7
REMARK                            x       y       z     vdW  Elec       q    Type
REMARK                         _______ _______ _______ _____ _____    ______ ____
ROOT
ATOM      1  C   UNL     1       1.277  12.992  20.713  0.00  0.00    +0.000 A 
ATOM      2  N   UNL     1       1.409  11.689  20.378  0.00  0.00    +0.000 NA
ATOM      3  C   UNL     1       0.696  10.751  21.003  0.00  0.00    +0.000 A 
ATOM      4  C   UNL     1       0.975   9.420  20.685  0.00  0.00    +0.000 A 
ATOM      5  C   UNL     1       0.390   8.342  21.361  0.00  0.00    +0.000 A 
ATOM      6  C   UNL     1      -0.468   8.605  22.407  0.00  0.00    +0.000 A 
ATOM      7  C   UNL     1      -0.777   9.931  22.718  0.00  0.00    +0.000 A 
ATOM      8  C   UNL     1      -0.269  11.044  21.984  0.00  0.00    +0.000 A 
ATOM      9  C   UNL     1      -0.595  12.431  22.228  0.00  0.00    +0.000 A 
ATOM     10  C   UNL     1       0.286  13.399  21.655  0.00  0.00    +0.000 A 
ATOM     11  C   UNL     1       0.177  14.728  22.111  0.00  0.00    +0.000 A 
ATOM     12  C   UNL     1      -0.791  15.147  23.014  0.00  0.00    +0.000 A 
ATOM     13  C   UNL     1      -1.749  14.266  23.469  0.00  0.00    +0.000 A 
ATOM     14  C   UNL     1      -2.741  14.750  24.342  0.00  0.00    +0.000 A 
ATOM     15  C   UNL     1      -3.770  13.930  24.781  0.00  0.00    +0.000 A 
ATOM     16  C   UNL     1      -3.841  12.632  24.309  0.00  0.00    +0.000 A 
ATOM     17  C   UNL     1      -2.847  12.149  23.446  0.00  0.00    +0.000 A 
ATOM     18  C   UNL     1      -1.715  12.913  23.047  0.00  0.00    +0.000 A 
ENDROOT
BRANCH   1  22
ATOM     19  N   UNL     1       3.113  16.607  19.423  0.00  0.00    +0.000 NA
ATOM     20  C   UNL     1       1.833  16.012  18.987  0.00  0.00    +0.000 C 
ATOM     21  C   UNL     1       1.854  14.480  18.850  0.00  0.00    +0.000 C 
ATOM     22  N   UNL     1       2.198  13.854  20.129  0.00  0.00    +0.000 N 
ATOM     23  C   UNL     1       3.410  14.375  20.771  0.00  0.00    +0.000 C 
ATOM     24  C   UNL     1       3.599  15.914  20.633  0.00  0.00    +0.000 C 
BRANCH  19  26
ATOM     25  C   UNL     1       5.528  16.874  18.949  0.00  0.00    +0.000 C 
ATOM     26  C   UNL     1       4.120  16.723  18.367  0.00  0.00    +0.000 C 
ENDBRANCH  19  26
ENDBRANCH   1  22
TORSDOF 2
ENDMDL
MODEL 9
REMARK VINA RESULT:      -7.1      4.833      8.306
REMARK  Name = 
REMARK  3 active torsions:
REMARK  status: ('A' for Active; 'I' for Inactive)
REMARK    1  A    between atoms: C_1  and  C_2
REMARK    2  A    between atoms: C_2  and  N_3
REMARK    3  A    between atoms: N_6  and  C_7
REMARK                            x       y       z     vdW  Elec       q    Type
REMARK                         _______ _______ _______ _____ _____    ______ ____
ROOT
ATOM      1  C   UNL     1      -1.195  13.029  20.842  0.00  0.00    +0.000 A 
ATOM      2  N   UNL     1      -0.874  11.717  20.810  0.00  0.00    +0.000 NA
ATOM      3  C   UNL     1       0.092  11.271  20.005  0.00  0.00    +0.000 A 
ATOM      4  C   UNL     1       0.283   9.890  19.940  0.00  0.00    +0.000 A 
ATOM      5  C   UNL     1       1.174   9.291  19.040  0.00  0.00    +0.000 A 
ATOM      6  C   UNL     1       1.862  10.095  18.158  0.00  0.00    +0.000 A 
ATOM      7  C   UNL     1       1.702  11.480  18.231  0.00  0.00    +0.000 A 
ATOM      8  C   UNL     1       0.874  12.120  19.200  0.00  0.00    +0.000 A 
ATOM      9  C   UNL     1       0.711  13.549  19.354  0.00  0.00    +0.000 A 
ATOM     10  C   UNL     1      -0.425  13.978  20.106  0.00  0.00    +0.000 A 
ATOM     11  C   UNL     1      -0.780  15.340  20.027  0.00  0.00    +0.000 A 
ATOM     12  C   UNL     1      -0.035  16.283  19.331  0.00  0.00    +0.000 A 
ATOM     13  C   UNL     1       1.148  15.925  18.720  0.00  0.00    +0.000 A 
ATOM     14  C   UNL     1       1.895  16.926  18.071  0.00  0.00    +0.000 A 
ATOM     15  C   UNL     1       3.125  16.641  17.496  0.00  0.00    +0.000 A 
ATOM     16  C   UNL     1       3.639  15.363  17.610  0.00  0.00    +0.000 A 
ATOM     17  C   UNL     1       2.890  14.365  18.249  0.00  0.00    +0.000 A 
ATOM     18  C   UNL     1       1.580  14.575  18.765  0.00  0.00    +0.000 A 
ENDROOT
BRANCH   1  22
ATOM     19  N   UNL     1      -4.939  12.584  22.812  0.00  0.00    +0.000 NA
ATOM     20  C   UNL     1      -4.634  12.478  21.371  0.00  0.00    +0.000 C 
ATOM     21  C   UNL     1      -3.602  13.499  20.859  0.00  0.00    +0.000 C 
ATOM     22  N   UNL     1      -2.333  13.348  21.574  0.00  0.00    +0.000 N 
ATOM     23  C   UNL     1      -2.438  13.344  23.037  0.00  0.00    +0.000 C 
ATOM     24  C   UNL     1      -3.684  12.592  23.590  0.00  0.00    +0.000 C 
BRANCH  19  26
ATOM     25  C   UNL     1      -7.033  13.167  23.998  0.00  0.00    +0.000 C 
ATOM     26  C   UNL     1      -5.854  13.672  23.162  0.00  0.00    +0.000 C 
ENDBRANCH  19  26
ENDBRANCH   1  22
TORSDOF 2
ENDMDL
