MODEL 1
REMARK VINA RESULT:      -8.7      0.000      0.000
REMARK  Name = 
REMARK  7 active torsions:
REMARK  status: ('A' for Active; 'I' for Inactive)
REMARK    1  A    between atoms: C_2  and  C_3
REMARK    2  A    between atoms: C_3  and  S_4
REMARK    3  A    between atoms: S_4  and  C_5
REMARK    4  A    between atoms: C_10  and  C_11
REMARK    5  A    between atoms: N_21  and  C_22
REMARK    6  A    between atoms: CA_25  and  C_26
REMARK    7  A    between atoms: C_26  and  OXT_28
REMARK                            x       y       z     vdW  Elec       q    Type
REMARK                         _______ _______ _______ _____ _____    ______ ____
ROOT
ATOM      1  S   UNL     1       2.368   6.174  17.941  0.00  0.00    +0.000 S 
ENDROOT
BRANCH   1   2
ATOM      2  C   UNL     1       2.493   4.427  18.357  0.00  0.00    +0.000 A 
ATOM      3  N   UNL     1       1.297   3.812  18.545  0.00  0.00    +0.000 NA
ATOM      4  C   UNL     1       1.337   2.507  18.838  0.00  0.00    +0.000 A 
ATOM      5  N   UNL     1       2.439   1.772  18.973  0.00  0.00    +0.000 NA
ATOM      6  C   UNL     1       3.605   2.427  18.783  0.00  0.00    +0.000 A 
ATOM      7  C   UNL     1       3.733   3.765  18.429  0.00  0.00    +0.000 A 
BRANCH   7   8
ATOM      8  C   UNL     1       5.072   4.375  18.158  0.00  0.00    +0.000 A 
ATOM      9  C   UNL     1       5.825   4.866  19.250  0.00  0.00    +0.000 A 
ATOM     10  C   UNL     1       6.997   5.594  19.076  0.00  0.00    +0.000 A 
ATOM     11  C   UNL     1       7.516   5.762  17.803  0.00  0.00    +0.000 A 
ATOM     12  C   UNL     1       6.888   5.186  16.695  0.00  0.00    +0.000 A 
ATOM     13  C   UNL     1       7.513   5.294  15.441  0.00  0.00    +0.000 A 
ATOM     14  C   UNL     1       6.951   4.722  14.305  0.00  0.00    +0.000 A 
ATOM     15  C   UNL     1       5.727   4.084  14.402  0.00  0.00    +0.000 A 
ATOM     16  C   UNL     1       5.071   4.011  15.636  0.00  0.00    +0.000 A 
ATOM     17  C   UNL     1       5.643   4.507  16.840  0.00  0.00    +0.000 A 
ENDBRANCH   7   8
ENDBRANCH   1   2
BRANCH   1  18
ATOM     18  C   UNL     1       2.844   7.005  19.478  0.00  0.00    +0.000 C 
BRANCH  18  20
ATOM     19  O   UNL     1       1.111   6.666  21.119  0.00  0.00    +0.000 OA
ATOM     20  C   UNL     1       1.663   7.437  20.338  0.00  0.00    +0.000 C 
ATOM     21  N   UNL     1       1.337   8.776  20.173  0.00  0.00    +0.000 N 
ATOM     22  H   UNL     1       1.643   9.204  19.302  0.00  0.00    +0.000 HD
BRANCH  21  23
ATOM     23  C   UNL     1       0.454   9.540  20.979  0.00  0.00    +0.000 A 
ATOM     24  C   UNL     1       0.381   9.400  22.356  0.00  0.00    +0.000 A 
ATOM     25  C   UNL     1      -0.466  10.221  23.104  0.00  0.00    +0.000 A 
ATOM     26  CA  UNL     1      -1.213  11.181  22.430  0.00  0.00    +0.000 A 
ATOM     27  N   UNL     1      -1.188  11.362  21.083  0.00  0.00    +0.000 NA
ATOM     28  C   UNL     1      -0.359  10.532  20.402  0.00  0.00    +0.000 A 
ATOM     29 CL   UNL     1      -0.402  10.797  18.702  0.00  0.00    +0.000 Cl
BRANCH  26  30
ATOM     30  C   UNL     1      -2.084  12.113  23.203  0.00  0.00    +0.000 C 
ATOM     31  O   UNL     1      -3.245  11.889  23.500  0.00  0.00    +0.000 OA
BRANCH  30  32
ATOM     32  OXT UNL     1      -1.404  13.229  23.546  0.00  0.00    +0.000 OA
ATOM     33  HXT UNL     1      -0.811  13.498  22.809  0.00  0.00    +0.000 HD
ENDBRANCH  30  32
ENDBRANCH  26  30
ENDBRANCH  21  23
ENDBRANCH  18  20
ENDBRANCH   1  18
TORSDOF 7
ENDMDL
MODEL 2
REMARK VINA RESULT:      -8.6      6.247      8.344
REMARK  Name = 
REMARK  7 active torsions:
REMARK  status: ('A' for Active; 'I' for Inactive)
REMARK    1  A    between atoms: C_2  and  C_3
REMARK    2  A    between atoms: C_3  and  S_4
REMARK    3  A    between atoms: S_4  and  C_5
REMARK    4  A    between atoms: C_10  and  C_11
REMARK    5  A    between atoms: N_21  and  C_22
REMARK    6  A    between atoms: CA_25  and  C_26
REMARK    7  A    between atoms: C_26  and  OXT_28
REMARK                            x       y       z     vdW  Elec       q    Type
REMARK                         _______ _______ _______ _____ _____    ______ ____
ROOT
ATOM      1  S   UNL     1       7.433   6.587  18.046  0.00  0.00    +0.000 S 
ENDROOT
BRANCH   1   2
ATOM      2  C   UNL     1       6.742   5.603  16.706  0.00  0.00    +0.000 A 
ATOM      3  N   UNL     1       7.546   5.503  15.616  0.00  0.00    +0.000 NA
ATOM      4  C   UNL     1       7.083   4.765  14.601  0.00  0.00    +0.000 A 
ATOM      5  N   UNL     1       5.909   4.139  14.563  0.00  0.00    +0.000 NA
ATOM      6  C   UNL     1       5.141   4.272  15.666  0.00  0.00    +0.000 A 
ATOM      7  C   UNL     1       5.494   4.962  16.819  0.00  0.00    +0.000 A 
BRANCH   7   8
ATOM      8  C   UNL     1       4.604   4.977  18.023  0.00  0.00    +0.000 A 
ATOM      9  C   UNL     1       4.640   3.872  18.904  0.00  0.00    +0.000 A 
ATOM     10  C   UNL     1       3.733   3.726  19.948  0.00  0.00    +0.000 A 
ATOM     11  C   UNL     1       2.828   4.740  20.216  0.00  0.00    +0.000 A 
ATOM     12  C   UNL     1       2.832   5.917  19.462  0.00  0.00    +0.000 A 
ATOM     13  C   UNL     1       1.968   6.958  19.842  0.00  0.00    +0.000 A 
ATOM     14  C   UNL     1       1.942   8.163  19.149  0.00  0.00    +0.000 A 
ATOM     15  C   UNL     1       2.742   8.318  18.030  0.00  0.00    +0.000 A 
ATOM     16  C   UNL     1       3.573   7.271  17.613  0.00  0.00    +0.000 A 
ATOM     17  C   UNL     1       3.696   6.053  18.336  0.00  0.00    +0.000 A 
ENDBRANCH   7   8
ENDBRANCH   1   2
BRANCH   1  18
ATOM     18  C   UNL     1       7.585   8.238  17.316  0.00  0.00    +0.000 C 
BRANCH  18  20
ATOM     19  O   UNL     1       9.001   8.861  19.164  0.00  0.00    +0.000 OA
ATOM     20  C   UNL     1       8.375   9.220  18.171  0.00  0.00    +0.000 C 
ATOM     21  N   UNL     1       8.345  10.515  17.673  0.00  0.00    +0.000 N 
ATOM     22  H   UNL     1       7.564  10.737  17.057  0.00  0.00    +0.000 HD
BRANCH  21  23
ATOM     23  C   UNL     1       9.150  11.605  18.092  0.00  0.00    +0.000 A 
ATOM     24  C   UNL     1      10.413  11.441  18.638  0.00  0.00    +0.000 A 
ATOM     25  C   UNL     1      11.185  12.554  18.978  0.00  0.00    +0.000 A 
ATOM     26  CA  UNL     1      10.654  13.818  18.740  0.00  0.00    +0.000 A 
ATOM     27  N   UNL     1       9.421  14.043  18.213  0.00  0.00    +0.000 NA
ATOM     28  C   UNL     1       8.709  12.928  17.911  0.00  0.00    +0.000 A 
ATOM     29 CL   UNL     1       7.149  13.288  17.278  0.00  0.00    +0.000 Cl
BRANCH  26  30
ATOM     30  C   UNL     1      11.473  15.029  19.037  0.00  0.00    +0.000 C 
ATOM     31  O   UNL     1      12.328  15.089  19.904  0.00  0.00    +0.000 OA
BRANCH  30  32
ATOM     32  OXT UNL     1      11.150  16.041  18.203  0.00  0.00    +0.000 OA
ATOM     33  HXT UNL     1      10.457  15.745  17.572  0.00  0.00    +0.000 HD
ENDBRANCH  30  32
ENDBRANCH  26  30
ENDBRANCH  21  23
ENDBRANCH  18  20
ENDBRANCH   1  18
TORSDOF 7
ENDMDL
MODEL 3
REMARK VINA RESULT:      -8.5      6.300      8.493
REMARK  Name = 
REMARK  7 active torsions:
REMARK  status: ('A' for Active; 'I' for Inactive)
REMARK    1  A    between atoms: C_2  and  C_3
REMARK    2  A    between atoms: C_3  and  S_4
REMARK    3  A    between atoms: S_4  and  C_5
REMARK    4  A    between atoms: C_10  and  C_11
REMARK    5  A    between atoms: N_21  and  C_22
REMARK    6  A    between atoms: CA_25  and  C_26
REMARK    7  A    between atoms: C_26  and  OXT_28
REMARK                            x       y       z     vdW  Elec       q    Type
REMARK                         _______ _______ _______ _____ _____    ______ ____
ROOT
ATOM      1  S   UNL     1       7.275   6.687  18.216  0.00  0.00    +0.000 S 
ENDROOT
BRANCH   1   2
ATOM      2  C   UNL     1       6.604   5.646  16.910  0.00  0.00    +0.000 A 
ATOM      3  N   UNL     1       7.540   5.130  16.072  0.00  0.00    +0.000 NA
ATOM      4  C   UNL     1       7.092   4.333  15.095  0.00  0.00    +0.000 A 
ATOM      5  N   UNL     1       5.818   4.018  14.869  0.00  0.00    +0.000 NA
ATOM      6  C   UNL     1       4.922   4.557  15.724  0.00  0.00    +0.000 A 
ATOM      7  C   UNL     1       5.228   5.364  16.813  0.00  0.00    +0.000 A 
BRANCH   7   8
ATOM      8  C   UNL     1       4.165   5.844  17.751  0.00  0.00    +0.000 A 
ATOM      9  C   UNL     1       3.637   7.142  17.568  0.00  0.00    +0.000 A 
ATOM     10  C   UNL     1       2.773   7.728  18.487  0.00  0.00    +0.000 A 
ATOM     11  C   UNL     1       2.319   6.990  19.568  0.00  0.00    +0.000 A 
ATOM     12  C   UNL     1       2.701   5.655  19.731  0.00  0.00    +0.000 A 
ATOM     13  C   UNL     1       2.128   4.919  20.781  0.00  0.00    +0.000 A 
ATOM     14  C   UNL     1       2.448   3.581  20.982  0.00  0.00    +0.000 A 
ATOM     15  C   UNL     1       3.391   2.980  20.166  0.00  0.00    +0.000 A 
ATOM     16  C   UNL     1       4.004   3.716  19.145  0.00  0.00    +0.000 A 
ATOM     17  C   UNL     1       3.650   5.061  18.849  0.00  0.00    +0.000 A 
ENDBRANCH   7   8
ENDBRANCH   1   2
BRANCH   1  18
ATOM     18  C   UNL     1       7.504   8.287  17.398  0.00  0.00    +0.000 C 
BRANCH  18  20
ATOM     19  O   UNL     1       9.026   8.908  19.161  0.00  0.00    +0.000 OA
ATOM     20  C   UNL     1       8.373   9.261  18.182  0.00  0.00    +0.000 C 
ATOM     21  N   UNL     1       8.378  10.538  17.638  0.00  0.00    +0.000 N 
ATOM     22  H   UNL     1       7.583  10.773  17.048  0.00  0.00    +0.000 HD
BRANCH  21  23
ATOM     23  C   UNL     1       9.248  11.604  17.982  0.00  0.00    +0.000 A 
ATOM     24  C   UNL     1      10.548  11.403  18.420  0.00  0.00    +0.000 A 
ATOM     25  C   UNL     1      11.379  12.493  18.688  0.00  0.00    +0.000 A 
ATOM     26  CA  UNL     1      10.867  13.771  18.489  0.00  0.00    +0.000 A 
ATOM     27  N   UNL     1       9.602  14.032  18.067  0.00  0.00    +0.000 NA
ATOM     28  C   UNL     1       8.834  12.939  17.832  0.00  0.00    +0.000 A 
ATOM     29 CL   UNL     1       7.237  13.344  17.332  0.00  0.00    +0.000 Cl
BRANCH  26  30
ATOM     30  C   UNL     1      11.745  14.958  18.711  0.00  0.00    +0.000 C 
ATOM     31  O   UNL     1      11.904  15.859  17.906  0.00  0.00    +0.000 OA
BRANCH  30  32
ATOM     32  OXT UNL     1      12.322  14.905  19.931  0.00  0.00    +0.000 OA
ATOM     33  HXT UNL     1      12.528  15.814  20.243  0.00  0.00    +0.000 HD
ENDBRANCH  30  32
ENDBRANCH  26  30
ENDBRANCH  21  23
ENDBRANCH  18  20
ENDBRANCH   1  18
TORSDOF 7
ENDMDL
MODEL 4
REMARK VINA RESULT:      -8.5      3.769      9.844
REMARK  Name = 
REMARK  7 active torsions:
REMARK  status: ('A' for Active; 'I' for Inactive)
REMARK    1  A    between atoms: C_2  and  C_3
REMARK    2  A    between atoms: C_3  and  S_4
REMARK    3  A    between atoms: S_4  and  C_5
REMARK    4  A    between atoms: C_10  and  C_11
REMARK    5  A    between atoms: N_21  and  C_22
REMARK    6  A    between atoms: CA_25  and  C_26
REMARK    7  A    between atoms: C_26  and  OXT_28
REMARK                            x       y       z     vdW  Elec       q    Type
REMARK                         _______ _______ _______ _____ _____    ______ ____
ROOT
ATOM      1  S   UNL     1      -0.492  10.874  22.048  0.00  0.00    +0.000 S 
ENDROOT
BRANCH   1   2
ATOM      2  C   UNL     1      -0.133  12.394  21.152  0.00  0.00    +0.000 A 
ATOM      3  N   UNL     1       0.693  13.247  21.812  0.00  0.00    +0.000 NA
ATOM      4  C   UNL     1       1.005  14.383  21.178  0.00  0.00    +0.000 A 
ATOM      5  N   UNL     1       0.568  14.751  19.975  0.00  0.00    +0.000 NA
ATOM      6  C   UNL     1      -0.254  13.874  19.360  0.00  0.00    +0.000 A 
ATOM      7  C   UNL     1      -0.636  12.635  19.861  0.00  0.00    +0.000 A 
BRANCH   7   8
ATOM      8  C   UNL     1      -1.486  11.699  19.060  0.00  0.00    +0.000 A 
ATOM      9  C   UNL     1      -0.849  10.712  18.274  0.00  0.00    +0.000 A 
ATOM     10  C   UNL     1      -1.548   9.914  17.374  0.00  0.00    +0.000 A 
ATOM     11  C   UNL     1      -2.929   9.999  17.313  0.00  0.00    +0.000 A 
ATOM     12  C   UNL     1      -3.628  10.862  18.162  0.00  0.00    +0.000 A 
ATOM     13  C   UNL     1      -5.033  10.833  18.135  0.00  0.00    +0.000 A 
ATOM     14  C   UNL     1      -5.787  11.648  18.972  0.00  0.00    +0.000 A 
ATOM     15  C   UNL     1      -5.141  12.546  19.805  0.00  0.00    +0.000 A 
ATOM     16  C   UNL     1      -3.743  12.618  19.806  0.00  0.00    +0.000 A 
ATOM     17  C   UNL     1      -2.928  11.749  19.031  0.00  0.00    +0.000 A 
ENDBRANCH   7   8
ENDBRANCH   1   2
BRANCH   1  18
ATOM     18  C   UNL     1       1.004   9.882  21.804  0.00  0.00    +0.000 C 
BRANCH  18  20
ATOM     19  O   UNL     1      -0.407   7.997  21.288  0.00  0.00    +0.000 OA
ATOM     20  C   UNL     1       0.731   8.457  21.340  0.00  0.00    +0.000 C 
ATOM     21  N   UNL     1       1.881   7.788  20.946  0.00  0.00    +0.000 N 
ATOM     22  H   UNL     1       2.756   8.147  21.324  0.00  0.00    +0.000 HD
BRANCH  21  23
ATOM     23  C   UNL     1       1.949   6.550  20.258  0.00  0.00    +0.000 A 
ATOM     24  C   UNL     1       1.690   5.333  20.870  0.00  0.00    +0.000 A 
ATOM     25  C   UNL     1       1.715   4.150  20.128  0.00  0.00    +0.000 A 
ATOM     26  CA  UNL     1       1.991   4.236  18.768  0.00  0.00    +0.000 A 
ATOM     27  N   UNL     1       2.258   5.396  18.112  0.00  0.00    +0.000 NA
ATOM     28  C   UNL     1       2.233   6.514  18.881  0.00  0.00    +0.000 A 
ATOM     29 CL   UNL     1       2.610   7.939  17.993  0.00  0.00    +0.000 Cl
BRANCH  26  30
ATOM     30  C   UNL     1       1.969   2.999  17.933  0.00  0.00    +0.000 C 
ATOM     31  O   UNL     1       2.367   2.934  16.783  0.00  0.00    +0.000 OA
BRANCH  30  32
ATOM     32  OXT UNL     1       1.465   1.959  18.633  0.00  0.00    +0.000 OA
ATOM     33  HXT UNL     1       0.521   2.129  18.850  0.00  0.00    +0.000 HD
ENDBRANCH  30  32
ENDBRANCH  26  30
ENDBRANCH  21  23
ENDBRANCH  18  20
ENDBRANCH   1  18
TORSDOF 7
ENDMDL
MODEL 5
REMARK VINA RESULT:      -8.4      1.793      1.944
REMARK  Name = 
REMARK  7 active torsions:
REMARK  status: ('A' for Active; 'I' for Inactive)
REMARK    1  A    between atoms: C_2  and  C_3
REMARK    2  A    between atoms: C_3  and  S_4
REMARK    3  A    between atoms: S_4  and  C_5
REMARK    4  A    between atoms: C_10  and  C_11
REMARK    5  A    between atoms: N_21  and  C_22
REMARK    6  A    between atoms: CA_25  and  C_26
REMARK    7  A    between atoms: C_26  and  OXT_28
REMARK                            x       y       z     vdW  Elec       q    Type
REMARK                         _______ _______ _______ _____ _____    ______ ____
ROOT
ATOM      1  S   UNL     1       2.612   6.397  19.581  0.00  0.00    +0.000 S 
ENDROOT
BRANCH   1   2
ATOM      2  C   UNL     1       2.458   4.668  19.105  0.00  0.00    +0.000 A 
ATOM      3  N   UNL     1       1.209   4.156  19.261  0.00  0.00    +0.000 NA
ATOM      4  C   UNL     1       1.041   2.878  18.903  0.00  0.00    +0.000 A 
ATOM      5  N   UNL     1       1.985   2.070  18.425  0.00  0.00    +0.000 NA
ATOM      6  C   UNL     1       3.212   2.621  18.292  0.00  0.00    +0.000 A 
ATOM      7  C   UNL     1       3.540   3.941  18.575  0.00  0.00    +0.000 A 
BRANCH   7   8
ATOM      8  C   UNL     1       4.913   4.476  18.313  0.00  0.00    +0.000 A 
ATOM      9  C   UNL     1       5.701   4.885  19.413  0.00  0.00    +0.000 A 
ATOM     10  C   UNL     1       6.915   5.545  19.252  0.00  0.00    +0.000 A 
ATOM     11  C   UNL     1       7.436   5.720  17.981  0.00  0.00    +0.000 A 
ATOM     12  C   UNL     1       6.767   5.219  16.861  0.00  0.00    +0.000 A 
ATOM     13  C   UNL     1       7.390   5.327  15.606  0.00  0.00    +0.000 A 
ATOM     14  C   UNL     1       6.788   4.826  14.457  0.00  0.00    +0.000 A 
ATOM     15  C   UNL     1       5.527   4.262  14.544  0.00  0.00    +0.000 A 
ATOM     16  C   UNL     1       4.876   4.192  15.781  0.00  0.00    +0.000 A 
ATOM     17  C   UNL     1       5.484   4.614  16.995  0.00  0.00    +0.000 A 
ENDBRANCH   7   8
ENDBRANCH   1   2
BRANCH   1  18
ATOM     18  C   UNL     1       2.429   7.280  18.010  0.00  0.00    +0.000 C 
BRANCH  18  20
ATOM     19  O   UNL     1       2.316   9.589  17.329  0.00  0.00    +0.000 OA
ATOM     20  C   UNL     1       2.024   8.740  18.167  0.00  0.00    +0.000 C 
ATOM     21  N   UNL     1       1.264   8.970  19.305  0.00  0.00    +0.000 N 
ATOM     22  H   UNL     1       1.360   8.284  20.050  0.00  0.00    +0.000 HD
BRANCH  21  23
ATOM     23  C   UNL     1       0.545  10.152  19.621  0.00  0.00    +0.000 A 
ATOM     24  C   UNL     1       0.887  10.980  20.678  0.00  0.00    +0.000 A 
ATOM     25  C   UNL     1       0.179  12.162  20.907  0.00  0.00    +0.000 A 
ATOM     26  CA  UNL     1      -0.860  12.481  20.038  0.00  0.00    +0.000 A 
ATOM     27  N   UNL     1      -1.246  11.708  18.989  0.00  0.00    +0.000 NA
ATOM     28  C   UNL     1      -0.533  10.567  18.819  0.00  0.00    +0.000 A 
ATOM     29 CL   UNL     1      -1.095   9.624  17.493  0.00  0.00    +0.000 Cl
BRANCH  26  30
ATOM     30  C   UNL     1      -1.601  13.764  20.218  0.00  0.00    +0.000 C 
ATOM     31  O   UNL     1      -2.503  13.935  21.020  0.00  0.00    +0.000 OA
BRANCH  30  32
ATOM     32  OXT UNL     1      -1.122  14.713  19.384  0.00  0.00    +0.000 OA
ATOM     33  HXT UNL     1      -1.440  15.599  19.669  0.00  0.00    +0.000 HD
ENDBRANCH  30  32
ENDBRANCH  26  30
ENDBRANCH  21  23
ENDBRANCH  18  20
ENDBRANCH   1  18
TORSDOF 7
ENDMDL
MODEL 6
REMARK VINA RESULT:      -8.4      1.126      1.239
REMARK  Name = 
REMARK  7 active torsions:
REMARK  status: ('A' for Active; 'I' for Inactive)
REMARK    1  A    between atoms: C_2  and  C_3
REMARK    2  A    between atoms: C_3  and  S_4
REMARK    3  A    between atoms: S_4  and  C_5
REMARK    4  A    between atoms: C_10  and  C_11
REMARK    5  A    between atoms: N_21  and  C_22
REMARK    6  A    between atoms: CA_25  and  C_26
REMARK    7  A    between atoms: C_26  and  OXT_28
REMARK                            x       y       z     vdW  Elec       q    Type
REMARK                         _______ _______ _______ _____ _____    ______ ____
ROOT
ATOM      1  S   UNL     1       2.360   6.270  18.064  0.00  0.00    +0.000 S 
ENDROOT
BRANCH   1   2
ATOM      2  C   UNL     1       2.458   4.517  18.461  0.00  0.00    +0.000 A 
ATOM      3  N   UNL     1       1.252   3.923  18.662  0.00  0.00    +0.000 NA
ATOM      4  C   UNL     1       1.272   2.615  18.941  0.00  0.00    +0.000 A 
ATOM      5  N   UNL     1       2.361   1.857  19.052  0.00  0.00    +0.000 NA
ATOM      6  C   UNL     1       3.536   2.491  18.850  0.00  0.00    +0.000 A 
ATOM      7  C   UNL     1       3.685   3.830  18.508  0.00  0.00    +0.000 A 
BRANCH   7   8
ATOM      8  C   UNL     1       5.032   4.417  18.223  0.00  0.00    +0.000 A 
ATOM      9  C   UNL     1       5.806   4.890  19.307  0.00  0.00    +0.000 A 
ATOM     10  C   UNL     1       6.989   5.598  19.121  0.00  0.00    +0.000 A 
ATOM     11  C   UNL     1       7.496   5.760  17.842  0.00  0.00    +0.000 A 
ATOM     12  C   UNL     1       6.845   5.198  16.740  0.00  0.00    +0.000 A 
ATOM     13  C   UNL     1       7.456   5.298  15.479  0.00  0.00    +0.000 A 
ATOM     14  C   UNL     1       6.872   4.740  14.348  0.00  0.00    +0.000 A 
ATOM     15  C   UNL     1       5.637   4.124  14.458  0.00  0.00    +0.000 A 
ATOM     16  C   UNL     1       4.995   4.060  15.700  0.00  0.00    +0.000 A 
ATOM     17  C   UNL     1       5.590   4.542  16.898  0.00  0.00    +0.000 A 
ENDBRANCH   7   8
ENDBRANCH   1   2
BRANCH   1  18
ATOM     18  C   UNL     1       2.748   7.077  19.639  0.00  0.00    +0.000 C 
BRANCH  18  20
ATOM     19  O   UNL     1       0.980   7.422  21.240  0.00  0.00    +0.000 OA
ATOM     20  C   UNL     1       1.575   7.835  20.249  0.00  0.00    +0.000 C 
ATOM     21  N   UNL     1       1.312   9.033  19.600  0.00  0.00    +0.000 N 
ATOM     22  H   UNL     1       1.648   9.103  18.642  0.00  0.00    +0.000 HD
BRANCH  21  23
ATOM     23  C   UNL     1       0.452  10.069  20.047  0.00  0.00    +0.000 A 
ATOM     24  C   UNL     1       0.613  10.704  21.269  0.00  0.00    +0.000 A 
ATOM     25  C   UNL     1      -0.229  11.759  21.631  0.00  0.00    +0.000 A 
ATOM     26  CA  UNL     1      -1.211  12.154  20.729  0.00  0.00    +0.000 A 
ATOM     27  N   UNL     1      -1.420  11.568  19.521  0.00  0.00    +0.000 NA
ATOM     28  C   UNL     1      -0.584  10.542  19.223  0.00  0.00    +0.000 A 
ATOM     29 CL   UNL     1      -0.927   9.828  17.694  0.00  0.00    +0.000 Cl
BRANCH  26  30
ATOM     30  C   UNL     1      -2.089  13.314  21.059  0.00  0.00    +0.000 C 
ATOM     31  O   UNL     1      -2.211  13.794  22.173  0.00  0.00    +0.000 OA
BRANCH  30  32
ATOM     32  OXT UNL     1      -2.714  13.770  19.951  0.00  0.00    +0.000 OA
ATOM     33  HXT UNL     1      -2.100  14.335  19.430  0.00  0.00    +0.000 HD
ENDBRANCH  30  32
ENDBRANCH  26  30
ENDBRANCH  21  23
ENDBRANCH  18  20
ENDBRANCH   1  18
TORSDOF 7
ENDMDL
MODEL 7
REMARK VINA RESULT:      -8.3      1.617      1.842
REMARK  Name = 
REMARK  7 active torsions:
REMARK  status: ('A' for Active; 'I' for Inactive)
REMARK    1  A    between atoms: C_2  and  C_3
REMARK    2  A    between atoms: C_3  and  S_4
REMARK    3  A    between atoms: S_4  and  C_5
REMARK    4  A    between atoms: C_10  and  C_11
REMARK    5  A    between atoms: N_21  and  C_22
REMARK    6  A    between atoms: CA_25  and  C_26
REMARK    7  A    between atoms: C_26  and  OXT_28
REMARK                            x       y       z     vdW  Elec       q    Type
REMARK                         _______ _______ _______ _____ _____    ______ ____
ROOT
ATOM      1  S   UNL     1       2.619   6.171  19.627  0.00  0.00    +0.000 S 
ENDROOT
BRANCH   1   2
ATOM      2  C   UNL     1       2.484   4.485  19.010  0.00  0.00    +0.000 A 
ATOM      3  N   UNL     1       1.244   3.942  19.135  0.00  0.00    +0.000 NA
ATOM      4  C   UNL     1       1.089   2.697  18.673  0.00  0.00    +0.000 A 
ATOM      5  N   UNL     1       2.040   1.946  18.119  0.00  0.00    +0.000 NA
ATOM      6  C   UNL     1       3.256   2.525  18.020  0.00  0.00    +0.000 A 
ATOM      7  C   UNL     1       3.570   3.821  18.409  0.00  0.00    +0.000 A 
BRANCH   7   8
ATOM      8  C   UNL     1       4.932   4.397  18.177  0.00  0.00    +0.000 A 
ATOM      9  C   UNL     1       5.683   4.826  19.295  0.00  0.00    +0.000 A 
ATOM     10  C   UNL     1       6.880   5.522  19.162  0.00  0.00    +0.000 A 
ATOM     11  C   UNL     1       7.424   5.715  17.903  0.00  0.00    +0.000 A 
ATOM     12  C   UNL     1       6.795   5.196  16.768  0.00  0.00    +0.000 A 
ATOM     13  C   UNL     1       7.442   5.325  15.527  0.00  0.00    +0.000 A 
ATOM     14  C   UNL     1       6.880   4.810  14.364  0.00  0.00    +0.000 A 
ATOM     15  C   UNL     1       5.634   4.208  14.422  0.00  0.00    +0.000 A 
ATOM     16  C   UNL     1       4.958   4.116  15.645  0.00  0.00    +0.000 A 
ATOM     17  C   UNL     1       5.527   4.553  16.872  0.00  0.00    +0.000 A 
ENDBRANCH   7   8
ENDBRANCH   1   2
BRANCH   1  18
ATOM     18  C   UNL     1       2.645   7.167  18.115  0.00  0.00    +0.000 C 
BRANCH  18  20
ATOM     19  O   UNL     1       2.092   9.398  17.390  0.00  0.00    +0.000 OA
ATOM     20  C   UNL     1       2.034   8.553  18.279  0.00  0.00    +0.000 C 
ATOM     21  N   UNL     1       1.380   8.714  19.492  0.00  0.00    +0.000 N 
ATOM     22  H   UNL     1       1.667   8.085  20.239  0.00  0.00    +0.000 HD
BRANCH  21  23
ATOM     23  C   UNL     1       0.523   9.783  19.859  0.00  0.00    +0.000 A 
ATOM     24  C   UNL     1      -0.217  10.505  18.936  0.00  0.00    +0.000 A 
ATOM     25  C   UNL     1      -1.089  11.510  19.361  0.00  0.00    +0.000 A 
ATOM     26  CA  UNL     1      -1.198  11.748  20.727  0.00  0.00    +0.000 A 
ATOM     27  N   UNL     1      -0.496  11.078  21.679  0.00  0.00    +0.000 NA
ATOM     28  C   UNL     1       0.345  10.122  21.212  0.00  0.00    +0.000 A 
ATOM     29 CL   UNL     1       1.222   9.338  22.469  0.00  0.00    +0.000 Cl
BRANCH  26  30
ATOM     30  C   UNL     1      -2.163  12.774  21.221  0.00  0.00    +0.000 C 
ATOM     31  O   UNL     1      -3.359  12.585  21.365  0.00  0.00    +0.000 OA
BRANCH  30  32
ATOM     32  OXT UNL     1      -1.527  13.931  21.504  0.00  0.00    +0.000 OA
ATOM     33  HXT UNL     1      -0.667  13.741  21.941  0.00  0.00    +0.000 HD
ENDBRANCH  30  32
ENDBRANCH  26  30
ENDBRANCH  21  23
ENDBRANCH  18  20
ENDBRANCH   1  18
TORSDOF 7
ENDMDL
MODEL 8
REMARK VINA RESULT:      -8.3      1.645      1.921
REMARK  Name = 
REMARK  7 active torsions:
REMARK  status: ('A' for Active; 'I' for Inactive)
REMARK    1  A    between atoms: C_2  and  C_3
REMARK    2  A    between atoms: C_3  and  S_4
REMARK    3  A    between atoms: S_4  and  C_5
REMARK    4  A    between atoms: C_10  and  C_11
REMARK    5  A    between atoms: N_21  and  C_22
REMARK    6  A    between atoms: CA_25  and  C_26
REMARK    7  A    between atoms: C_26  and  OXT_28
REMARK                            x       y       z     vdW  Elec       q    Type
REMARK                         _______ _______ _______ _____ _____    ______ ____
ROOT
ATOM      1  S   UNL     1       2.320   6.251  18.064  0.00  0.00    +0.000 S 
ENDROOT
BRANCH   1   2
ATOM      2  C   UNL     1       2.424   4.485  18.395  0.00  0.00    +0.000 A 
ATOM      3  N   UNL     1       1.220   3.880  18.575  0.00  0.00    +0.000 NA
ATOM      4  C   UNL     1       1.245   2.562  18.805  0.00  0.00    +0.000 A 
ATOM      5  N   UNL     1       2.337   1.804  18.886  0.00  0.00    +0.000 NA
ATOM      6  C   UNL     1       3.509   2.450  18.706  0.00  0.00    +0.000 A 
ATOM      7  C   UNL     1       3.653   3.800  18.414  0.00  0.00    +0.000 A 
BRANCH   7   8
ATOM      8  C   UNL     1       4.998   4.402  18.149  0.00  0.00    +0.000 A 
ATOM      9  C   UNL     1       5.754   4.877  19.244  0.00  0.00    +0.000 A 
ATOM     10  C   UNL     1       6.932   5.598  19.076  0.00  0.00    +0.000 A 
ATOM     11  C   UNL     1       7.453   5.771  17.805  0.00  0.00    +0.000 A 
ATOM     12  C   UNL     1       6.821   5.209  16.692  0.00  0.00    +0.000 A 
ATOM     13  C   UNL     1       7.447   5.322  15.440  0.00  0.00    +0.000 A 
ATOM     14  C   UNL     1       6.881   4.764  14.298  0.00  0.00    +0.000 A 
ATOM     15  C   UNL     1       5.651   4.135  14.390  0.00  0.00    +0.000 A 
ATOM     16  C   UNL     1       4.995   4.058  15.624  0.00  0.00    +0.000 A 
ATOM     17  C   UNL     1       5.570   4.540  16.831  0.00  0.00    +0.000 A 
ENDBRANCH   7   8
ENDBRANCH   1   2
BRANCH   1  18
ATOM     18  C   UNL     1       2.728   7.000  19.662  0.00  0.00    +0.000 C 
BRANCH  18  20
ATOM     19  O   UNL     1       1.339   8.102  21.294  0.00  0.00    +0.000 OA
ATOM     20  C   UNL     1       1.721   8.044  20.129  0.00  0.00    +0.000 C 
ATOM     21  N   UNL     1       1.348   8.922  19.121  0.00  0.00    +0.000 N 
ATOM     22  H   UNL     1       1.478   8.587  18.169  0.00  0.00    +0.000 HD
BRANCH  21  23
ATOM     23  C   UNL     1       0.619  10.129  19.274  0.00  0.00    +0.000 A 
ATOM     24  C   UNL     1      -0.594  10.196  19.944  0.00  0.00    +0.000 A 
ATOM     25  C   UNL     1      -1.239  11.423  20.114  0.00  0.00    +0.000 A 
ATOM     26  CA  UNL     1      -0.623  12.563  19.608  0.00  0.00    +0.000 A 
ATOM     27  N   UNL     1       0.560  12.561  18.939  0.00  0.00    +0.000 NA
ATOM     28  C   UNL     1       1.138  11.343  18.791  0.00  0.00    +0.000 A 
ATOM     29 CL   UNL     1       2.615  11.412  17.908  0.00  0.00    +0.000 Cl
BRANCH  26  30
ATOM     30  C   UNL     1      -1.256  13.897  19.823  0.00  0.00    +0.000 C 
ATOM     31  O   UNL     1      -2.049  14.151  20.713  0.00  0.00    +0.000 OA
BRANCH  30  32
ATOM     32  OXT UNL     1      -0.813  14.788  18.909  0.00  0.00    +0.000 OA
ATOM     33  HXT UNL     1       0.044  14.484  18.534  0.00  0.00    +0.000 HD
ENDBRANCH  30  32
ENDBRANCH  26  30
ENDBRANCH  21  23
ENDBRANCH  18  20
ENDBRANCH   1  18
TORSDOF 7
ENDMDL
MODEL 9
REMARK VINA RESULT:      -8.2      3.846      9.714
REMARK  Name = 
REMARK  7 active torsions:
REMARK  status: ('A' for Active; 'I' for Inactive)
REMARK    1  A    between atoms: C_2  and  C_3
REMARK    2  A    between atoms: C_3  and  S_4
REMARK    3  A    between atoms: S_4  and  C_5
REMARK    4  A    between atoms: C_10  and  C_11
REMARK    5  A    between atoms: N_21  and  C_22
REMARK    6  A    between atoms: CA_25  and  C_26
REMARK    7  A    between atoms: C_26  and  OXT_28
REMARK                            x       y       z     vdW  Elec       q    Type
REMARK                         _______ _______ _______ _____ _____    ______ ____
ROOT
ATOM      1  S   UNL     1      -0.381  10.716  21.796  0.00  0.00    +0.000 S 
ENDROOT
BRANCH   1   2
ATOM      2  C   UNL     1       0.261  12.163  20.938  0.00  0.00    +0.000 A 
ATOM      3  N   UNL     1       1.580  12.403  21.159  0.00  0.00    +0.000 NA
ATOM      4  C   UNL     1       2.107  13.458  20.527  0.00  0.00    +0.000 A 
ATOM      5  N   UNL     1       1.454  14.291  19.720  0.00  0.00    +0.000 NA
ATOM      6  C   UNL     1       0.145  14.016  19.533  0.00  0.00    +0.000 A 
ATOM      7  C   UNL     1      -0.541  12.937  20.078  0.00  0.00    +0.000 A 
BRANCH   7   8
ATOM      8  C   UNL     1      -1.975  12.673  19.740  0.00  0.00    +0.000 A 
ATOM      9  C   UNL     1      -2.977  13.372  20.451  0.00  0.00    +0.000 A 
ATOM     10  C   UNL     1      -4.328  13.070  20.321  0.00  0.00    +0.000 A 
ATOM     11  C   UNL     1      -4.732  12.130  19.387  0.00  0.00    +0.000 A 
ATOM     12  C   UNL     1      -3.799  11.501  18.559  0.00  0.00    +0.000 A 
ATOM     13  C   UNL     1      -4.270  10.637  17.556  0.00  0.00    +0.000 A 
ATOM     14  C   UNL     1      -3.394   9.999  16.684  0.00  0.00    +0.000 A 
ATOM     15  C   UNL     1      -2.031  10.175  16.844  0.00  0.00    +0.000 A 
ATOM     16  C   UNL     1      -1.547  10.996  17.870  0.00  0.00    +0.000 A 
ATOM     17  C   UNL     1      -2.403  11.733  18.732  0.00  0.00    +0.000 A 
ENDBRANCH   7   8
ENDBRANCH   1   2
BRANCH   1  18
ATOM     18  C   UNL     1       1.041   9.596  21.845  0.00  0.00    +0.000 C 
BRANCH  18  20
ATOM     19  O   UNL     1      -0.434   7.760  21.332  0.00  0.00    +0.000 OA
ATOM     20  C   UNL     1       0.720   8.172  21.408  0.00  0.00    +0.000 C 
ATOM     21  N   UNL     1       1.851   7.445  21.066  0.00  0.00    +0.000 N 
ATOM     22  H   UNL     1       2.729   7.775  21.462  0.00  0.00    +0.000 HD
BRANCH  21  23
ATOM     23  C   UNL     1       1.886   6.188  20.410  0.00  0.00    +0.000 A 
ATOM     24  C   UNL     1       1.547   5.001  21.041  0.00  0.00    +0.000 A 
ATOM     25  C   UNL     1       1.543   3.799  20.329  0.00  0.00    +0.000 A 
ATOM     26  CA  UNL     1       1.873   3.837  18.978  0.00  0.00    +0.000 A 
ATOM     27  N   UNL     1       2.219   4.967  18.306  0.00  0.00    +0.000 NA
ATOM     28  C   UNL     1       2.218   6.103  19.047  0.00  0.00    +0.000 A 
ATOM     29 CL   UNL     1       2.695   7.487  18.140  0.00  0.00    +0.000 Cl
BRANCH  26  30
ATOM     30  C   UNL     1       1.823   2.582  18.173  0.00  0.00    +0.000 C 
ATOM     31  O   UNL     1       2.767   2.117  17.558  0.00  0.00    +0.000 OA
BRANCH  30  32
ATOM     32  OXT UNL     1       0.595   2.023  18.235  0.00  0.00    +0.000 OA
ATOM     33  HXT UNL     1       0.291   1.986  19.170  0.00  0.00    +0.000 HD
ENDBRANCH  30  32
ENDBRANCH  26  30
ENDBRANCH  21  23
ENDBRANCH  18  20
ENDBRANCH   1  18
TORSDOF 7
ENDMDL
