MODEL 1
REMARK VINA RESULT:      -7.6      0.000      0.000
REMARK  Name = 
REMARK  5 active torsions:
REMARK  status: ('A' for Active; 'I' for Inactive)
REMARK    1  A    between atoms: C_1  and  C_2
REMARK    2  A    between atoms: C_2  and  C_3
REMARK    3  A    between atoms: C_3  and  N_4
REMARK    4  A    between atoms: C_7  and  C_9
REMARK    5  A    between atoms: C_9  and  C_10
REMARK                            x       y       z     vdW  Elec       q    Type
REMARK                         _______ _______ _______ _____ _____    ______ ____
ROOT
ATOM      1  N   UNL     1       3.365   6.181  19.014  0.00  0.00    +0.000 N 
ATOM      2  C   UNL     1       4.044   6.301  17.818  0.00  0.00    +0.000 A 
ATOM      3  N   UNL     1       4.932   5.351  17.368  0.00  0.00    +0.000 N 
ATOM      4  C   UNL     1       6.143   5.742  16.839  0.00  0.00    +0.000 C 
ATOM      5  O   UNL     1       6.636   6.869  16.911  0.00  0.00    +0.000 OA
ATOM      6  N   UNL     1       3.681   7.383  17.172  0.00  0.00    +0.000 NA
ATOM      7  C   UNL     1       2.763   8.006  17.975  0.00  0.00    +0.000 A 
ATOM      8  C   UNL     1       2.038   9.187  17.750  0.00  0.00    +0.000 A 
ATOM      9  C   UNL     1       1.168   9.648  18.745  0.00  0.00    +0.000 A 
ATOM     10  C   UNL     1       1.026   8.951  19.945  0.00  0.00    +0.000 A 
ATOM     11  C   UNL     1       1.724   7.760  20.179  0.00  0.00    +0.000 A 
ATOM     12  C   UNL     1       2.575   7.303  19.163  0.00  0.00    +0.000 A 
ATOM     13  H   UNL     1       4.530   4.473  17.068  0.00  0.00    +0.000 HD
ENDROOT
BRANCH   1  14
ATOM     14  C   UNL     1       3.439   5.077  19.952  0.00  0.00    +0.000 C 
BRANCH  14  16
ATOM     15  C   UNL     1       1.176   4.054  20.556  0.00  0.00    +0.000 C 
ATOM     16  C   UNL     1       2.450   3.927  19.734  0.00  0.00    +0.000 C 
ENDBRANCH  14  16
ENDBRANCH   1  14
BRANCH   4  17
ATOM     17  C   UNL     1       6.946   4.588  16.255  0.00  0.00    +0.000 C 
BRANCH  17  18
ATOM     18  C   UNL     1       6.890   4.463  14.751  0.00  0.00    +0.000 A 
ATOM     19  C   UNL     1       5.946   3.652  14.109  0.00  0.00    +0.000 A 
ATOM     20  C   UNL     1       5.912   3.569  12.716  0.00  0.00    +0.000 A 
ATOM     21  C   UNL     1       6.805   4.313  11.948  0.00  0.00    +0.000 A 
ATOM     22  C   UNL     1       7.720   5.157  12.571  0.00  0.00    +0.000 A 
ATOM     23  C   UNL     1       7.757   5.239  13.965  0.00  0.00    +0.000 A 
ENDBRANCH  17  18
ENDBRANCH   4  17
TORSDOF 4
ENDMDL
MODEL 2
REMARK VINA RESULT:      -7.5      0.434      1.123
REMARK  Name = 
REMARK  5 active torsions:
REMARK  status: ('A' for Active; 'I' for Inactive)
REMARK    1  A    between atoms: C_1  and  C_2
REMARK    2  A    between atoms: C_2  and  C_3
REMARK    3  A    between atoms: C_3  and  N_4
REMARK    4  A    between atoms: C_7  and  C_9
REMARK    5  A    between atoms: C_9  and  C_10
REMARK                            x       y       z     vdW  Elec       q    Type
REMARK                         _______ _______ _______ _____ _____    ______ ____
ROOT
ATOM      1  N   UNL     1       3.149   6.209  19.087  0.00  0.00    +0.000 N 
ATOM      2  C   UNL     1       3.758   6.261  17.850  0.00  0.00    +0.000 A 
ATOM      3  N   UNL     1       4.567   5.252  17.376  0.00  0.00    +0.000 N 
ATOM      4  C   UNL     1       5.762   5.564  16.764  0.00  0.00    +0.000 C 
ATOM      5  O   UNL     1       6.316   6.664  16.773  0.00  0.00    +0.000 OA
ATOM      6  N   UNL     1       3.413   7.343  17.195  0.00  0.00    +0.000 NA
ATOM      7  C   UNL     1       2.579   8.035  18.032  0.00  0.00    +0.000 A 
ATOM      8  C   UNL     1       1.904   9.247  17.815  0.00  0.00    +0.000 A 
ATOM      9  C   UNL     1       1.122   9.780  18.846  0.00  0.00    +0.000 A 
ATOM     10  C   UNL     1       1.018   9.124  20.073  0.00  0.00    +0.000 A 
ATOM     11  C   UNL     1       1.667   7.904  20.300  0.00  0.00    +0.000 A 
ATOM     12  C   UNL     1       2.428   7.375  19.249  0.00  0.00    +0.000 A 
ATOM     13  H   UNL     1       4.103   4.390  17.127  0.00  0.00    +0.000 HD
ENDROOT
BRANCH   1  14
ATOM     14  C   UNL     1       3.223   5.128  20.052  0.00  0.00    +0.000 C 
BRANCH  14  16
ATOM     15  C   UNL     1       1.304   3.779  19.037  0.00  0.00    +0.000 C 
ATOM     16  C   UNL     1       1.930   4.346  20.302  0.00  0.00    +0.000 C 
ENDBRANCH  14  16
ENDBRANCH   1  14
BRANCH   4  17
ATOM     17  C   UNL     1       6.467   4.353  16.168  0.00  0.00    +0.000 C 
BRANCH  17  18
ATOM     18  C   UNL     1       6.665   4.398  14.672  0.00  0.00    +0.000 A 
ATOM     19  C   UNL     1       7.643   5.203  14.076  0.00  0.00    +0.000 A 
ATOM     20  C   UNL     1       7.809   5.211  12.690  0.00  0.00    +0.000 A 
ATOM     21  C   UNL     1       7.016   4.397  11.885  0.00  0.00    +0.000 A 
ATOM     22  C   UNL     1       6.070   3.558  12.466  0.00  0.00    +0.000 A 
ATOM     23  C   UNL     1       5.900   3.551  13.853  0.00  0.00    +0.000 A 
ENDBRANCH  17  18
ENDBRANCH   4  17
TORSDOF 4
ENDMDL
MODEL 3
REMARK VINA RESULT:      -7.2      2.271      7.317
REMARK  Name = 
REMARK  5 active torsions:
REMARK  status: ('A' for Active; 'I' for Inactive)
REMARK    1  A    between atoms: C_1  and  C_2
REMARK    2  A    between atoms: C_2  and  C_3
REMARK    3  A    between atoms: C_3  and  N_4
REMARK    4  A    between atoms: C_7  and  C_9
REMARK    5  A    between atoms: C_9  and  C_10
REMARK                            x       y       z     vdW  Elec       q    Type
REMARK                         _______ _______ _______ _____ _____    ______ ____
ROOT
ATOM      1  N   UNL     1       3.019   5.581  17.839  0.00  0.00    +0.000 N 
ATOM      2  C   UNL     1       3.159   6.926  18.111  0.00  0.00    +0.000 A 
ATOM      3  N   UNL     1       2.227   7.642  18.828  0.00  0.00    +0.000 N 
ATOM      4  C   UNL     1       1.835   8.888  18.387  0.00  0.00    +0.000 C 
ATOM      5  O   UNL     1       2.069   9.372  17.280  0.00  0.00    +0.000 OA
ATOM      6  N   UNL     1       4.300   7.387  17.656  0.00  0.00    +0.000 NA
ATOM      7  C   UNL     1       4.912   6.325  17.044  0.00  0.00    +0.000 A 
ATOM      8  C   UNL     1       6.167   6.261  16.418  0.00  0.00    +0.000 A 
ATOM      9  C   UNL     1       6.569   5.056  15.829  0.00  0.00    +0.000 A 
ATOM     10  C   UNL     1       5.736   3.938  15.857  0.00  0.00    +0.000 A 
ATOM     11  C   UNL     1       4.491   3.976  16.496  0.00  0.00    +0.000 A 
ATOM     12  C   UNL     1       4.115   5.185  17.098  0.00  0.00    +0.000 A 
ATOM     13  H   UNL     1       2.170   7.434  19.815  0.00  0.00    +0.000 HD
ENDROOT
BRANCH   1  14
ATOM     14  C   UNL     1       1.934   4.714  18.260  0.00  0.00    +0.000 C 
BRANCH  14  16
ATOM     15  C   UNL     1       1.100   3.995  20.566  0.00  0.00    +0.000 C 
ATOM     16  C   UNL     1       2.185   3.862  19.508  0.00  0.00    +0.000 C 
ENDBRANCH  14  16
ENDBRANCH   1  14
BRANCH   4  17
ATOM     17  C   UNL     1       0.913   9.608  19.363  0.00  0.00    +0.000 C 
BRANCH  17  18
ATOM     18  C   UNL     1      -0.293  10.268  18.738  0.00  0.00    +0.000 A 
ATOM     19  C   UNL     1      -0.742  11.530  19.143  0.00  0.00    +0.000 A 
ATOM     20  C   UNL     1      -1.852  12.119  18.536  0.00  0.00    +0.000 A 
ATOM     21  C   UNL     1      -2.513  11.462  17.500  0.00  0.00    +0.000 A 
ATOM     22  C   UNL     1      -2.052  10.227  17.056  0.00  0.00    +0.000 A 
ATOM     23  C   UNL     1      -0.942   9.636  17.665  0.00  0.00    +0.000 A 
ENDBRANCH  17  18
ENDBRANCH   4  17
TORSDOF 4
ENDMDL
MODEL 4
REMARK VINA RESULT:      -7.2      2.211      7.339
REMARK  Name = 
REMARK  5 active torsions:
REMARK  status: ('A' for Active; 'I' for Inactive)
REMARK    1  A    between atoms: C_1  and  C_2
REMARK    2  A    between atoms: C_2  and  C_3
REMARK    3  A    between atoms: C_3  and  N_4
REMARK    4  A    between atoms: C_7  and  C_9
REMARK    5  A    between atoms: C_9  and  C_10
REMARK                            x       y       z     vdW  Elec       q    Type
REMARK                         _______ _______ _______ _____ _____    ______ ____
ROOT
ATOM      1  N   UNL     1       3.379   5.356  18.068  0.00  0.00    +0.000 N 
ATOM      2  C   UNL     1       3.387   6.735  18.130  0.00  0.00    +0.000 A 
ATOM      3  N   UNL     1       2.549   7.447  18.958  0.00  0.00    +0.000 N 
ATOM      4  C   UNL     1       1.896   8.562  18.477  0.00  0.00    +0.000 C 
ATOM      5  O   UNL     1       1.803   8.893  17.295  0.00  0.00    +0.000 OA
ATOM      6  N   UNL     1       4.319   7.240  17.358  0.00  0.00    +0.000 NA
ATOM      7  C   UNL     1       4.920   6.170  16.750  0.00  0.00    +0.000 A 
ATOM      8  C   UNL     1       5.997   6.146  15.850  0.00  0.00    +0.000 A 
ATOM      9  C   UNL     1       6.421   4.916  15.334  0.00  0.00    +0.000 A 
ATOM     10  C   UNL     1       5.782   3.732  15.701  0.00  0.00    +0.000 A 
ATOM     11  C   UNL     1       4.721   3.734  16.615  0.00  0.00    +0.000 A 
ATOM     12  C   UNL     1       4.324   4.973  17.137  0.00  0.00    +0.000 A 
ATOM     13  H   UNL     1       2.746   7.388  19.947  0.00  0.00    +0.000 HD
ENDROOT
BRANCH   1  14
ATOM     14  C   UNL     1       2.551   4.452  18.843  0.00  0.00    +0.000 C 
BRANCH  14  16
ATOM     15  C   UNL     1       0.889   2.512  18.776  0.00  0.00    +0.000 C 
ATOM     16  C   UNL     1       1.394   3.778  18.100  0.00  0.00    +0.000 C 
ENDBRANCH  14  16
ENDBRANCH   1  14
BRANCH   4  17
ATOM     17  C   UNL     1       1.126   9.319  19.551  0.00  0.00    +0.000 C 
BRANCH  17  18
ATOM     18  C   UNL     1       0.534  10.635  19.108  0.00  0.00    +0.000 A 
ATOM     19  C   UNL     1       1.290  11.812  19.065  0.00  0.00    +0.000 A 
ATOM     20  C   UNL     1       0.716  13.011  18.638  0.00  0.00    +0.000 A 
ATOM     21  C   UNL     1      -0.615  13.042  18.227  0.00  0.00    +0.000 A 
ATOM     22  C   UNL     1      -1.367  11.870  18.222  0.00  0.00    +0.000 A 
ATOM     23  C   UNL     1      -0.794  10.671  18.652  0.00  0.00    +0.000 A 
ENDBRANCH  17  18
ENDBRANCH   4  17
TORSDOF 4
ENDMDL
MODEL 5
REMARK VINA RESULT:      -7.2      2.139      7.280
REMARK  Name = 
REMARK  5 active torsions:
REMARK  status: ('A' for Active; 'I' for Inactive)
REMARK    1  A    between atoms: C_1  and  C_2
REMARK    2  A    between atoms: C_2  and  C_3
REMARK    3  A    between atoms: C_3  and  N_4
REMARK    4  A    between atoms: C_7  and  C_9
REMARK    5  A    between atoms: C_9  and  C_10
REMARK                            x       y       z     vdW  Elec       q    Type
REMARK                         _______ _______ _______ _____ _____    ______ ____
ROOT
ATOM      1  N   UNL     1       3.176   5.364  17.885  0.00  0.00    +0.000 N 
ATOM      2  C   UNL     1       3.292   6.717  18.133  0.00  0.00    +0.000 A 
ATOM      3  N   UNL     1       2.385   7.414  18.898  0.00  0.00    +0.000 N 
ATOM      4  C   UNL     1       1.928   8.642  18.470  0.00  0.00    +0.000 C 
ATOM      5  O   UNL     1       2.078   9.119  17.344  0.00  0.00    +0.000 OA
ATOM      6  N   UNL     1       4.388   7.205  17.603  0.00  0.00    +0.000 NA
ATOM      7  C   UNL     1       4.993   6.155  16.966  0.00  0.00    +0.000 A 
ATOM      8  C   UNL     1       6.208   6.120  16.263  0.00  0.00    +0.000 A 
ATOM      9  C   UNL     1       6.610   4.920  15.663  0.00  0.00    +0.000 A 
ATOM     10  C   UNL     1       5.815   3.778  15.755  0.00  0.00    +0.000 A 
ATOM     11  C   UNL     1       4.611   3.788  16.471  0.00  0.00    +0.000 A 
ATOM     12  C   UNL     1       4.236   4.992  17.082  0.00  0.00    +0.000 A 
ATOM     13  H   UNL     1       2.395   7.217  19.889  0.00  0.00    +0.000 HD
ENDROOT
BRANCH   1  14
ATOM     14  C   UNL     1       2.147   4.471  18.382  0.00  0.00    +0.000 C 
BRANCH  14  16
ATOM     15  C   UNL     1       1.048   3.518  20.483  0.00  0.00    +0.000 C 
ATOM     16  C   UNL     1       2.345   3.919  19.797  0.00  0.00    +0.000 C 
ENDBRANCH  14  16
ENDBRANCH   1  14
BRANCH   4  17
ATOM     17  C   UNL     1       1.047   9.346  19.492  0.00  0.00    +0.000 C 
BRANCH  17  18
ATOM     18  C   UNL     1       0.401  10.623  19.011  0.00  0.00    +0.000 A 
ATOM     19  C   UNL     1      -0.891  10.644  18.472  0.00  0.00    +0.000 A 
ATOM     20  C   UNL     1      -1.465  11.844  18.048  0.00  0.00    +0.000 A 
ATOM     21  C   UNL     1      -0.764  13.040  18.181  0.00  0.00    +0.000 A 
ATOM     22  C   UNL     1       0.503  13.042  18.757  0.00  0.00    +0.000 A 
ATOM     23  C   UNL     1       1.079  11.841  19.179  0.00  0.00    +0.000 A 
ENDBRANCH  17  18
ENDBRANCH   4  17
TORSDOF 4
ENDMDL
MODEL 6
REMARK VINA RESULT:      -7.1      2.285      7.309
REMARK  Name = 
REMARK  5 active torsions:
REMARK  status: ('A' for Active; 'I' for Inactive)
REMARK    1  A    between atoms: C_1  and  C_2
REMARK    2  A    between atoms: C_2  and  C_3
REMARK    3  A    between atoms: C_3  and  N_4
REMARK    4  A    between atoms: C_7  and  C_9
REMARK    5  A    between atoms: C_9  and  C_10
REMARK                            x       y       z     vdW  Elec       q    Type
REMARK                         _______ _______ _______ _____ _____    ______ ____
ROOT
ATOM      1  N   UNL     1       2.976   5.557  17.867  0.00  0.00    +0.000 N 
ATOM      2  C   UNL     1       3.142   6.898  18.149  0.00  0.00    +0.000 A 
ATOM      3  N   UNL     1       2.208   7.633  18.844  0.00  0.00    +0.000 N 
ATOM      4  C   UNL     1       1.856   8.889  18.399  0.00  0.00    +0.000 C 
ATOM      5  O   UNL     1       2.129   9.372  17.300  0.00  0.00    +0.000 OA
ATOM      6  N   UNL     1       4.304   7.334  17.724  0.00  0.00    +0.000 NA
ATOM      7  C   UNL     1       4.907   6.260  17.124  0.00  0.00    +0.000 A 
ATOM      8  C   UNL     1       6.175   6.169  16.529  0.00  0.00    +0.000 A 
ATOM      9  C   UNL     1       6.564   4.957  15.946  0.00  0.00    +0.000 A 
ATOM     10  C   UNL     1       5.705   3.858  15.948  0.00  0.00    +0.000 A 
ATOM     11  C   UNL     1       4.445   3.924  16.556  0.00  0.00    +0.000 A 
ATOM     12  C   UNL     1       4.082   5.139  17.153  0.00  0.00    +0.000 A 
ATOM     13  H   UNL     1       2.121   7.423  19.829  0.00  0.00    +0.000 HD
ENDROOT
BRANCH   1  14
ATOM     14  C   UNL     1       1.862   4.715  18.257  0.00  0.00    +0.000 C 
BRANCH  14  16
ATOM     15  C   UNL     1       2.724   2.900  19.836  0.00  0.00    +0.000 C 
ATOM     16  C   UNL     1       1.889   4.162  19.685  0.00  0.00    +0.000 C 
ENDBRANCH  14  16
ENDBRANCH   1  14
BRANCH   4  17
ATOM     17  C   UNL     1       0.927   9.627  19.353  0.00  0.00    +0.000 C 
BRANCH  17  18
ATOM     18  C   UNL     1      -0.275  10.275  18.707  0.00  0.00    +0.000 A 
ATOM     19  C   UNL     1      -0.984   9.655  17.671  0.00  0.00    +0.000 A 
ATOM     20  C   UNL     1      -2.099  10.275  17.104  0.00  0.00    +0.000 A 
ATOM     21  C   UNL     1      -2.532  11.510  17.581  0.00  0.00    +0.000 A 
ATOM     22  C   UNL     1      -1.863  12.117  18.640  0.00  0.00    +0.000 A 
ATOM     23  C   UNL     1      -0.746  11.500  19.207  0.00  0.00    +0.000 A 
ENDBRANCH  17  18
ENDBRANCH   4  17
TORSDOF 4
ENDMDL
MODEL 7
REMARK VINA RESULT:      -7.1      1.435      3.666
REMARK  Name = 
REMARK  5 active torsions:
REMARK  status: ('A' for Active; 'I' for Inactive)
REMARK    1  A    between atoms: C_1  and  C_2
REMARK    2  A    between atoms: C_2  and  C_3
REMARK    3  A    between atoms: C_3  and  N_4
REMARK    4  A    between atoms: C_7  and  C_9
REMARK    5  A    between atoms: C_9  and  C_10
REMARK                            x       y       z     vdW  Elec       q    Type
REMARK                         _______ _______ _______ _____ _____    ______ ____
ROOT
ATOM      1  N   UNL     1       2.925   5.063  18.676  0.00  0.00    +0.000 N 
ATOM      2  C   UNL     1       4.209   4.639  18.405  0.00  0.00    +0.000 A 
ATOM      3  N   UNL     1       5.004   5.234  17.451  0.00  0.00    +0.000 N 
ATOM      4  C   UNL     1       5.729   4.450  16.579  0.00  0.00    +0.000 C 
ATOM      5  O   UNL     1       5.591   3.239  16.405  0.00  0.00    +0.000 OA
ATOM      6  N   UNL     1       4.567   3.663  19.205  0.00  0.00    +0.000 NA
ATOM      7  C   UNL     1       3.481   3.419  20.003  0.00  0.00    +0.000 A 
ATOM      8  C   UNL     1       3.334   2.496  21.050  0.00  0.00    +0.000 A 
ATOM      9  C   UNL     1       2.102   2.409  21.709  0.00  0.00    +0.000 A 
ATOM     10  C   UNL     1       1.033   3.219  21.328  0.00  0.00    +0.000 A 
ATOM     11  C   UNL     1       1.166   4.161  20.300  0.00  0.00    +0.000 A 
ATOM     12  C   UNL     1       2.414   4.249  19.667  0.00  0.00    +0.000 A 
ATOM     13  H   UNL     1       5.341   6.161  17.668  0.00  0.00    +0.000 HD
ENDROOT
BRANCH   1  14
ATOM     14  C   UNL     1       2.223   6.173  18.058  0.00  0.00    +0.000 C 
BRANCH  14  16
ATOM     15  C   UNL     1       1.887   8.693  17.803  0.00  0.00    +0.000 C 
ATOM     16  C   UNL     1       2.577   7.574  18.567  0.00  0.00    +0.000 C 
ENDBRANCH  14  16
ENDBRANCH   1  14
BRANCH   4  17
ATOM     17  C   UNL     1       6.666   5.253  15.685  0.00  0.00    +0.000 C 
BRANCH  17  18
ATOM     18  C   UNL     1       6.758   4.772  14.257  0.00  0.00    +0.000 A 
ATOM     19  C   UNL     1       5.875   3.820  13.735  0.00  0.00    +0.000 A 
ATOM     20  C   UNL     1       5.979   3.407  12.406  0.00  0.00    +0.000 A 
ATOM     21  C   UNL     1       6.953   3.958  11.576  0.00  0.00    +0.000 A 
ATOM     22  C   UNL     1       7.809   4.938  12.068  0.00  0.00    +0.000 A 
ATOM     23  C   UNL     1       7.708   5.350  13.399  0.00  0.00    +0.000 A 
ENDBRANCH  17  18
ENDBRANCH   4  17
TORSDOF 4
ENDMDL
MODEL 8
REMARK VINA RESULT:      -7.1      1.441      3.822
REMARK  Name = 
REMARK  5 active torsions:
REMARK  status: ('A' for Active; 'I' for Inactive)
REMARK    1  A    between atoms: C_1  and  C_2
REMARK    2  A    between atoms: C_2  and  C_3
REMARK    3  A    between atoms: C_3  and  N_4
REMARK    4  A    between atoms: C_7  and  C_9
REMARK    5  A    between atoms: C_9  and  C_10
REMARK                            x       y       z     vdW  Elec       q    Type
REMARK                         _______ _______ _______ _____ _____    ______ ____
ROOT
ATOM      1  N   UNL     1       2.969   5.036  18.656  0.00  0.00    +0.000 N 
ATOM      2  C   UNL     1       4.257   4.619  18.387  0.00  0.00    +0.000 A 
ATOM      3  N   UNL     1       5.052   5.222  17.438  0.00  0.00    +0.000 N 
ATOM      4  C   UNL     1       5.783   4.447  16.565  0.00  0.00    +0.000 C 
ATOM      5  O   UNL     1       5.651   3.236  16.385  0.00  0.00    +0.000 OA
ATOM      6  N   UNL     1       4.616   3.640  19.183  0.00  0.00    +0.000 NA
ATOM      7  C   UNL     1       3.528   3.388  19.976  0.00  0.00    +0.000 A 
ATOM      8  C   UNL     1       3.382   2.459  21.018  0.00  0.00    +0.000 A 
ATOM      9  C   UNL     1       2.149   2.362  21.672  0.00  0.00    +0.000 A 
ATOM     10  C   UNL     1       1.077   3.170  21.292  0.00  0.00    +0.000 A 
ATOM     11  C   UNL     1       1.210   4.118  20.270  0.00  0.00    +0.000 A 
ATOM     12  C   UNL     1       2.459   4.214  19.641  0.00  0.00    +0.000 A 
ATOM     13  H   UNL     1       5.384   6.150  17.662  0.00  0.00    +0.000 HD
ENDROOT
BRANCH   1  14
ATOM     14  C   UNL     1       2.265   6.146  18.042  0.00  0.00    +0.000 C 
BRANCH  14  16
ATOM     15  C   UNL     1       2.366   8.682  17.745  0.00  0.00    +0.000 C 
ATOM     16  C   UNL     1       2.421   7.512  18.716  0.00  0.00    +0.000 C 
ENDBRANCH  14  16
ENDBRANCH   1  14
BRANCH   4  17
ATOM     17  C   UNL     1       6.719   5.258  15.679  0.00  0.00    +0.000 C 
BRANCH  17  18
ATOM     18  C   UNL     1       6.777   4.819  14.235  0.00  0.00    +0.000 A 
ATOM     19  C   UNL     1       7.760   5.290  13.356  0.00  0.00    +0.000 A 
ATOM     20  C   UNL     1       7.794   4.854  12.030  0.00  0.00    +0.000 A 
ATOM     21  C   UNL     1       6.861   3.925  11.574  0.00  0.00    +0.000 A 
ATOM     22  C   UNL     1       5.906   3.415  12.449  0.00  0.00    +0.000 A 
ATOM     23  C   UNL     1       5.869   3.852  13.775  0.00  0.00    +0.000 A 
ENDBRANCH  17  18
ENDBRANCH   4  17
TORSDOF 4
ENDMDL
MODEL 9
REMARK VINA RESULT:      -7.0      1.022      1.164
REMARK  Name = 
REMARK  5 active torsions:
REMARK  status: ('A' for Active; 'I' for Inactive)
REMARK    1  A    between atoms: C_1  and  C_2
REMARK    2  A    between atoms: C_2  and  C_3
REMARK    3  A    between atoms: C_3  and  N_4
REMARK    4  A    between atoms: C_7  and  C_9
REMARK    5  A    between atoms: C_9  and  C_10
REMARK                            x       y       z     vdW  Elec       q    Type
REMARK                         _______ _______ _______ _____ _____    ______ ____
ROOT
ATOM      1  N   UNL     1       2.390   6.485  19.678  0.00  0.00    +0.000 N 
ATOM      2  C   UNL     1       3.057   6.446  18.470  0.00  0.00    +0.000 A 
ATOM      3  N   UNL     1       3.737   5.333  18.031  0.00  0.00    +0.000 N 
ATOM      4  C   UNL     1       4.992   5.472  17.476  0.00  0.00    +0.000 C 
ATOM      5  O   UNL     1       5.693   6.484  17.514  0.00  0.00    +0.000 OA
ATOM      6  N   UNL     1       2.898   7.564  17.803  0.00  0.00    +0.000 NA
ATOM      7  C   UNL     1       2.132   8.369  18.603  0.00  0.00    +0.000 A 
ATOM      8  C   UNL     1       1.644   9.663  18.359  0.00  0.00    +0.000 A 
ATOM      9  C   UNL     1       0.897  10.304  19.354  0.00  0.00    +0.000 A 
ATOM     10  C   UNL     1       0.646   9.674  20.573  0.00  0.00    +0.000 A 
ATOM     11  C   UNL     1       1.106   8.375  20.826  0.00  0.00    +0.000 A 
ATOM     12  C   UNL     1       1.833   7.741  19.810  0.00  0.00    +0.000 A 
ATOM     13  H   UNL     1       3.169   4.544  17.758  0.00  0.00    +0.000 HD
ENDROOT
BRANCH   1  14
ATOM     14  C   UNL     1       2.267   5.407  20.641  0.00  0.00    +0.000 C 
BRANCH  14  16
ATOM     15  C   UNL     1       1.470   2.989  20.423  0.00  0.00    +0.000 C 
ATOM     16  C   UNL     1       1.079   4.458  20.457  0.00  0.00    +0.000 C 
ENDBRANCH  14  16
ENDBRANCH   1  14
BRANCH   4  17
ATOM     17  C   UNL     1       5.547   4.172  16.909  0.00  0.00    +0.000 C 
BRANCH  17  18
ATOM     18  C   UNL     1       5.974   4.233  15.462  0.00  0.00    +0.000 A 
ATOM     19  C   UNL     1       5.192   3.692  14.435  0.00  0.00    +0.000 A 
ATOM     20  C   UNL     1       5.609   3.777  13.105  0.00  0.00    +0.000 A 
ATOM     21  C   UNL     1       6.800   4.425  12.785  0.00  0.00    +0.000 A 
ATOM     22  C   UNL     1       7.565   5.007  13.791  0.00  0.00    +0.000 A 
ATOM     23  C   UNL     1       7.151   4.920  15.123  0.00  0.00    +0.000 A 
ENDBRANCH  17  18
ENDBRANCH   4  17
TORSDOF 4
ENDMDL
