MODEL 1
REMARK VINA RESULT:      -7.6      0.000      0.000
REMARK  Name = 
REMARK  4 active torsions:
REMARK  status: ('A' for Active; 'I' for Inactive)
REMARK    1  A    between atoms: C_1  and  N_2
REMARK    2  A    between atoms: C_12  and  C_13
REMARK    3  A    between atoms: C_13  and  C_14
REMARK    4  A    between atoms: C_14  and  O_16
REMARK                            x       y       z     vdW  Elec       q    Type
REMARK                         _______ _______ _______ _____ _____    ______ ____
ROOT
ATOM      1  C   UNL     1       2.187   7.524  19.809  0.00  0.00    +0.000 C 
ATOM      2  N   UNL     1       2.567   6.260  19.242  0.00  0.00    +0.000 N 
ATOM      3  C   UNL     1       2.186   5.000  19.688  0.00  0.00    +0.000 A 
ATOM      4  C   UNL     1       1.379   4.616  20.738  0.00  0.00    +0.000 A 
ATOM      5  C   UNL     1       1.175   3.248  20.946  0.00  0.00    +0.000 A 
ATOM      6  C   UNL     1       1.778   2.290  20.109  0.00  0.00    +0.000 A 
ATOM      7  C   UNL     1       2.597   2.676  19.042  0.00  0.00    +0.000 A 
ATOM      8  C   UNL     1       2.781   4.031  18.848  0.00  0.00    +0.000 A 
ATOM      9  N   UNL     1       3.519   4.735  17.879  0.00  0.00    +0.000 N 
ATOM     10  C   UNL     1       4.302   4.261  16.869  0.00  0.00    +0.000 A 
ATOM     11  O   UNL     1       4.594   3.102  16.618  0.00  0.00    +0.000 OA
ATOM     12  C   UNL     1       4.928   5.383  16.061  0.00  0.00    +0.000 A 
ATOM     13  N   UNL     1       4.768   6.640  16.351  0.00  0.00    +0.000 NA
ATOM     14  N   UNL     1       3.967   7.009  17.437  0.00  0.00    +0.000 NA
ATOM     15  C   UNL     1       3.388   6.091  18.139  0.00  0.00    +0.000 A 
ENDROOT
BRANCH  12  16
ATOM     16  C   UNL     1       5.842   5.015  14.927  0.00  0.00    +0.000 C 
BRANCH  16  17
ATOM     17  C   UNL     1       7.297   5.012  15.275  0.00  0.00    +0.000 C 
ATOM     18  O   UNL     1       7.778   4.507  16.277  0.00  0.00    +0.000 OA
BRANCH  17  19
ATOM     19  O   UNL     1       8.064   5.602  14.326  0.00  0.00    +0.000 OA
ATOM     20  H   UNL     1       8.977   5.250  14.262  0.00  0.00    +0.000 HD
ENDBRANCH  17  19
ENDBRANCH  16  17
ENDBRANCH  12  16
TORSDOF 3
ENDMDL
MODEL 2
REMARK VINA RESULT:      -7.2      1.612      3.306
REMARK  Name = 
REMARK  4 active torsions:
REMARK  status: ('A' for Active; 'I' for Inactive)
REMARK    1  A    between atoms: C_1  and  N_2
REMARK    2  A    between atoms: C_12  and  C_13
REMARK    3  A    between atoms: C_13  and  C_14
REMARK    4  A    between atoms: C_14  and  O_16
REMARK                            x       y       z     vdW  Elec       q    Type
REMARK                         _______ _______ _______ _____ _____    ______ ____
ROOT
ATOM      1  C   UNL     1       2.246   4.682  21.164  0.00  0.00    +0.000 C 
ATOM      2  N   UNL     1       2.642   5.452  20.017  0.00  0.00    +0.000 N 
ATOM      3  C   UNL     1       2.264   6.756  19.721  0.00  0.00    +0.000 A 
ATOM      4  C   UNL     1       1.452   7.641  20.397  0.00  0.00    +0.000 A 
ATOM      5  C   UNL     1       1.253   8.909  19.842  0.00  0.00    +0.000 A 
ATOM      6  C   UNL     1       1.862   9.271  18.625  0.00  0.00    +0.000 A 
ATOM      7  C   UNL     1       2.686   8.376  17.936  0.00  0.00    +0.000 A 
ATOM      8  C   UNL     1       2.877   7.132  18.503  0.00  0.00    +0.000 A 
ATOM      9  N   UNL     1       3.642   6.029  18.079  0.00  0.00    +0.000 N 
ATOM     10  C   UNL     1       4.388   5.871  16.950  0.00  0.00    +0.000 A 
ATOM     11  O   UNL     1       4.508   6.640  16.008  0.00  0.00    +0.000 OA
ATOM     12  C   UNL     1       5.044   4.504  16.888  0.00  0.00    +0.000 A 
ATOM     13  N   UNL     1       4.857   3.587  17.790  0.00  0.00    +0.000 NA
ATOM     14  N   UNL     1       4.037   3.850  18.893  0.00  0.00    +0.000 NA
ATOM     15  C   UNL     1       3.479   5.010  19.006  0.00  0.00    +0.000 A 
ENDROOT
BRANCH  12  16
ATOM     16  C   UNL     1       5.879   4.171  15.684  0.00  0.00    +0.000 C 
BRANCH  16  17
ATOM     17  C   UNL     1       7.274   4.709  15.725  0.00  0.00    +0.000 C 
ATOM     18  O   UNL     1       7.793   5.383  14.849  0.00  0.00    +0.000 OA
BRANCH  17  19
ATOM     19  O   UNL     1       7.919   4.408  16.878  0.00  0.00    +0.000 OA
ATOM     20  H   UNL     1       8.661   3.776  16.778  0.00  0.00    +0.000 HD
ENDBRANCH  17  19
ENDBRANCH  16  17
ENDBRANCH  12  16
TORSDOF 3
ENDMDL
MODEL 3
REMARK VINA RESULT:      -7.0      2.490      5.767
REMARK  Name = 
REMARK  4 active torsions:
REMARK  status: ('A' for Active; 'I' for Inactive)
REMARK    1  A    between atoms: C_1  and  N_2
REMARK    2  A    between atoms: C_12  and  C_13
REMARK    3  A    between atoms: C_13  and  C_14
REMARK    4  A    between atoms: C_14  and  O_16
REMARK                            x       y       z     vdW  Elec       q    Type
REMARK                         _______ _______ _______ _____ _____    ______ ____
ROOT
ATOM      1  C   UNL     1       7.478   6.479  18.200  0.00  0.00    +0.000 C 
ATOM      2  N   UNL     1       6.447   5.698  17.572  0.00  0.00    +0.000 N 
ATOM      3  C   UNL     1       6.457   5.200  16.275  0.00  0.00    +0.000 A 
ATOM      4  C   UNL     1       7.398   5.298  15.272  0.00  0.00    +0.000 A 
ATOM      5  C   UNL     1       7.123   4.681  14.047  0.00  0.00    +0.000 A 
ATOM      6  C   UNL     1       5.918   3.983  13.842  0.00  0.00    +0.000 A 
ATOM      7  C   UNL     1       4.961   3.881  14.857  0.00  0.00    +0.000 A 
ATOM      8  C   UNL     1       5.253   4.489  16.061  0.00  0.00    +0.000 A 
ATOM      9  N   UNL     1       4.524   4.561  17.263  0.00  0.00    +0.000 N 
ATOM     10  C   UNL     1       3.288   4.071  17.561  0.00  0.00    +0.000 A 
ATOM     11  O   UNL     1       2.497   3.509  16.818  0.00  0.00    +0.000 OA
ATOM     12  C   UNL     1       2.878   4.388  18.987  0.00  0.00    +0.000 A 
ATOM     13  N   UNL     1       3.612   5.095  19.794  0.00  0.00    +0.000 NA
ATOM     14  N   UNL     1       4.853   5.579  19.366  0.00  0.00    +0.000 NA
ATOM     15  C   UNL     1       5.260   5.310  18.170  0.00  0.00    +0.000 A 
ENDROOT
BRANCH  12  16
ATOM     16  C   UNL     1       1.523   3.935  19.454  0.00  0.00    +0.000 C 
BRANCH  16  17
ATOM     17  C   UNL     1       1.499   2.571  20.066  0.00  0.00    +0.000 C 
ATOM     18  O   UNL     1       1.452   2.340  21.264  0.00  0.00    +0.000 OA
BRANCH  17  19
ATOM     19  O   UNL     1       1.491   1.581  19.140  0.00  0.00    +0.000 OA
ATOM     20  H   UNL     1       2.208   0.921  19.242  0.00  0.00    +0.000 HD
ENDBRANCH  17  19
ENDBRANCH  16  17
ENDBRANCH  12  16
TORSDOF 3
ENDMDL
MODEL 4
REMARK VINA RESULT:      -6.9      1.256      1.543
REMARK  Name = 
REMARK  4 active torsions:
REMARK  status: ('A' for Active; 'I' for Inactive)
REMARK    1  A    between atoms: C_1  and  N_2
REMARK    2  A    between atoms: C_12  and  C_13
REMARK    3  A    between atoms: C_13  and  C_14
REMARK    4  A    between atoms: C_14  and  O_16
REMARK                            x       y       z     vdW  Elec       q    Type
REMARK                         _______ _______ _______ _____ _____    ______ ____
ROOT
ATOM      1  C   UNL     1       2.424   7.325  18.852  0.00  0.00    +0.000 C 
ATOM      2  N   UNL     1       2.931   6.077  18.352  0.00  0.00    +0.000 N 
ATOM      3  C   UNL     1       2.390   4.815  18.565  0.00  0.00    +0.000 A 
ATOM      4  C   UNL     1       1.277   4.412  19.272  0.00  0.00    +0.000 A 
ATOM      5  C   UNL     1       0.978   3.047  19.308  0.00  0.00    +0.000 A 
ATOM      6  C   UNL     1       1.792   2.108  18.646  0.00  0.00    +0.000 A 
ATOM      7  C   UNL     1       2.922   2.513  17.928  0.00  0.00    +0.000 A 
ATOM      8  C   UNL     1       3.197   3.865  17.896  0.00  0.00    +0.000 A 
ATOM      9  N   UNL     1       4.229   4.585  17.266  0.00  0.00    +0.000 N 
ATOM     10  C   UNL     1       5.283   4.131  16.531  0.00  0.00    +0.000 A 
ATOM     11  O   UNL     1       5.607   2.974  16.307  0.00  0.00    +0.000 OA
ATOM     12  C   UNL     1       6.168   5.264  16.045  0.00  0.00    +0.000 A 
ATOM     13  N   UNL     1       5.959   6.509  16.353  0.00  0.00    +0.000 NA
ATOM     14  N   UNL     1       4.860   6.856  17.148  0.00  0.00    +0.000 NA
ATOM     15  C   UNL     1       4.060   5.930  17.562  0.00  0.00    +0.000 A 
ENDROOT
BRANCH  12  16
ATOM     16  C   UNL     1       7.389   4.915  15.242  0.00  0.00    +0.000 C 
BRANCH  16  17
ATOM     17  C   UNL     1       7.144   4.746  13.776  0.00  0.00    +0.000 C 
ATOM     18  O   UNL     1       7.589   5.472  12.901  0.00  0.00    +0.000 OA
BRANCH  17  19
ATOM     19  O   UNL     1       6.394   3.653  13.493  0.00  0.00    +0.000 OA
ATOM     20  H   UNL     1       6.718   2.820  13.897  0.00  0.00    +0.000 HD
ENDBRANCH  17  19
ENDBRANCH  16  17
ENDBRANCH  12  16
TORSDOF 3
ENDMDL
MODEL 5
REMARK VINA RESULT:      -6.9      2.448      5.703
REMARK  Name = 
REMARK  4 active torsions:
REMARK  status: ('A' for Active; 'I' for Inactive)
REMARK    1  A    between atoms: C_1  and  N_2
REMARK    2  A    between atoms: C_12  and  C_13
REMARK    3  A    between atoms: C_13  and  C_14
REMARK    4  A    between atoms: C_14  and  O_16
REMARK                            x       y       z     vdW  Elec       q    Type
REMARK                         _______ _______ _______ _____ _____    ______ ____
ROOT
ATOM      1  C   UNL     1       3.596   7.979  17.459  0.00  0.00    +0.000 C 
ATOM      2  N   UNL     1       3.946   6.588  17.534  0.00  0.00    +0.000 N 
ATOM      3  C   UNL     1       4.690   5.867  16.608  0.00  0.00    +0.000 A 
ATOM      4  C   UNL     1       5.278   6.250  15.421  0.00  0.00    +0.000 A 
ATOM      5  C   UNL     1       5.977   5.284  14.690  0.00  0.00    +0.000 A 
ATOM      6  C   UNL     1       6.074   3.957  15.150  0.00  0.00    +0.000 A 
ATOM      7  C   UNL     1       5.479   3.565  16.354  0.00  0.00    +0.000 A 
ATOM      8  C   UNL     1       4.801   4.533  17.066  0.00  0.00    +0.000 A 
ATOM      9  N   UNL     1       4.116   4.470  18.294  0.00  0.00    +0.000 N 
ATOM     10  C   UNL     1       3.900   3.405  19.114  0.00  0.00    +0.000 A 
ATOM     11  O   UNL     1       4.200   2.234  18.931  0.00  0.00    +0.000 OA
ATOM     12  C   UNL     1       3.096   3.787  20.344  0.00  0.00    +0.000 A 
ATOM     13  N   UNL     1       2.631   4.984  20.541  0.00  0.00    +0.000 NA
ATOM     14  N   UNL     1       2.887   5.996  19.609  0.00  0.00    +0.000 NA
ATOM     15  C   UNL     1       3.592   5.727  18.560  0.00  0.00    +0.000 A 
ENDROOT
BRANCH  12  16
ATOM     16  C   UNL     1       2.753   2.708  21.331  0.00  0.00    +0.000 C 
BRANCH  16  17
ATOM     17  C   UNL     1       1.299   2.610  21.668  0.00  0.00    +0.000 C 
ATOM     18  O   UNL     1       0.851   2.270  22.752  0.00  0.00    +0.000 OA
BRANCH  17  19
ATOM     19  O   UNL     1       0.497   2.988  20.643  0.00  0.00    +0.000 OA
ATOM     20  H   UNL     1       0.961   3.434  19.904  0.00  0.00    +0.000 HD
ENDBRANCH  17  19
ENDBRANCH  16  17
ENDBRANCH  12  16
TORSDOF 3
ENDMDL
MODEL 6
REMARK VINA RESULT:      -6.9      2.819      5.986
REMARK  Name = 
REMARK  4 active torsions:
REMARK  status: ('A' for Active; 'I' for Inactive)
REMARK    1  A    between atoms: C_1  and  N_2
REMARK    2  A    between atoms: C_12  and  C_13
REMARK    3  A    between atoms: C_13  and  C_14
REMARK    4  A    between atoms: C_14  and  O_16
REMARK                            x       y       z     vdW  Elec       q    Type
REMARK                         _______ _______ _______ _____ _____    ______ ____
ROOT
ATOM      1  C   UNL     1       7.665   5.814  18.552  0.00  0.00    +0.000 C 
ATOM      2  N   UNL     1       6.645   5.066  17.870  0.00  0.00    +0.000 N 
ATOM      3  C   UNL     1       6.559   4.834  16.502  0.00  0.00    +0.000 A 
ATOM      4  C   UNL     1       7.374   5.226  15.463  0.00  0.00    +0.000 A 
ATOM      5  C   UNL     1       7.024   4.835  14.167  0.00  0.00    +0.000 A 
ATOM      6  C   UNL     1       5.869   4.064  13.929  0.00  0.00    +0.000 A 
ATOM      7  C   UNL     1       5.040   3.664  14.982  0.00  0.00    +0.000 A 
ATOM      8  C   UNL     1       5.406   4.054  16.255  0.00  0.00    +0.000 A 
ATOM      9  N   UNL     1       4.807   3.811  17.505  0.00  0.00    +0.000 N 
ATOM     10  C   UNL     1       3.657   3.143  17.803  0.00  0.00    +0.000 A 
ATOM     11  O   UNL     1       2.843   2.655  17.033  0.00  0.00    +0.000 OA
ATOM     12  C   UNL     1       3.376   3.130  19.294  0.00  0.00    +0.000 A 
ATOM     13  N   UNL     1       4.128   3.740  20.162  0.00  0.00    +0.000 NA
ATOM     14  N   UNL     1       5.270   4.427  19.735  0.00  0.00    +0.000 NA
ATOM     15  C   UNL     1       5.567   4.443  18.477  0.00  0.00    +0.000 A 
ENDROOT
BRANCH  12  16
ATOM     16  C   UNL     1       2.125   2.452  19.775  0.00  0.00    +0.000 C 
BRANCH  16  17
ATOM     17  C   UNL     1       1.506   3.072  20.987  0.00  0.00    +0.000 C 
ATOM     18  O   UNL     1       1.484   2.569  22.100  0.00  0.00    +0.000 OA
BRANCH  17  19
ATOM     19  O   UNL     1       0.993   4.302  20.742  0.00  0.00    +0.000 OA
ATOM     20  H   UNL     1       1.639   4.953  20.398  0.00  0.00    +0.000 HD
ENDBRANCH  17  19
ENDBRANCH  16  17
ENDBRANCH  12  16
TORSDOF 3
ENDMDL
MODEL 7
REMARK VINA RESULT:      -6.8      2.733      3.433
REMARK  Name = 
REMARK  4 active torsions:
REMARK  status: ('A' for Active; 'I' for Inactive)
REMARK    1  A    between atoms: C_1  and  N_2
REMARK    2  A    between atoms: C_12  and  C_13
REMARK    3  A    between atoms: C_13  and  C_14
REMARK    4  A    between atoms: C_14  and  O_16
REMARK                            x       y       z     vdW  Elec       q    Type
REMARK                         _______ _______ _______ _____ _____    ______ ____
ROOT
ATOM      1  C   UNL     1       4.874   1.918  20.644  0.00  0.00    +0.000 C 
ATOM      2  N   UNL     1       4.440   2.906  19.695  0.00  0.00    +0.000 N 
ATOM      3  C   UNL     1       3.156   3.060  19.185  0.00  0.00    +0.000 A 
ATOM      4  C   UNL     1       1.994   2.358  19.425  0.00  0.00    +0.000 A 
ATOM      5  C   UNL     1       0.834   2.753  18.751  0.00  0.00    +0.000 A 
ATOM      6  C   UNL     1       0.853   3.834  17.849  0.00  0.00    +0.000 A 
ATOM      7  C   UNL     1       2.030   4.549  17.603  0.00  0.00    +0.000 A 
ATOM      8  C   UNL     1       3.162   4.150  18.283  0.00  0.00    +0.000 A 
ATOM      9  N   UNL     1       4.476   4.656  18.271  0.00  0.00    +0.000 N 
ATOM     10  C   UNL     1       5.008   5.675  17.540  0.00  0.00    +0.000 A 
ATOM     11  O   UNL     1       4.470   6.344  16.671  0.00  0.00    +0.000 OA
ATOM     12  C   UNL     1       6.483   5.878  17.835  0.00  0.00    +0.000 A 
ATOM     13  N   UNL     1       7.152   5.119  18.652  0.00  0.00    +0.000 NA
ATOM     14  N   UNL     1       6.506   4.075  19.323  0.00  0.00    +0.000 NA
ATOM     15  C   UNL     1       5.244   3.880  19.127  0.00  0.00    +0.000 A 
ENDROOT
BRANCH  12  16
ATOM     16  C   UNL     1       7.216   6.951  17.083  0.00  0.00    +0.000 C 
BRANCH  16  17
ATOM     17  C   UNL     1       7.876   7.978  17.947  0.00  0.00    +0.000 C 
ATOM     18  O   UNL     1       7.792   9.186  17.790  0.00  0.00    +0.000 OA
BRANCH  17  19
ATOM     19  O   UNL     1       8.564   7.432  18.979  0.00  0.00    +0.000 OA
ATOM     20  H   UNL     1       8.049   7.336  19.807  0.00  0.00    +0.000 HD
ENDBRANCH  17  19
ENDBRANCH  16  17
ENDBRANCH  12  16
TORSDOF 3
ENDMDL
MODEL 8
REMARK VINA RESULT:      -6.7      1.168      1.382
REMARK  Name = 
REMARK  4 active torsions:
REMARK  status: ('A' for Active; 'I' for Inactive)
REMARK    1  A    between atoms: C_1  and  N_2
REMARK    2  A    between atoms: C_12  and  C_13
REMARK    3  A    between atoms: C_13  and  C_14
REMARK    4  A    between atoms: C_14  and  O_16
REMARK                            x       y       z     vdW  Elec       q    Type
REMARK                         _______ _______ _______ _____ _____    ______ ____
ROOT
ATOM      1  C   UNL     1       1.960   7.843  18.874  0.00  0.00    +0.000 C 
ATOM      2  N   UNL     1       2.742   6.638  18.818  0.00  0.00    +0.000 N 
ATOM      3  C   UNL     1       2.537   5.479  19.557  0.00  0.00    +0.000 A 
ATOM      4  C   UNL     1       1.583   5.162  20.501  0.00  0.00    +0.000 A 
ATOM      5  C   UNL     1       1.632   3.893  21.086  0.00  0.00    +0.000 A 
ATOM      6  C   UNL     1       2.629   2.966  20.725  0.00  0.00    +0.000 A 
ATOM      7  C   UNL     1       3.598   3.284  19.768  0.00  0.00    +0.000 A 
ATOM      8  C   UNL     1       3.529   4.539  19.195  0.00  0.00    +0.000 A 
ATOM      9  N   UNL     1       4.328   5.153  18.213  0.00  0.00    +0.000 N 
ATOM     10  C   UNL     1       5.434   4.681  17.572  0.00  0.00    +0.000 A 
ATOM     11  O   UNL     1       6.026   3.628  17.759  0.00  0.00    +0.000 OA
ATOM     12  C   UNL     1       5.995   5.689  16.586  0.00  0.00    +0.000 A 
ATOM     13  N   UNL     1       5.495   6.879  16.429  0.00  0.00    +0.000 NA
ATOM     14  N   UNL     1       4.374   7.269  17.170  0.00  0.00    +0.000 NA
ATOM     15  C   UNL     1       3.843   6.435  18.002  0.00  0.00    +0.000 A 
ENDROOT
BRANCH  12  16
ATOM     16  C   UNL     1       7.235   5.321  15.822  0.00  0.00    +0.000 C 
BRANCH  16  17
ATOM     17  C   UNL     1       6.982   4.740  14.467  0.00  0.00    +0.000 C 
ATOM     18  O   UNL     1       7.373   5.219  13.414  0.00  0.00    +0.000 OA
BRANCH  17  19
ATOM     19  O   UNL     1       6.295   3.574  14.516  0.00  0.00    +0.000 OA
ATOM     20  H   UNL     1       5.350   3.646  14.267  0.00  0.00    +0.000 HD
ENDBRANCH  17  19
ENDBRANCH  16  17
ENDBRANCH  12  16
TORSDOF 3
ENDMDL
MODEL 9
REMARK VINA RESULT:      -6.6      3.532      6.233
REMARK  Name = 
REMARK  4 active torsions:
REMARK  status: ('A' for Active; 'I' for Inactive)
REMARK    1  A    between atoms: C_1  and  N_2
REMARK    2  A    between atoms: C_12  and  C_13
REMARK    3  A    between atoms: C_13  and  C_14
REMARK    4  A    between atoms: C_14  and  O_16
REMARK                            x       y       z     vdW  Elec       q    Type
REMARK                         _______ _______ _______ _____ _____    ______ ____
ROOT
ATOM      1  C   UNL     1       3.721   2.911  19.572  0.00  0.00    +0.000 C 
ATOM      2  N   UNL     1       3.683   4.201  18.939  0.00  0.00    +0.000 N 
ATOM      3  C   UNL     1       4.334   4.572  17.769  0.00  0.00    +0.000 A 
ATOM      4  C   UNL     1       5.155   3.858  16.922  0.00  0.00    +0.000 A 
ATOM      5  C   UNL     1       5.674   4.513  15.800  0.00  0.00    +0.000 A 
ATOM      6  C   UNL     1       5.370   5.864  15.545  0.00  0.00    +0.000 A 
ATOM      7  C   UNL     1       4.538   6.591  16.402  0.00  0.00    +0.000 A 
ATOM      8  C   UNL     1       4.029   5.926  17.500  0.00  0.00    +0.000 A 
ATOM      9  N   UNL     1       3.170   6.358  18.527  0.00  0.00    +0.000 N 
ATOM     10  C   UNL     1       2.625   7.588  18.745  0.00  0.00    +0.000 A 
ATOM     11  O   UNL     1       2.817   8.622  18.123  0.00  0.00    +0.000 OA
ATOM     12  C   UNL     1       1.758   7.614  19.990  0.00  0.00    +0.000 A 
ATOM     13  N   UNL     1       1.612   6.587  20.774  0.00  0.00    +0.000 NA
ATOM     14  N   UNL     1       2.252   5.380  20.468  0.00  0.00    +0.000 NA
ATOM     15  C   UNL     1       2.978   5.299  19.402  0.00  0.00    +0.000 A 
ENDROOT
BRANCH  12  16
ATOM     16  C   UNL     1       1.109   8.913  20.377  0.00  0.00    +0.000 C 
BRANCH  16  17
ATOM     17  C   UNL     1       0.819   9.055  21.837  0.00  0.00    +0.000 C 
ATOM     18  O   UNL     1      -0.293   9.017  22.339  0.00  0.00    +0.000 OA
BRANCH  17  19
ATOM     19  O   UNL     1       1.942   9.190  22.584  0.00  0.00    +0.000 OA
ATOM     20  H   UNL     1       1.892   8.784  23.474  0.00  0.00    +0.000 HD
ENDBRANCH  17  19
ENDBRANCH  16  17
ENDBRANCH  12  16
TORSDOF 3
ENDMDL
