MODEL 1
REMARK VINA RESULT:      -7.5      0.000      0.000
REMARK  Name = 
REMARK  6 active torsions:
REMARK  status: ('A' for Active; 'I' for Inactive)
REMARK    1  A    between atoms: C_1  and  C_2
REMARK    2  A    between atoms: C_5  and  O_6
REMARK    3  A    between atoms: O_6  and  C_7
REMARK    4  A    between atoms: C_7  and  C_8
REMARK    5  A    between atoms: N_17  and  C_18
REMARK    6  A    between atoms: C_21  and  C_22
REMARK                            x       y       z     vdW  Elec       q    Type
REMARK                         _______ _______ _______ _____ _____    ______ ____
ROOT
ATOM      1  C   UNL     1       3.046   6.366  18.154  0.00  0.00    +0.000 C 
ATOM      2  O   UNL     1       3.961   6.844  17.474  0.00  0.00    +0.000 OA
ATOM      3  N   UNL     1       2.546   5.086  17.877  0.00  0.00    +0.000 N 
ATOM      4  C   UNL     1       1.461   4.460  18.600  0.00  0.00    +0.000 C 
ATOM      5  C   UNL     1       1.977   3.387  19.576  0.00  0.00    +0.000 C 
ATOM      6  C   UNL     1       1.954   2.029  18.875  0.00  0.00    +0.000 C 
ATOM      7  C   UNL     1       3.259   1.745  18.132  0.00  0.00    +0.000 C 
ATOM      8  C   UNL     1       4.078   3.024  17.869  0.00  0.00    +0.000 C 
ATOM      9  C   UNL     1       3.338   4.144  17.042  0.00  0.00    +0.000 C 
ATOM     10  N   UNL     1       4.511   3.456  19.207  0.00  0.00    +0.000 NA
ATOM     11  C   UNL     1       5.593   4.427  19.160  0.00  0.00    +0.000 C 
ATOM     12  C   UNL     1       3.400   3.706  20.138  0.00  0.00    +0.000 C 
ENDROOT
BRANCH   1  13
ATOM     13  C   UNL     1       2.516   7.166  19.390  0.00  0.00    +0.000 C 
BRANCH  13  14
ATOM     14  O   UNL     1       1.823   8.381  19.144  0.00  0.00    +0.000 OA
BRANCH  14  19
ATOM     15  C   UNL     1      -1.182  11.158  23.090  0.00  0.00    +0.000 C 
ATOM     16  C   UNL     1      -0.455  10.371  22.035  0.00  0.00    +0.000 A 
ATOM     17  C   UNL     1       0.311   9.262  22.413  0.00  0.00    +0.000 A 
ATOM     18  C   UNL     1       1.055   8.539  21.473  0.00  0.00    +0.000 A 
ATOM     19  C   UNL     1       1.063   8.928  20.136  0.00  0.00    +0.000 A 
ATOM     20  C   UNL     1       0.264  10.007  19.745  0.00  0.00    +0.000 A 
ATOM     21  C   UNL     1      -0.505  10.732  20.676  0.00  0.00    +0.000 A 
ATOM     22  C   UNL     1      -1.324  11.905  20.210  0.00  0.00    +0.000 C 
ENDBRANCH  14  19
ENDBRANCH  13  14
ENDBRANCH   1  13
TORSDOF 3
ENDMDL
MODEL 2
REMARK VINA RESULT:      -7.4      3.593      7.742
REMARK  Name = 
REMARK  6 active torsions:
REMARK  status: ('A' for Active; 'I' for Inactive)
REMARK    1  A    between atoms: C_1  and  C_2
REMARK    2  A    between atoms: C_5  and  O_6
REMARK    3  A    between atoms: O_6  and  C_7
REMARK    4  A    between atoms: C_7  and  C_8
REMARK    5  A    between atoms: N_17  and  C_18
REMARK    6  A    between atoms: C_21  and  C_22
REMARK                            x       y       z     vdW  Elec       q    Type
REMARK                         _______ _______ _______ _____ _____    ______ ____
ROOT
ATOM      1  C   UNL     1       5.218   4.415  19.026  0.00  0.00    +0.000 C 
ATOM      2  O   UNL     1       5.569   5.363  19.737  0.00  0.00    +0.000 OA
ATOM      3  N   UNL     1       4.175   3.569  19.432  0.00  0.00    +0.000 N 
ATOM      4  C   UNL     1       3.717   2.422  18.680  0.00  0.00    +0.000 C 
ATOM      5  C   UNL     1       2.389   2.714  17.958  0.00  0.00    +0.000 C 
ATOM      6  C   UNL     1       1.232   2.268  18.853  0.00  0.00    +0.000 C 
ATOM      7  C   UNL     1       0.774   3.381  19.795  0.00  0.00    +0.000 C 
ATOM      8  C   UNL     1       1.835   4.487  19.960  0.00  0.00    +0.000 C 
ATOM      9  C   UNL     1       3.237   4.006  20.499  0.00  0.00    +0.000 C 
ATOM     10  N   UNL     1       1.892   5.132  18.639  0.00  0.00    +0.000 NA
ATOM     11  C   UNL     1       2.555   6.427  18.675  0.00  0.00    +0.000 C 
ATOM     12  C   UNL     1       2.234   4.212  17.543  0.00  0.00    +0.000 C 
ENDROOT
BRANCH   1  13
ATOM     13  C   UNL     1       5.882   4.226  17.622  0.00  0.00    +0.000 C 
BRANCH  13  14
ATOM     14  O   UNL     1       5.118   4.576  16.477  0.00  0.00    +0.000 OA
BRANCH  14  19
ATOM     15  C   UNL     1       7.415   3.999  11.308  0.00  0.00    +0.000 C 
ATOM     16  C   UNL     1       6.780   4.231  12.653  0.00  0.00    +0.000 A 
ATOM     17  C   UNL     1       7.535   4.818  13.675  0.00  0.00    +0.000 A 
ATOM     18  C   UNL     1       7.006   4.993  14.958  0.00  0.00    +0.000 A 
ATOM     19  C   UNL     1       5.713   4.563  15.249  0.00  0.00    +0.000 A 
ATOM     20  C   UNL     1       4.939   4.018  14.220  0.00  0.00    +0.000 A 
ATOM     21  C   UNL     1       5.452   3.852  12.919  0.00  0.00    +0.000 A 
ATOM     22  C   UNL     1       4.589   3.232  11.854  0.00  0.00    +0.000 C 
ENDBRANCH  14  19
ENDBRANCH  13  14
ENDBRANCH   1  13
TORSDOF 3
ENDMDL
MODEL 3
REMARK VINA RESULT:      -7.3      1.348      2.509
REMARK  Name = 
REMARK  6 active torsions:
REMARK  status: ('A' for Active; 'I' for Inactive)
REMARK    1  A    between atoms: C_1  and  C_2
REMARK    2  A    between atoms: C_5  and  O_6
REMARK    3  A    between atoms: O_6  and  C_7
REMARK    4  A    between atoms: C_7  and  C_8
REMARK    5  A    between atoms: N_17  and  C_18
REMARK    6  A    between atoms: C_21  and  C_22
REMARK                            x       y       z     vdW  Elec       q    Type
REMARK                         _______ _______ _______ _____ _____    ______ ____
ROOT
ATOM      1  C   UNL     1       4.161   4.981  17.549  0.00  0.00    +0.000 C 
ATOM      2  O   UNL     1       5.246   4.529  17.164  0.00  0.00    +0.000 OA
ATOM      3  N   UNL     1       3.003   4.191  17.500  0.00  0.00    +0.000 N 
ATOM      4  C   UNL     1       1.690   4.644  17.901  0.00  0.00    +0.000 C 
ATOM      5  C   UNL     1       1.291   4.073  19.274  0.00  0.00    +0.000 C 
ATOM      6  C   UNL     1       0.501   2.782  19.062  0.00  0.00    +0.000 C 
ATOM      7  C   UNL     1       1.411   1.556  19.002  0.00  0.00    +0.000 C 
ATOM      8  C   UNL     1       2.878   1.925  18.703  0.00  0.00    +0.000 C 
ATOM      9  C   UNL     1       3.117   2.715  17.360  0.00  0.00    +0.000 C 
ATOM     10  N   UNL     1       3.320   2.645  19.907  0.00  0.00    +0.000 NA
ATOM     11  C   UNL     1       4.768   2.761  19.991  0.00  0.00    +0.000 C 
ATOM     12  C   UNL     1       2.514   3.835  20.217  0.00  0.00    +0.000 C 
ENDROOT
BRANCH   1  13
ATOM     13  C   UNL     1       4.110   6.410  18.183  0.00  0.00    +0.000 C 
BRANCH  13  14
ATOM     14  O   UNL     1       3.406   7.422  17.477  0.00  0.00    +0.000 OA
BRANCH  14  19
ATOM     15  C   UNL     1      -0.399  10.409  20.463  0.00  0.00    +0.000 C 
ATOM     16  C   UNL     1       0.670   9.668  19.707  0.00  0.00    +0.000 A 
ATOM     17  C   UNL     1       1.054  10.121  18.439  0.00  0.00    +0.000 A 
ATOM     18  C   UNL     1       1.998   9.427  17.676  0.00  0.00    +0.000 A 
ATOM     19  C   UNL     1       2.562   8.248  18.159  0.00  0.00    +0.000 A 
ATOM     20  C   UNL     1       2.216   7.815  19.443  0.00  0.00    +0.000 A 
ATOM     21  C   UNL     1       1.282   8.515  20.231  0.00  0.00    +0.000 A 
ATOM     22  C   UNL     1       0.921   7.991  21.595  0.00  0.00    +0.000 C 
ENDBRANCH  14  19
ENDBRANCH  13  14
ENDBRANCH   1  13
TORSDOF 3
ENDMDL
MODEL 4
REMARK VINA RESULT:      -7.3      1.643      2.903
REMARK  Name = 
REMARK  6 active torsions:
REMARK  status: ('A' for Active; 'I' for Inactive)
REMARK    1  A    between atoms: C_1  and  C_2
REMARK    2  A    between atoms: C_5  and  O_6
REMARK    3  A    between atoms: O_6  and  C_7
REMARK    4  A    between atoms: C_7  and  C_8
REMARK    5  A    between atoms: N_17  and  C_18
REMARK    6  A    between atoms: C_21  and  C_22
REMARK                            x       y       z     vdW  Elec       q    Type
REMARK                         _______ _______ _______ _____ _____    ______ ____
ROOT
ATOM      1  C   UNL     1       2.287   4.628  20.882  0.00  0.00    +0.000 C 
ATOM      2  O   UNL     1       1.982   3.750  21.697  0.00  0.00    +0.000 OA
ATOM      3  N   UNL     1       3.321   4.414  19.958  0.00  0.00    +0.000 N 
ATOM      4  C   UNL     1       3.764   5.392  18.990  0.00  0.00    +0.000 C 
ATOM      5  C   UNL     1       3.250   5.061  17.577  0.00  0.00    +0.000 C 
ATOM      6  C   UNL     1       4.309   4.234  16.847  0.00  0.00    +0.000 C 
ATOM      7  C   UNL     1       4.129   2.735  17.084  0.00  0.00    +0.000 C 
ATOM      8  C   UNL     1       3.264   2.434  18.324  0.00  0.00    +0.000 C 
ATOM      9  C   UNL     1       3.795   3.032  19.682  0.00  0.00    +0.000 C 
ATOM     10  N   UNL     1       1.921   2.903  17.947  0.00  0.00    +0.000 NA
ATOM     11  C   UNL     1       0.881   2.385  18.822  0.00  0.00    +0.000 C 
ATOM     12  C   UNL     1       1.870   4.327  17.584  0.00  0.00    +0.000 C 
ENDROOT
BRANCH   1  13
ATOM     13  C   UNL     1       1.446   5.946  20.827  0.00  0.00    +0.000 C 
BRANCH  13  14
ATOM     14  O   UNL     1       2.106   7.136  20.421  0.00  0.00    +0.000 OA
BRANCH  14  19
ATOM     15  C   UNL     1      -1.150  11.785  20.741  0.00  0.00    +0.000 C 
ATOM     16  C   UNL     1      -0.221  10.604  20.679  0.00  0.00    +0.000 A 
ATOM     17  C   UNL     1       0.426  10.303  19.474  0.00  0.00    +0.000 A 
ATOM     18  C   UNL     1       1.249   9.178  19.354  0.00  0.00    +0.000 A 
ATOM     19  C   UNL     1       1.422   8.317  20.435  0.00  0.00    +0.000 A 
ATOM     20  C   UNL     1       0.815   8.637  21.653  0.00  0.00    +0.000 A 
ATOM     21  C   UNL     1      -0.001   9.776  21.795  0.00  0.00    +0.000 A 
ATOM     22  C   UNL     1      -0.657  10.060  23.119  0.00  0.00    +0.000 C 
ENDBRANCH  14  19
ENDBRANCH  13  14
ENDBRANCH   1  13
TORSDOF 3
ENDMDL
MODEL 5
REMARK VINA RESULT:      -7.2      0.719      1.555
REMARK  Name = 
REMARK  6 active torsions:
REMARK  status: ('A' for Active; 'I' for Inactive)
REMARK    1  A    between atoms: C_1  and  C_2
REMARK    2  A    between atoms: C_5  and  O_6
REMARK    3  A    between atoms: O_6  and  C_7
REMARK    4  A    between atoms: C_7  and  C_8
REMARK    5  A    between atoms: N_17  and  C_18
REMARK    6  A    between atoms: C_21  and  C_22
REMARK                            x       y       z     vdW  Elec       q    Type
REMARK                         _______ _______ _______ _____ _____    ______ ____
ROOT
ATOM      1  C   UNL     1       3.120   6.263  17.758  0.00  0.00    +0.000 C 
ATOM      2  O   UNL     1       4.143   6.646  17.180  0.00  0.00    +0.000 OA
ATOM      3  N   UNL     1       2.668   4.944  17.607  0.00  0.00    +0.000 N 
ATOM      4  C   UNL     1       1.469   4.418  18.221  0.00  0.00    +0.000 C 
ATOM      5  C   UNL     1       1.800   3.524  19.431  0.00  0.00    +0.000 C 
ATOM      6  C   UNL     1       1.891   2.072  18.962  0.00  0.00    +0.000 C 
ATOM      7  C   UNL     1       3.303   1.702  18.512  0.00  0.00    +0.000 C 
ATOM      8  C   UNL     1       4.164   2.941  18.194  0.00  0.00    +0.000 C 
ATOM      9  C   UNL     1       3.587   3.899  17.083  0.00  0.00    +0.000 C 
ATOM     10  N   UNL     1       4.359   3.588  19.501  0.00  0.00    +0.000 NA
ATOM     11  C   UNL     1       5.439   4.563  19.488  0.00  0.00    +0.000 C 
ATOM     12  C   UNL     1       3.104   3.958  20.173  0.00  0.00    +0.000 C 
ENDROOT
BRANCH   1  13
ATOM     13  C   UNL     1       2.387   7.236  18.740  0.00  0.00    +0.000 C 
BRANCH  13  14
ATOM     14  O   UNL     1       1.932   8.478  18.223  0.00  0.00    +0.000 OA
BRANCH  14  19
ATOM     15  C   UNL     1      -1.213  11.538  21.837  0.00  0.00    +0.000 C 
ATOM     16  C   UNL     1      -0.315  10.782  20.896  0.00  0.00    +0.000 A 
ATOM     17  C   UNL     1      -0.276  11.148  19.545  0.00  0.00    +0.000 A 
ATOM     18  C   UNL     1       0.496  10.433  18.623  0.00  0.00    +0.000 A 
ATOM     19  C   UNL     1       1.229   9.321  19.033  0.00  0.00    +0.000 A 
ATOM     20  C   UNL     1       1.229   8.980  20.389  0.00  0.00    +0.000 A 
ATOM     21  C   UNL     1       0.472   9.701  21.332  0.00  0.00    +0.000 A 
ATOM     22  C   UNL     1       0.481   9.275  22.775  0.00  0.00    +0.000 C 
ENDBRANCH  14  19
ENDBRANCH  13  14
ENDBRANCH   1  13
TORSDOF 3
ENDMDL
MODEL 6
REMARK VINA RESULT:      -7.1      3.694      7.715
REMARK  Name = 
REMARK  6 active torsions:
REMARK  status: ('A' for Active; 'I' for Inactive)
REMARK    1  A    between atoms: C_1  and  C_2
REMARK    2  A    between atoms: C_5  and  O_6
REMARK    3  A    between atoms: O_6  and  C_7
REMARK    4  A    between atoms: C_7  and  C_8
REMARK    5  A    between atoms: N_17  and  C_18
REMARK    6  A    between atoms: C_21  and  C_22
REMARK                            x       y       z     vdW  Elec       q    Type
REMARK                         _______ _______ _______ _____ _____    ______ ____
ROOT
ATOM      1  C   UNL     1       5.202   4.588  19.210  0.00  0.00    +0.000 C 
ATOM      2  O   UNL     1       5.364   5.629  19.855  0.00  0.00    +0.000 OA
ATOM      3  N   UNL     1       4.197   3.677  19.568  0.00  0.00    +0.000 N 
ATOM      4  C   UNL     1       3.954   2.423  18.890  0.00  0.00    +0.000 C 
ATOM      5  C   UNL     1       2.715   2.504  17.979  0.00  0.00    +0.000 C 
ATOM      6  C   UNL     1       1.494   2.024  18.763  0.00  0.00    +0.000 C 
ATOM      7  C   UNL     1       0.810   3.165  19.515  0.00  0.00    +0.000 C 
ATOM      8  C   UNL     1       1.732   4.388  19.695  0.00  0.00    +0.000 C 
ATOM      9  C   UNL     1       3.085   4.109  20.455  0.00  0.00    +0.000 C 
ATOM     10  N   UNL     1       1.908   4.909  18.331  0.00  0.00    +0.000 NA
ATOM     11  C   UNL     1       2.438   6.264  18.313  0.00  0.00    +0.000 C 
ATOM     12  C   UNL     1       2.481   3.933  17.391  0.00  0.00    +0.000 C 
ENDROOT
BRANCH   1  13
ATOM     13  C   UNL     1       6.066   4.339  17.930  0.00  0.00    +0.000 C 
BRANCH  13  14
ATOM     14  O   UNL     1       5.859   5.195  16.816  0.00  0.00    +0.000 OA
BRANCH  14  19
ATOM     15  C   UNL     1       6.910   3.767  11.415  0.00  0.00    +0.000 C 
ATOM     16  C   UNL     1       6.687   4.083  12.868  0.00  0.00    +0.000 A 
ATOM     17  C   UNL     1       5.671   3.419  13.567  0.00  0.00    +0.000 A 
ATOM     18  C   UNL     1       5.387   3.727  14.901  0.00  0.00    +0.000 A 
ATOM     19  C   UNL     1       6.104   4.725  15.559  0.00  0.00    +0.000 A 
ATOM     20  C   UNL     1       7.150   5.359  14.881  0.00  0.00    +0.000 A 
ATOM     21  C   UNL     1       7.459   5.046  13.542  0.00  0.00    +0.000 A 
ATOM     22  C   UNL     1       8.575   5.779  12.847  0.00  0.00    +0.000 C 
ENDBRANCH  14  19
ENDBRANCH  13  14
ENDBRANCH   1  13
TORSDOF 3
ENDMDL
MODEL 7
REMARK VINA RESULT:      -7.1      1.430      2.775
REMARK  Name = 
REMARK  6 active torsions:
REMARK  status: ('A' for Active; 'I' for Inactive)
REMARK    1  A    between atoms: C_1  and  C_2
REMARK    2  A    between atoms: C_5  and  O_6
REMARK    3  A    between atoms: O_6  and  C_7
REMARK    4  A    between atoms: C_7  and  C_8
REMARK    5  A    between atoms: N_17  and  C_18
REMARK    6  A    between atoms: C_21  and  C_22
REMARK                            x       y       z     vdW  Elec       q    Type
REMARK                         _______ _______ _______ _____ _____    ______ ____
ROOT
ATOM      1  C   UNL     1       4.781   5.539  18.725  0.00  0.00    +0.000 C 
ATOM      2  O   UNL     1       5.395   5.783  19.770  0.00  0.00    +0.000 OA
ATOM      3  N   UNL     1       4.484   4.216  18.366  0.00  0.00    +0.000 N 
ATOM      4  C   UNL     1       3.797   3.835  17.152  0.00  0.00    +0.000 C 
ATOM      5  C   UNL     1       2.332   3.450  17.431  0.00  0.00    +0.000 C 
ATOM      6  C   UNL     1       2.252   1.938  17.647  0.00  0.00    +0.000 C 
ATOM      7  C   UNL     1       2.456   1.558  19.112  0.00  0.00    +0.000 C 
ATOM      8  C   UNL     1       3.139   2.678  19.922  0.00  0.00    +0.000 C 
ATOM      9  C   UNL     1       4.549   3.137  19.387  0.00  0.00    +0.000 C 
ATOM     10  N   UNL     1       2.136   3.753  19.966  0.00  0.00    +0.000 NA
ATOM     11  C   UNL     1       2.428   4.751  20.983  0.00  0.00    +0.000 C 
ATOM     12  C   UNL     1       1.714   4.225  18.638  0.00  0.00    +0.000 C 
ENDROOT
BRANCH   1  13
ATOM     13  C   UNL     1       4.252   6.726  17.854  0.00  0.00    +0.000 C 
BRANCH  13  14
ATOM     14  O   UNL     1       2.846   6.909  17.769  0.00  0.00    +0.000 OA
BRANCH  14  19
ATOM     15  C   UNL     1       0.109  11.136  20.406  0.00  0.00    +0.000 C 
ATOM     16  C   UNL     1       0.908  10.054  19.733  0.00  0.00    +0.000 A 
ATOM     17  C   UNL     1       1.297  10.218  18.398  0.00  0.00    +0.000 A 
ATOM     18  C   UNL     1       1.985   9.210  17.714  0.00  0.00    +0.000 A 
ATOM     19  C   UNL     1       2.279   8.006  18.349  0.00  0.00    +0.000 A 
ATOM     20  C   UNL     1       1.934   7.854  19.695  0.00  0.00    +0.000 A 
ATOM     21  C   UNL     1       1.257   8.867  20.403  0.00  0.00    +0.000 A 
ATOM     22  C   UNL     1       0.880   8.643  21.842  0.00  0.00    +0.000 C 
ENDBRANCH  14  19
ENDBRANCH  13  14
ENDBRANCH   1  13
TORSDOF 3
ENDMDL
MODEL 8
REMARK VINA RESULT:      -7.1      3.787      7.726
REMARK  Name = 
REMARK  6 active torsions:
REMARK  status: ('A' for Active; 'I' for Inactive)
REMARK    1  A    between atoms: C_1  and  C_2
REMARK    2  A    between atoms: C_5  and  O_6
REMARK    3  A    between atoms: O_6  and  C_7
REMARK    4  A    between atoms: C_7  and  C_8
REMARK    5  A    between atoms: N_17  and  C_18
REMARK    6  A    between atoms: C_21  and  C_22
REMARK                            x       y       z     vdW  Elec       q    Type
REMARK                         _______ _______ _______ _____ _____    ______ ____
ROOT
ATOM      1  C   UNL     1       4.496   5.295  18.502  0.00  0.00    +0.000 C 
ATOM      2  O   UNL     1       4.075   6.330  17.974  0.00  0.00    +0.000 OA
ATOM      3  N   UNL     1       3.945   4.835  19.707  0.00  0.00    +0.000 N 
ATOM      4  C   UNL     1       4.391   3.652  20.409  0.00  0.00    +0.000 C 
ATOM      5  C   UNL     1       3.413   2.478  20.215  0.00  0.00    +0.000 C 
ATOM      6  C   UNL     1       2.412   2.474  21.370  0.00  0.00    +0.000 C 
ATOM      7  C   UNL     1       1.183   3.330  21.066  0.00  0.00    +0.000 C 
ATOM      8  C   UNL     1       1.434   4.337  19.925  0.00  0.00    +0.000 C 
ATOM      9  C   UNL     1       2.624   5.344  20.162  0.00  0.00    +0.000 C 
ATOM     10  N   UNL     1       1.592   3.494  18.730  0.00  0.00    +0.000 NA
ATOM     11  C   UNL     1       1.472   4.250  17.492  0.00  0.00    +0.000 C 
ATOM     12  C   UNL     1       2.682   2.512  18.835  0.00  0.00    +0.000 C 
ENDROOT
BRANCH   1  13
ATOM     13  C   UNL     1       5.583   4.447  17.763  0.00  0.00    +0.000 C 
BRANCH  13  14
ATOM     14  O   UNL     1       5.194   3.752  16.587  0.00  0.00    +0.000 OA
BRANCH  14  19
ATOM     15  C   UNL     1       7.507   4.623  11.467  0.00  0.00    +0.000 C 
ATOM     16  C   UNL     1       6.850   4.466  12.812  0.00  0.00    +0.000 A 
ATOM     17  C   UNL     1       7.463   5.020  13.943  0.00  0.00    +0.000 A 
ATOM     18  C   UNL     1       6.921   4.844  15.220  0.00  0.00    +0.000 A 
ATOM     19  C   UNL     1       5.763   4.089  15.393  0.00  0.00    +0.000 A 
ATOM     20  C   UNL     1       5.123   3.572  14.263  0.00  0.00    +0.000 A 
ATOM     21  C   UNL     1       5.646   3.757  12.968  0.00  0.00    +0.000 A 
ATOM     22  C   UNL     1       4.935   3.155  11.787  0.00  0.00    +0.000 C 
ENDBRANCH  14  19
ENDBRANCH  13  14
ENDBRANCH   1  13
TORSDOF 3
ENDMDL
MODEL 9
REMARK VINA RESULT:      -7.1      1.308      1.927
REMARK  Name = 
REMARK  6 active torsions:
REMARK  status: ('A' for Active; 'I' for Inactive)
REMARK    1  A    between atoms: C_1  and  C_2
REMARK    2  A    between atoms: C_5  and  O_6
REMARK    3  A    between atoms: O_6  and  C_7
REMARK    4  A    between atoms: C_7  and  C_8
REMARK    5  A    between atoms: N_17  and  C_18
REMARK    6  A    between atoms: C_21  and  C_22
REMARK                            x       y       z     vdW  Elec       q    Type
REMARK                         _______ _______ _______ _____ _____    ______ ____
ROOT
ATOM      1  C   UNL     1       4.143   4.960  17.558  0.00  0.00    +0.000 C 
ATOM      2  O   UNL     1       5.228   4.526  17.156  0.00  0.00    +0.000 OA
ATOM      3  N   UNL     1       2.986   4.171  17.478  0.00  0.00    +0.000 N 
ATOM      4  C   UNL     1       1.672   4.605  17.898  0.00  0.00    +0.000 C 
ATOM      5  C   UNL     1       1.275   3.979  19.247  0.00  0.00    +0.000 C 
ATOM      6  C   UNL     1       0.486   2.696  18.983  0.00  0.00    +0.000 C 
ATOM      7  C   UNL     1       1.399   1.475  18.874  0.00  0.00    +0.000 C 
ATOM      8  C   UNL     1       2.865   1.858  18.589  0.00  0.00    +0.000 C 
ATOM      9  C   UNL     1       3.102   2.702  17.279  0.00  0.00    +0.000 C 
ATOM     10  N   UNL     1       3.307   2.530  19.821  0.00  0.00    +0.000 NA
ATOM     11  C   UNL     1       4.755   2.644  19.908  0.00  0.00    +0.000 C 
ATOM     12  C   UNL     1       2.499   3.705  20.179  0.00  0.00    +0.000 C 
ENDROOT
BRANCH   1  13
ATOM     13  C   UNL     1       4.090   6.362  18.249  0.00  0.00    +0.000 C 
BRANCH  13  14
ATOM     14  O   UNL     1       3.120   7.291  17.787  0.00  0.00    +0.000 OA
BRANCH  14  19
ATOM     15  C   UNL     1      -0.167  10.259  21.351  0.00  0.00    +0.000 C 
ATOM     16  C   UNL     1       0.635   9.423  20.391  0.00  0.00    +0.000 A 
ATOM     17  C   UNL     1       1.321   8.299  20.868  0.00  0.00    +0.000 A 
ATOM     18  C   UNL     1       2.129   7.531  20.023  0.00  0.00    +0.000 A 
ATOM     19  C   UNL     1       2.284   7.887  18.685  0.00  0.00    +0.000 A 
ATOM     20  C   UNL     1       1.565   8.980  18.194  0.00  0.00    +0.000 A 
ATOM     21  C   UNL     1       0.733   9.752  19.027  0.00  0.00    +0.000 A 
ATOM     22  C   UNL     1       0.004  10.938  18.456  0.00  0.00    +0.000 C 
ENDBRANCH  14  19
ENDBRANCH  13  14
ENDBRANCH   1  13
TORSDOF 3
ENDMDL
