MODEL 1
REMARK VINA RESULT:      -7.7      0.000      0.000
REMARK  Name = 
REMARK  0 active torsions:
REMARK  status: ('A' for Active; 'I' for Inactive)
REMARK                            x       y       z     vdW  Elec       q    Type
REMARK                         _______ _______ _______ _____ _____    ______ ____
ROOT
ATOM      1  O   UNL     1       4.922   7.019  15.389  0.00  0.00    +0.000 OA
ATOM      2  C   UNL     1       4.885   6.381  16.425  0.00  0.00    +0.000 C 
ATOM      3  C   UNL     1       6.011   6.216  17.335  0.00  0.00    +0.000 A 
ATOM      4  C   UNL     1       7.180   6.951  17.365  0.00  0.00    +0.000 A 
ATOM      5  C   UNL     1       7.989   6.807  18.489  0.00  0.00    +0.000 A 
ATOM      6  C   UNL     1       7.617   5.939  19.532  0.00  0.00    +0.000 A 
ATOM      7  C   UNL     1       6.442   5.179  19.458  0.00  0.00    +0.000 A 
ATOM      8  C   UNL     1       5.634   5.324  18.342  0.00  0.00    +0.000 A 
ATOM      9  C   UNL     1       4.263   4.754  18.072  0.00  0.00    +0.000 C 
ATOM     10 BR   UNL     1       4.379   2.970  17.359  0.00  0.00    +0.000 Br
ATOM     11  C   UNL     1       3.325   4.817  19.250  0.00  0.00    +0.000 C 
ATOM     12  O   UNL     1       3.172   4.010  20.151  0.00  0.00    +0.000 OA
ATOM     13  C   UNL     1       2.678   6.125  19.221  0.00  0.00    +0.000 A 
ATOM     14  C   UNL     1       2.107   6.798  20.281  0.00  0.00    +0.000 A 
ATOM     15  C   UNL     1       1.807   8.146  20.086  0.00  0.00    +0.000 A 
ATOM     16  C   UNL     1       2.070   8.765  18.850  0.00  0.00    +0.000 A 
ATOM     17  C   UNL     1       2.617   8.046  17.780  0.00  0.00    +0.000 A 
ATOM     18  C   UNL     1       2.931   6.711  17.978  0.00  0.00    +0.000 A 
ATOM     19  C   UNL     1       3.666   5.762  17.056  0.00  0.00    +0.000 C 
ENDROOT
TORSDOF 0
ENDMDL
MODEL 2
REMARK VINA RESULT:      -7.1      2.524      4.182
REMARK  Name = 
REMARK  0 active torsions:
REMARK  status: ('A' for Active; 'I' for Inactive)
REMARK                            x       y       z     vdW  Elec       q    Type
REMARK                         _______ _______ _______ _____ _____    ______ ____
ROOT
ATOM      1  O   UNL     1       6.851   5.412  19.828  0.00  0.00    +0.000 OA
ATOM      2  C   UNL     1       5.944   5.391  19.016  0.00  0.00    +0.000 C 
ATOM      3  C   UNL     1       6.129   5.370  17.571  0.00  0.00    +0.000 A 
ATOM      4  C   UNL     1       7.289   5.079  16.878  0.00  0.00    +0.000 A 
ATOM      5  C   UNL     1       7.167   4.843  15.511  0.00  0.00    +0.000 A 
ATOM      6  C   UNL     1       5.910   4.914  14.882  0.00  0.00    +0.000 A 
ATOM      7  C   UNL     1       4.756   5.247  15.605  0.00  0.00    +0.000 A 
ATOM      8  C   UNL     1       4.875   5.477  16.966  0.00  0.00    +0.000 A 
ATOM      9  C   UNL     1       3.796   5.701  17.997  0.00  0.00    +0.000 C 
ATOM     10 BR   UNL     1       3.263   7.550  18.057  0.00  0.00    +0.000 Br
ATOM     11  C   UNL     1       2.605   4.788  17.853  0.00  0.00    +0.000 C 
ATOM     12  O   UNL     1       1.600   4.942  17.182  0.00  0.00    +0.000 OA
ATOM     13  C   UNL     1       2.909   3.561  18.582  0.00  0.00    +0.000 A 
ATOM     14  C   UNL     1       2.355   2.313  18.383  0.00  0.00    +0.000 A 
ATOM     15  C   UNL     1       2.994   1.233  18.991  0.00  0.00    +0.000 A 
ATOM     16  C   UNL     1       4.142   1.434  19.780  0.00  0.00    +0.000 A 
ATOM     17  C   UNL     1       4.660   2.718  19.993  0.00  0.00    +0.000 A 
ATOM     18  C   UNL     1       4.035   3.789  19.376  0.00  0.00    +0.000 A 
ATOM     19  C   UNL     1       4.476   5.236  19.312  0.00  0.00    +0.000 C 
ENDROOT
TORSDOF 0
ENDMDL
MODEL 3
REMARK VINA RESULT:      -6.8      6.463      8.582
REMARK  Name = 
REMARK  0 active torsions:
REMARK  status: ('A' for Active; 'I' for Inactive)
REMARK                            x       y       z     vdW  Elec       q    Type
REMARK                         _______ _______ _______ _____ _____    ______ ____
ROOT
ATOM      1  O   UNL     1       0.960   9.635  17.809  0.00  0.00    +0.000 OA
ATOM      2  C   UNL     1       0.222  10.442  18.343  0.00  0.00    +0.000 C 
ATOM      3  C   UNL     1      -1.189  10.612  18.021  0.00  0.00    +0.000 A 
ATOM      4  C   UNL     1      -1.997   9.745  17.311  0.00  0.00    +0.000 A 
ATOM      5  C   UNL     1      -3.370   9.972  17.365  0.00  0.00    +0.000 A 
ATOM      6  C   UNL     1      -3.888  11.049  18.109  0.00  0.00    +0.000 A 
ATOM      7  C   UNL     1      -3.040  11.932  18.790  0.00  0.00    +0.000 A 
ATOM      8  C   UNL     1      -1.675  11.705  18.741  0.00  0.00    +0.000 A 
ATOM      9  C   UNL     1      -0.561  12.396  19.489  0.00  0.00    +0.000 C 
ATOM     10 BR   UNL     1      -0.003  14.000  18.583  0.00  0.00    +0.000 Br
ATOM     11  C   UNL     1      -0.866  12.662  20.942  0.00  0.00    +0.000 C 
ATOM     12  O   UNL     1      -1.418  13.625  21.445  0.00  0.00    +0.000 OA
ATOM     13  C   UNL     1      -0.492  11.465  21.689  0.00  0.00    +0.000 A 
ATOM     14  C   UNL     1      -0.971  11.066  22.919  0.00  0.00    +0.000 A 
ATOM     15  C   UNL     1      -0.695   9.756  23.312  0.00  0.00    +0.000 A 
ATOM     16  C   UNL     1       0.053   8.904  22.478  0.00  0.00    +0.000 A 
ATOM     17  C   UNL     1       0.557   9.350  21.249  0.00  0.00    +0.000 A 
ATOM     18  C   UNL     1       0.269  10.645  20.853  0.00  0.00    +0.000 A 
ATOM     19  C   UNL     1       0.551  11.316  19.525  0.00  0.00    +0.000 C 
ENDROOT
TORSDOF 0
ENDMDL
MODEL 4
REMARK VINA RESULT:      -6.8      0.948      1.155
REMARK  Name = 
REMARK  0 active torsions:
REMARK  status: ('A' for Active; 'I' for Inactive)
REMARK                            x       y       z     vdW  Elec       q    Type
REMARK                         _______ _______ _______ _____ _____    ______ ____
ROOT
ATOM      1  O   UNL     1       4.928   7.430  15.712  0.00  0.00    +0.000 OA
ATOM      2  C   UNL     1       5.130   6.527  16.501  0.00  0.00    +0.000 C 
ATOM      3  C   UNL     1       6.332   6.390  17.313  0.00  0.00    +0.000 A 
ATOM      4  C   UNL     1       7.289   7.355  17.562  0.00  0.00    +0.000 A 
ATOM      5  C   UNL     1       8.198   7.095  18.585  0.00  0.00    +0.000 A 
ATOM      6  C   UNL     1       8.131   5.893  19.312  0.00  0.00    +0.000 A 
ATOM      7  C   UNL     1       7.171   4.917  19.013  0.00  0.00    +0.000 A 
ATOM      8  C   UNL     1       6.264   5.176  17.998  0.00  0.00    +0.000 A 
ATOM      9  C   UNL     1       5.052   4.383  17.572  0.00  0.00    +0.000 C 
ATOM     10 BR   UNL     1       5.535   2.980  16.346  0.00  0.00    +0.000 Br
ATOM     11  C   UNL     1       4.226   3.855  18.717  0.00  0.00    +0.000 C 
ATOM     12  O   UNL     1       4.345   2.806  19.327  0.00  0.00    +0.000 OA
ATOM     13  C   UNL     1       3.284   4.904  19.093  0.00  0.00    +0.000 A 
ATOM     14  C   UNL     1       2.657   5.066  20.310  0.00  0.00    +0.000 A 
ATOM     15  C   UNL     1       2.027   6.289  20.540  0.00  0.00    +0.000 A 
ATOM     16  C   UNL     1       2.032   7.291  19.553  0.00  0.00    +0.000 A 
ATOM     17  C   UNL     1       2.647   7.084  18.311  0.00  0.00    +0.000 A 
ATOM     18  C   UNL     1       3.286   5.876  18.089  0.00  0.00    +0.000 A 
ATOM     19  C   UNL     1       4.150   5.460  16.917  0.00  0.00    +0.000 C 
ENDROOT
TORSDOF 0
ENDMDL
MODEL 5
REMARK VINA RESULT:      -6.7      1.206      4.814
REMARK  Name = 
REMARK  0 active torsions:
REMARK  status: ('A' for Active; 'I' for Inactive)
REMARK                            x       y       z     vdW  Elec       q    Type
REMARK                         _______ _______ _______ _____ _____    ______ ____
ROOT
ATOM      1  O   UNL     1       5.326   3.175  19.871  0.00  0.00    +0.000 OA
ATOM      2  C   UNL     1       5.046   3.990  19.012  0.00  0.00    +0.000 C 
ATOM      3  C   UNL     1       3.885   4.868  19.053  0.00  0.00    +0.000 A 
ATOM      4  C   UNL     1       3.088   5.154  20.146  0.00  0.00    +0.000 A 
ATOM      5  C   UNL     1       2.212   6.230  20.025  0.00  0.00    +0.000 A 
ATOM      6  C   UNL     1       2.151   6.973  18.832  0.00  0.00    +0.000 A 
ATOM      7  C   UNL     1       2.946   6.637  17.728  0.00  0.00    +0.000 A 
ATOM      8  C   UNL     1       3.822   5.570  17.848  0.00  0.00    +0.000 A 
ATOM      9  C   UNL     1       4.884   5.091  16.889  0.00  0.00    +0.000 C 
ATOM     10 BR   UNL     1       4.140   3.917  15.556  0.00  0.00    +0.000 Br
ATOM     11  C   UNL     1       5.692   6.197  16.259  0.00  0.00    +0.000 C 
ATOM     12  O   UNL     1       5.463   6.830  15.244  0.00  0.00    +0.000 OA
ATOM     13  C   UNL     1       6.792   6.502  17.169  0.00  0.00    +0.000 A 
ATOM     14  C   UNL     1       7.504   7.680  17.252  0.00  0.00    +0.000 A 
ATOM     15  C   UNL     1       8.311   7.854  18.376  0.00  0.00    +0.000 A 
ATOM     16  C   UNL     1       8.390   6.851  19.360  0.00  0.00    +0.000 A 
ATOM     17  C   UNL     1       7.682   5.649  19.231  0.00  0.00    +0.000 A 
ATOM     18  C   UNL     1       6.868   5.483  18.123  0.00  0.00    +0.000 A 
ATOM     19  C   UNL     1       5.889   4.368  17.822  0.00  0.00    +0.000 C 
ENDROOT
TORSDOF 0
ENDMDL
MODEL 6
REMARK VINA RESULT:      -6.5      6.256      8.140
REMARK  Name = 
REMARK  0 active torsions:
REMARK  status: ('A' for Active; 'I' for Inactive)
REMARK                            x       y       z     vdW  Elec       q    Type
REMARK                         _______ _______ _______ _____ _____    ______ ____
ROOT
ATOM      1  O   UNL     1       1.397   9.276  18.765  0.00  0.00    +0.000 OA
ATOM      2  C   UNL     1       0.724  10.233  19.100  0.00  0.00    +0.000 C 
ATOM      3  C   UNL     1       1.160  11.621  19.014  0.00  0.00    +0.000 A 
ATOM      4  C   UNL     1       2.232  12.121  18.300  0.00  0.00    +0.000 A 
ATOM      5  C   UNL     1       2.294  13.502  18.135  0.00  0.00    +0.000 A 
ATOM      6  C   UNL     1       1.303  14.334  18.688  0.00  0.00    +0.000 A 
ATOM      7  C   UNL     1       0.246  13.800  19.438  0.00  0.00    +0.000 A 
ATOM      8  C   UNL     1       0.181  12.426  19.600  0.00  0.00    +0.000 A 
ATOM      9  C   UNL     1      -0.908  11.585  20.220  0.00  0.00    +0.000 C 
ATOM     10 BR   UNL     1      -0.702  11.477  22.131  0.00  0.00    +0.000 Br
ATOM     11  C   UNL     1      -2.305  12.006  19.839  0.00  0.00    +0.000 C 
ATOM     12  O   UNL     1      -3.029  12.829  20.372  0.00  0.00    +0.000 OA
ATOM     13  C   UNL     1      -2.635  11.332  18.587  0.00  0.00    +0.000 A 
ATOM     14  C   UNL     1      -3.571  11.721  17.652  0.00  0.00    +0.000 A 
ATOM     15  C   UNL     1      -3.518  11.095  16.406  0.00  0.00    +0.000 A 
ATOM     16  C   UNL     1      -2.554  10.105  16.145  0.00  0.00    +0.000 A 
ATOM     17  C   UNL     1      -1.638   9.706  17.128  0.00  0.00    +0.000 A 
ATOM     18  C   UNL     1      -1.680  10.338  18.359  0.00  0.00    +0.000 A 
ATOM     19  C   UNL     1      -0.721  10.212  19.524  0.00  0.00    +0.000 C 
ENDROOT
TORSDOF 0
ENDMDL
MODEL 7
REMARK VINA RESULT:      -6.5      6.611      8.481
REMARK  Name = 
REMARK  0 active torsions:
REMARK  status: ('A' for Active; 'I' for Inactive)
REMARK                            x       y       z     vdW  Elec       q    Type
REMARK                         _______ _______ _______ _____ _____    ______ ____
ROOT
ATOM      1  O   UNL     1      -2.203  13.763  21.161  0.00  0.00    +0.000 OA
ATOM      2  C   UNL     1      -1.439  12.897  20.777  0.00  0.00    +0.000 C 
ATOM      3  C   UNL     1      -0.923  11.820  21.612  0.00  0.00    +0.000 A 
ATOM      4  C   UNL     1      -1.400  11.411  22.842  0.00  0.00    +0.000 A 
ATOM      5  C   UNL     1      -0.935  10.190  23.326  0.00  0.00    +0.000 A 
ATOM      6  C   UNL     1      -0.014   9.429  22.583  0.00  0.00    +0.000 A 
ATOM      7  C   UNL     1       0.479   9.888  21.354  0.00  0.00    +0.000 A 
ATOM      8  C   UNL     1       0.015  11.100  20.869  0.00  0.00    +0.000 A 
ATOM      9  C   UNL     1       0.256  11.750  19.528  0.00  0.00    +0.000 C 
ATOM     10 BR   UNL     1       1.904  12.745  19.525  0.00  0.00    +0.000 Br
ATOM     11  C   UNL     1       0.183  10.802  18.359  0.00  0.00    +0.000 C 
ATOM     12  O   UNL     1       1.067  10.120  17.869  0.00  0.00    +0.000 OA
ATOM     13  C   UNL     1      -1.217  10.719  17.955  0.00  0.00    +0.000 A 
ATOM     14  C   UNL     1      -1.827   9.693  17.263  0.00  0.00    +0.000 A 
ATOM     15  C   UNL     1      -3.222   9.689  17.237  0.00  0.00    +0.000 A 
ATOM     16  C   UNL     1      -3.951  10.704  17.882  0.00  0.00    +0.000 A 
ATOM     17  C   UNL     1      -3.302  11.753  18.547  0.00  0.00    +0.000 A 
ATOM     18  C   UNL     1      -1.918  11.749  18.587  0.00  0.00    +0.000 A 
ATOM     19  C   UNL     1      -0.988  12.660  19.359  0.00  0.00    +0.000 C 
ENDROOT
TORSDOF 0
ENDMDL
MODEL 8
REMARK VINA RESULT:      -6.3      2.545      4.090
REMARK  Name = 
REMARK  0 active torsions:
REMARK  status: ('A' for Active; 'I' for Inactive)
REMARK                            x       y       z     vdW  Elec       q    Type
REMARK                         _______ _______ _______ _____ _____    ______ ____
ROOT
ATOM      1  O   UNL     1       8.052   4.001  18.164  0.00  0.00    +0.000 OA
ATOM      2  C   UNL     1       7.190   4.743  17.732  0.00  0.00    +0.000 C 
ATOM      3  C   UNL     1       6.787   4.816  16.334  0.00  0.00    +0.000 A 
ATOM      4  C   UNL     1       7.063   3.905  15.332  0.00  0.00    +0.000 A 
ATOM      5  C   UNL     1       6.345   4.032  14.146  0.00  0.00    +0.000 A 
ATOM      6  C   UNL     1       5.392   5.056  13.992  0.00  0.00    +0.000 A 
ATOM      7  C   UNL     1       5.159   5.987  15.012  0.00  0.00    +0.000 A 
ATOM      8  C   UNL     1       5.869   5.860  16.195  0.00  0.00    +0.000 A 
ATOM      9  C   UNL     1       5.714   6.617  17.492  0.00  0.00    +0.000 C 
ATOM     10 BR   UNL     1       6.697   8.272  17.453  0.00  0.00    +0.000 Br
ATOM     11  C   UNL     1       4.283   6.836  17.911  0.00  0.00    +0.000 C 
ATOM     12  O   UNL     1       3.530   7.749  17.617  0.00  0.00    +0.000 OA
ATOM     13  C   UNL     1       3.866   5.658  18.664  0.00  0.00    +0.000 A 
ATOM     14  C   UNL     1       2.578   5.206  18.861  0.00  0.00    +0.000 A 
ATOM     15  C   UNL     1       2.431   3.912  19.364  0.00  0.00    +0.000 A 
ATOM     16  C   UNL     1       3.562   3.130  19.663  0.00  0.00    +0.000 A 
ATOM     17  C   UNL     1       4.859   3.631  19.486  0.00  0.00    +0.000 A 
ATOM     18  C   UNL     1       5.004   4.909  18.972  0.00  0.00    +0.000 A 
ATOM     19  C   UNL     1       6.270   5.620  18.540  0.00  0.00    +0.000 C 
ENDROOT
TORSDOF 0
ENDMDL
MODEL 9
REMARK VINA RESULT:      -6.1      6.905      9.221
REMARK  Name = 
REMARK  0 active torsions:
REMARK  status: ('A' for Active; 'I' for Inactive)
REMARK                            x       y       z     vdW  Elec       q    Type
REMARK                         _______ _______ _______ _____ _____    ______ ____
ROOT
ATOM      1  O   UNL     1      -0.692   9.754  17.476  0.00  0.00    +0.000 OA
ATOM      2  C   UNL     1      -1.049  10.621  18.252  0.00  0.00    +0.000 C 
ATOM      3  C   UNL     1      -2.416  11.110  18.374  0.00  0.00    +0.000 A 
ATOM      4  C   UNL     1      -3.565  10.517  17.886  0.00  0.00    +0.000 A 
ATOM      5  C   UNL     1      -4.779  11.008  18.359  0.00  0.00    +0.000 A 
ATOM      6  C   UNL     1      -4.811  12.067  19.285  0.00  0.00    +0.000 A 
ATOM      7  C   UNL     1      -3.630  12.672  19.734  0.00  0.00    +0.000 A 
ATOM      8  C   UNL     1      -2.420  12.182  19.268  0.00  0.00    +0.000 A 
ATOM      9  C   UNL     1      -1.016  12.537  19.692  0.00  0.00    +0.000 C 
ATOM     10 BR   UNL     1      -0.380  14.094  18.756  0.00  0.00    +0.000 Br
ATOM     11  C   UNL     1      -0.838  12.679  21.182  0.00  0.00    +0.000 C 
ATOM     12  O   UNL     1      -0.994  13.664  21.882  0.00  0.00    +0.000 OA
ATOM     13  C   UNL     1      -0.555  11.349  21.713  0.00  0.00    +0.000 A 
ATOM     14  C   UNL     1      -0.753  10.907  23.005  0.00  0.00    +0.000 A 
ATOM     15  C   UNL     1      -0.686   9.530  23.220  0.00  0.00    +0.000 A 
ATOM     16  C   UNL     1      -0.413   8.654  22.153  0.00  0.00    +0.000 A 
ATOM     17  C   UNL     1      -0.182   9.135  20.858  0.00  0.00    +0.000 A 
ATOM     18  C   UNL     1      -0.264  10.501  20.642  0.00  0.00    +0.000 A 
ATOM     19  C   UNL     1      -0.215  11.259  19.332  0.00  0.00    +0.000 C 
ENDROOT
TORSDOF 0
ENDMDL
