MODEL 1
REMARK VINA RESULT:      -8.9      0.000      0.000
REMARK  Name = 
REMARK  3 active torsions:
REMARK  status: ('A' for Active; 'I' for Inactive)
REMARK    1  A    between atoms: C_2  and  C_18
REMARK    2  A    between atoms: C_7  and  S_8
REMARK    3  A    between atoms: S_8  and  N_11
REMARK                            x       y       z     vdW  Elec       q    Type
REMARK                         _______ _______ _______ _____ _____    ______ ____
ROOT
ATOM      1  O   UNL     1       7.627   9.693  17.685  0.00  0.00    +0.000 OA
ATOM      2  C   UNL     1       8.543   9.353  18.429  0.00  0.00    +0.000 C 
ATOM      3  N   UNL     1       8.777   8.092  18.936  0.00  0.00    +0.000 N 
ATOM      4  C   UNL     1       8.003   6.990  18.629  0.00  0.00    +0.000 A 
ATOM      5  N   UNL     1       7.995   5.877  19.331  0.00  0.00    +0.000 NA
ATOM      6  N   UNL     1       7.082   4.948  18.832  0.00  0.00    +0.000 NA
ATOM      7  C   UNL     1       6.496   5.405  17.742  0.00  0.00    +0.000 A 
ATOM      8  S   UNL     1       7.018   6.939  17.232  0.00  0.00    +0.000 S 
ATOM      9  H   UNL     1       9.396   7.967  19.721  0.00  0.00    +0.000 HD
ENDROOT
BRANCH   2  10
ATOM     10  C   UNL     1       9.455  10.432  18.891  0.00  0.00    +0.000 A 
ATOM     11  C   UNL     1      10.263  11.054  17.923  0.00  0.00    +0.000 A 
ATOM     12  C   UNL     1      11.189  12.024  18.302  0.00  0.00    +0.000 A 
ATOM     13  C   UNL     1      11.311  12.358  19.644  0.00  0.00    +0.000 A 
ATOM     14  F   UNL     1      12.211  13.277  20.014  0.00  0.00    +0.000 F 
ATOM     15  C   UNL     1      10.525  11.739  20.615  0.00  0.00    +0.000 A 
ATOM     16  C   UNL     1       9.588  10.770  20.241  0.00  0.00    +0.000 A 
ENDBRANCH   2  10
BRANCH   7  17
ATOM     17  S   UNL     1       5.249   4.613  16.768  0.00  0.00    +0.000 S 
ATOM     18  O   UNL     1       4.671   5.671  15.963  0.00  0.00    +0.000 OA
ATOM     19  O   UNL     1       5.921   3.484  16.150  0.00  0.00    +0.000 OA
BRANCH  17  20
ATOM     20  N   UNL     1       3.995   3.981  17.765  0.00  0.00    +0.000 NA
ATOM     21  C   UNL     1       2.746   4.781  17.746  0.00  0.00    +0.000 C 
ATOM     22  C   UNL     1       1.718   4.239  18.733  0.00  0.00    +0.000 C 
ATOM     23  C   UNL     1       1.472   2.754  18.509  0.00  0.00    +0.000 C 
ATOM     24  C   UNL     1       2.784   1.997  18.650  0.00  0.00    +0.000 C 
ATOM     25  C   UNL     1       3.823   2.510  17.661  0.00  0.00    +0.000 C 
ENDBRANCH  17  20
ENDBRANCH   7  17
TORSDOF 3
ENDMDL
MODEL 2
REMARK VINA RESULT:      -8.9      0.512      1.143
REMARK  Name = 
REMARK  3 active torsions:
REMARK  status: ('A' for Active; 'I' for Inactive)
REMARK    1  A    between atoms: C_2  and  C_18
REMARK    2  A    between atoms: C_7  and  S_8
REMARK    3  A    between atoms: S_8  and  N_11
REMARK                            x       y       z     vdW  Elec       q    Type
REMARK                         _______ _______ _______ _____ _____    ______ ____
ROOT
ATOM      1  O   UNL     1       7.657   9.632  17.440  0.00  0.00    +0.000 OA
ATOM      2  C   UNL     1       8.474   9.301  18.295  0.00  0.00    +0.000 C 
ATOM      3  N   UNL     1       8.649   8.043  18.834  0.00  0.00    +0.000 N 
ATOM      4  C   UNL     1       7.925   6.936  18.435  0.00  0.00    +0.000 A 
ATOM      5  N   UNL     1       7.834   5.825  19.135  0.00  0.00    +0.000 NA
ATOM      6  N   UNL     1       6.997   4.889  18.530  0.00  0.00    +0.000 NA
ATOM      7  C   UNL     1       6.551   5.338  17.372  0.00  0.00    +0.000 A 
ATOM      8  S   UNL     1       7.126   6.873  16.925  0.00  0.00    +0.000 S 
ATOM      9  H   UNL     1       9.164   7.925  19.691  0.00  0.00    +0.000 HD
ENDROOT
BRANCH   2  10
ATOM     10  C   UNL     1       9.315  10.387  18.865  0.00  0.00    +0.000 A 
ATOM     11  C   UNL     1      10.138  11.101  17.975  0.00  0.00    +0.000 A 
ATOM     12  C   UNL     1      11.001  12.083  18.456  0.00  0.00    +0.000 A 
ATOM     13  C   UNL     1      11.045  12.339  19.820  0.00  0.00    +0.000 A 
ATOM     14  F   UNL     1      11.885  13.271  20.286  0.00  0.00    +0.000 F 
ATOM     15  C   UNL     1      10.243  11.629  20.712  0.00  0.00    +0.000 A 
ATOM     16  C   UNL     1       9.370  10.647  20.237  0.00  0.00    +0.000 A 
ENDBRANCH   2  10
BRANCH   7  17
ATOM     17  S   UNL     1       5.442   4.535  16.252  0.00  0.00    +0.000 S 
ATOM     18  O   UNL     1       5.216   5.497  15.191  0.00  0.00    +0.000 OA
ATOM     19  O   UNL     1       6.057   3.249  15.977  0.00  0.00    +0.000 OA
BRANCH  17  20
ATOM     20  N   UNL     1       3.922   4.230  17.001  0.00  0.00    +0.000 NA
ATOM     21  C   UNL     1       3.815   2.889  17.627  0.00  0.00    +0.000 C 
ATOM     22  C   UNL     1       2.412   2.635  18.170  0.00  0.00    +0.000 C 
ATOM     23  C   UNL     1       1.972   3.757  19.099  0.00  0.00    +0.000 C 
ATOM     24  C   UNL     1       2.011   5.080  18.348  0.00  0.00    +0.000 C 
ATOM     25  C   UNL     1       3.408   5.364  17.810  0.00  0.00    +0.000 C 
ENDBRANCH  17  20
ENDBRANCH   7  17
TORSDOF 3
ENDMDL
MODEL 3
REMARK VINA RESULT:      -8.8      0.702      1.520
REMARK  Name = 
REMARK  3 active torsions:
REMARK  status: ('A' for Active; 'I' for Inactive)
REMARK    1  A    between atoms: C_2  and  C_18
REMARK    2  A    between atoms: C_7  and  S_8
REMARK    3  A    between atoms: S_8  and  N_11
REMARK                            x       y       z     vdW  Elec       q    Type
REMARK                         _______ _______ _______ _____ _____    ______ ____
ROOT
ATOM      1  O   UNL     1       7.593   9.758  17.696  0.00  0.00    +0.000 OA
ATOM      2  C   UNL     1       8.528   9.381  18.396  0.00  0.00    +0.000 C 
ATOM      3  N   UNL     1       8.762   8.100  18.851  0.00  0.00    +0.000 N 
ATOM      4  C   UNL     1       7.964   7.019  18.530  0.00  0.00    +0.000 A 
ATOM      5  N   UNL     1       7.965   5.882  19.192  0.00  0.00    +0.000 NA
ATOM      6  N   UNL     1       7.025   4.982  18.692  0.00  0.00    +0.000 NA
ATOM      7  C   UNL     1       6.410   5.484  17.638  0.00  0.00    +0.000 A 
ATOM      8  S   UNL     1       6.934   7.029  17.165  0.00  0.00    +0.000 S 
ATOM      9  H   UNL     1       9.405   7.940  19.610  0.00  0.00    +0.000 HD
ENDROOT
BRANCH   2  10
ATOM     10  C   UNL     1       9.469  10.432  18.866  0.00  0.00    +0.000 A 
ATOM     11  C   UNL     1       9.439  10.762  20.233  0.00  0.00    +0.000 A 
ATOM     12  C   UNL     1      10.246  11.786  20.724  0.00  0.00    +0.000 A 
ATOM     13  C   UNL     1      11.068  12.481  19.847  0.00  0.00    +0.000 A 
ATOM     14  F   UNL     1      11.832  13.477  20.313  0.00  0.00    +0.000 F 
ATOM     15  C   UNL     1      11.096  12.173  18.488  0.00  0.00    +0.000 A 
ATOM     16  C   UNL     1      10.295  11.141  17.990  0.00  0.00    +0.000 A 
ENDBRANCH   2  10
BRANCH   7  17
ATOM     17  S   UNL     1       5.122   4.741  16.678  0.00  0.00    +0.000 S 
ATOM     18  O   UNL     1       5.008   5.571  15.495  0.00  0.00    +0.000 OA
ATOM     19  O   UNL     1       5.493   3.341  16.578  0.00  0.00    +0.000 OA
BRANCH  17  20
ATOM     20  N   UNL     1       3.614   4.816  17.506  0.00  0.00    +0.000 NA
ATOM     21  C   UNL     1       2.821   3.564  17.434  0.00  0.00    +0.000 C 
ATOM     22  C   UNL     1       1.452   3.731  18.084  0.00  0.00    +0.000 C 
ATOM     23  C   UNL     1       1.579   4.267  19.502  0.00  0.00    +0.000 C 
ATOM     24  C   UNL     1       2.310   5.601  19.474  0.00  0.00    +0.000 C 
ATOM     25  C   UNL     1       3.690   5.457  18.844  0.00  0.00    +0.000 C 
ENDBRANCH  17  20
ENDBRANCH   7  17
TORSDOF 3
ENDMDL
MODEL 4
REMARK VINA RESULT:      -8.8      0.563      1.182
REMARK  Name = 
REMARK  3 active torsions:
REMARK  status: ('A' for Active; 'I' for Inactive)
REMARK    1  A    between atoms: C_2  and  C_18
REMARK    2  A    between atoms: C_7  and  S_8
REMARK    3  A    between atoms: S_8  and  N_11
REMARK                            x       y       z     vdW  Elec       q    Type
REMARK                         _______ _______ _______ _____ _____    ______ ____
ROOT
ATOM      1  O   UNL     1       7.584   9.705  17.726  0.00  0.00    +0.000 OA
ATOM      2  C   UNL     1       8.537   9.352  18.416  0.00  0.00    +0.000 C 
ATOM      3  N   UNL     1       8.787   8.085  18.902  0.00  0.00    +0.000 N 
ATOM      4  C   UNL     1       7.985   6.993  18.631  0.00  0.00    +0.000 A 
ATOM      5  N   UNL     1       8.005   5.875  19.326  0.00  0.00    +0.000 NA
ATOM      6  N   UNL     1       7.056   4.958  18.874  0.00  0.00    +0.000 NA
ATOM      7  C   UNL     1       6.415   5.428  17.820  0.00  0.00    +0.000 A 
ATOM      8  S   UNL     1       6.923   6.961  17.291  0.00  0.00    +0.000 S 
ATOM      9  H   UNL     1       9.447   7.949  19.650  0.00  0.00    +0.000 HD
ENDROOT
BRANCH   2  10
ATOM     10  C   UNL     1       9.485  10.418  18.833  0.00  0.00    +0.000 A 
ATOM     11  C   UNL     1       9.506  10.767  20.195  0.00  0.00    +0.000 A 
ATOM     12  C   UNL     1      10.322  11.806  20.639  0.00  0.00    +0.000 A 
ATOM     13  C   UNL     1      11.101  12.497  19.720  0.00  0.00    +0.000 A 
ATOM     14  F   UNL     1      11.872  13.507  20.141  0.00  0.00    +0.000 F 
ATOM     15  C   UNL     1      11.078  12.169  18.366  0.00  0.00    +0.000 A 
ATOM     16  C   UNL     1      10.268  11.123  17.914  0.00  0.00    +0.000 A 
ENDBRANCH   2  10
BRANCH   7  17
ATOM     17  S   UNL     1       5.108   4.655  16.913  0.00  0.00    +0.000 S 
ATOM     18  O   UNL     1       4.516   5.718  16.125  0.00  0.00    +0.000 OA
ATOM     19  O   UNL     1       5.726   3.506  16.276  0.00  0.00    +0.000 OA
BRANCH  17  20
ATOM     20  N   UNL     1       3.888   4.060  17.973  0.00  0.00    +0.000 NA
ATOM     21  C   UNL     1       3.459   5.033  19.008  0.00  0.00    +0.000 C 
ATOM     22  C   UNL     1       2.466   4.411  19.983  0.00  0.00    +0.000 C 
ATOM     23  C   UNL     1       1.294   3.780  19.246  0.00  0.00    +0.000 C 
ATOM     24  C   UNL     1       1.814   2.722  18.284  0.00  0.00    +0.000 C 
ATOM     25  C   UNL     1       2.797   3.324  17.286  0.00  0.00    +0.000 C 
ENDBRANCH  17  20
ENDBRANCH   7  17
TORSDOF 3
ENDMDL
MODEL 5
REMARK VINA RESULT:      -8.1      5.403      7.729
REMARK  Name = 
REMARK  3 active torsions:
REMARK  status: ('A' for Active; 'I' for Inactive)
REMARK    1  A    between atoms: C_2  and  C_18
REMARK    2  A    between atoms: C_7  and  S_8
REMARK    3  A    between atoms: S_8  and  N_11
REMARK                            x       y       z     vdW  Elec       q    Type
REMARK                         _______ _______ _______ _____ _____    ______ ____
ROOT
ATOM      1  O   UNL     1       1.552   8.726  19.384  0.00  0.00    +0.000 OA
ATOM      2  C   UNL     1       1.232   8.487  20.545  0.00  0.00    +0.000 C 
ATOM      3  N   UNL     1       1.372   7.290  21.215  0.00  0.00    +0.000 N 
ATOM      4  C   UNL     1       1.952   6.166  20.656  0.00  0.00    +0.000 A 
ATOM      5  N   UNL     1       1.807   4.948  21.134  0.00  0.00    +0.000 NA
ATOM      6  N   UNL     1       2.451   3.995  20.347  0.00  0.00    +0.000 NA
ATOM      7  C   UNL     1       3.094   4.568  19.348  0.00  0.00    +0.000 A 
ATOM      8  S   UNL     1       2.998   6.264  19.308  0.00  0.00    +0.000 S 
ATOM      9  H   UNL     1       0.864   7.122  22.068  0.00  0.00    +0.000 HD
ENDROOT
BRANCH   2  10
ATOM     10  C   UNL     1       0.555   9.584  21.286  0.00  0.00    +0.000 A 
ATOM     11  C   UNL     1      -0.142   9.238  22.457  0.00  0.00    +0.000 A 
ATOM     12  C   UNL     1      -0.855  10.207  23.159  0.00  0.00    +0.000 A 
ATOM     13  C   UNL     1      -0.877  11.511  22.682  0.00  0.00    +0.000 A 
ATOM     14  F   UNL     1      -1.575  12.442  23.345  0.00  0.00    +0.000 F 
ATOM     15  C   UNL     1      -0.201  11.863  21.515  0.00  0.00    +0.000 A 
ATOM     16  C   UNL     1       0.522  10.898  20.809  0.00  0.00    +0.000 A 
ENDBRANCH   2  10
BRANCH   7  17
ATOM     17  S   UNL     1       4.030   3.784  18.068  0.00  0.00    +0.000 S 
ATOM     18  O   UNL     1       4.280   2.441  18.553  0.00  0.00    +0.000 OA
ATOM     19  O   UNL     1       3.264   4.011  16.855  0.00  0.00    +0.000 OA
BRANCH  17  20
ATOM     20  N   UNL     1       5.558   4.549  17.862  0.00  0.00    +0.000 NA
ATOM     21  C   UNL     1       5.626   5.463  16.695  0.00  0.00    +0.000 C 
ATOM     22  C   UNL     1       7.032   6.018  16.499  0.00  0.00    +0.000 C 
ATOM     23  C   UNL     1       7.553   6.657  17.778  0.00  0.00    +0.000 C 
ATOM     24  C   UNL     1       7.549   5.625  18.896  0.00  0.00    +0.000 C 
ATOM     25  C   UNL     1       6.149   5.067  19.123  0.00  0.00    +0.000 C 
ENDBRANCH  17  20
ENDBRANCH   7  17
TORSDOF 3
ENDMDL
MODEL 6
REMARK VINA RESULT:      -8.1      5.345      7.725
REMARK  Name = 
REMARK  3 active torsions:
REMARK  status: ('A' for Active; 'I' for Inactive)
REMARK    1  A    between atoms: C_2  and  C_18
REMARK    2  A    between atoms: C_7  and  S_8
REMARK    3  A    between atoms: S_8  and  N_11
REMARK                            x       y       z     vdW  Elec       q    Type
REMARK                         _______ _______ _______ _____ _____    ______ ____
ROOT
ATOM      1  O   UNL     1       2.088   8.344  19.601  0.00  0.00    +0.000 OA
ATOM      2  C   UNL     1       1.394   8.077  20.578  0.00  0.00    +0.000 C 
ATOM      3  N   UNL     1       1.185   6.832  21.134  0.00  0.00    +0.000 N 
ATOM      4  C   UNL     1       1.787   5.679  20.669  0.00  0.00    +0.000 A 
ATOM      5  N   UNL     1       1.369   4.464  20.954  0.00  0.00    +0.000 NA
ATOM      6  N   UNL     1       2.124   3.484  20.310  0.00  0.00    +0.000 NA
ATOM      7  C   UNL     1       3.108   4.028  19.620  0.00  0.00    +0.000 A 
ATOM      8  S   UNL     1       3.212   5.721  19.724  0.00  0.00    +0.000 S 
ATOM      9  H   UNL     1       0.417   6.681  21.768  0.00  0.00    +0.000 HD
ENDROOT
BRANCH   2  10
ATOM     10  C   UNL     1       0.638   9.206  21.183  0.00  0.00    +0.000 A 
ATOM     11  C   UNL     1       0.261   9.082  22.532  0.00  0.00    +0.000 A 
ATOM     12  C   UNL     1      -0.508  10.074  23.138  0.00  0.00    +0.000 A 
ATOM     13  C   UNL     1      -0.904  11.175  22.391  0.00  0.00    +0.000 A 
ATOM     14  F   UNL     1      -1.657  12.122  22.965  0.00  0.00    +0.000 F 
ATOM     15  C   UNL     1      -0.547  11.303  21.049  0.00  0.00    +0.000 A 
ATOM     16  C   UNL     1       0.230  10.316  20.437  0.00  0.00    +0.000 A 
ENDBRANCH   2  10
BRANCH   7  17
ATOM     17  S   UNL     1       4.311   3.207  18.616  0.00  0.00    +0.000 S 
ATOM     18  O   UNL     1       5.291   2.687  19.550  0.00  0.00    +0.000 OA
ATOM     19  O   UNL     1       3.542   2.316  17.766  0.00  0.00    +0.000 OA
BRANCH  17  20
ATOM     20  N   UNL     1       5.123   4.324  17.588  0.00  0.00    +0.000 NA
ATOM     21  C   UNL     1       6.516   4.626  18.002  0.00  0.00    +0.000 C 
ATOM     22  C   UNL     1       7.140   5.705  17.123  0.00  0.00    +0.000 C 
ATOM     23  C   UNL     1       7.028   5.346  15.649  0.00  0.00    +0.000 C 
ATOM     24  C   UNL     1       5.562   5.158  15.285  0.00  0.00    +0.000 C 
ATOM     25  C   UNL     1       4.920   4.071  16.139  0.00  0.00    +0.000 C 
ENDBRANCH  17  20
ENDBRANCH   7  17
TORSDOF 3
ENDMDL
MODEL 7
REMARK VINA RESULT:      -8.1      5.367      7.695
REMARK  Name = 
REMARK  3 active torsions:
REMARK  status: ('A' for Active; 'I' for Inactive)
REMARK    1  A    between atoms: C_2  and  C_18
REMARK    2  A    between atoms: C_7  and  S_8
REMARK    3  A    between atoms: S_8  and  N_11
REMARK                            x       y       z     vdW  Elec       q    Type
REMARK                         _______ _______ _______ _____ _____    ______ ____
ROOT
ATOM      1  O   UNL     1       1.519   8.712  19.432  0.00  0.00    +0.000 OA
ATOM      2  C   UNL     1       1.162   8.433  20.573  0.00  0.00    +0.000 C 
ATOM      3  N   UNL     1       1.319   7.224  21.219  0.00  0.00    +0.000 N 
ATOM      4  C   UNL     1       1.960   6.137  20.658  0.00  0.00    +0.000 A 
ATOM      5  N   UNL     1       1.841   4.903  21.101  0.00  0.00    +0.000 NA
ATOM      6  N   UNL     1       2.551   3.993  20.318  0.00  0.00    +0.000 NA
ATOM      7  C   UNL     1       3.212   4.614  19.360  0.00  0.00    +0.000 A 
ATOM      8  S   UNL     1       3.056   6.306  19.357  0.00  0.00    +0.000 S 
ATOM      9  H   UNL     1       0.783   7.017  22.047  0.00  0.00    +0.000 HD
ENDROOT
BRANCH   2  10
ATOM     10  C   UNL     1       0.417   9.485  21.312  0.00  0.00    +0.000 A 
ATOM     11  C   UNL     1       0.512  10.803  20.830  0.00  0.00    +0.000 A 
ATOM     12  C   UNL     1      -0.106  11.846  21.516  0.00  0.00    +0.000 A 
ATOM     13  C   UNL     1      -0.805  11.569  22.684  0.00  0.00    +0.000 A 
ATOM     14  F   UNL     1      -1.386  12.572  23.355  0.00  0.00    +0.000 F 
ATOM     15  C   UNL     1      -0.895  10.269  23.178  0.00  0.00    +0.000 A 
ATOM     16  C   UNL     1      -0.284   9.217  22.491  0.00  0.00    +0.000 A 
ENDBRANCH   2  10
BRANCH   7  17
ATOM     17  S   UNL     1       4.226   3.896  18.101  0.00  0.00    +0.000 S 
ATOM     18  O   UNL     1       4.492   2.545  18.556  0.00  0.00    +0.000 OA
ATOM     19  O   UNL     1       3.510   4.141  16.862  0.00  0.00    +0.000 OA
BRANCH  17  20
ATOM     20  N   UNL     1       5.740   4.707  17.990  0.00  0.00    +0.000 NA
ATOM     21  C   UNL     1       5.820   5.692  16.882  0.00  0.00    +0.000 C 
ATOM     22  C   UNL     1       7.218   6.290  16.765  0.00  0.00    +0.000 C 
ATOM     23  C   UNL     1       7.684   6.862  18.096  0.00  0.00    +0.000 C 
ATOM     24  C   UNL     1       7.672   5.764  19.149  0.00  0.00    +0.000 C 
ATOM     25  C   UNL     1       6.280   5.161  19.297  0.00  0.00    +0.000 C 
ENDBRANCH  17  20
ENDBRANCH   7  17
TORSDOF 3
ENDMDL
MODEL 8
REMARK VINA RESULT:      -7.7      5.696      7.396
REMARK  Name = 
REMARK  3 active torsions:
REMARK  status: ('A' for Active; 'I' for Inactive)
REMARK    1  A    between atoms: C_2  and  C_18
REMARK    2  A    between atoms: C_7  and  S_8
REMARK    3  A    between atoms: S_8  and  N_11
REMARK                            x       y       z     vdW  Elec       q    Type
REMARK                         _______ _______ _______ _____ _____    ______ ____
ROOT
ATOM      1  O   UNL     1       2.941   9.040  17.234  0.00  0.00    +0.000 OA
ATOM      2  C   UNL     1       2.356   8.443  18.133  0.00  0.00    +0.000 C 
ATOM      3  N   UNL     1       2.630   7.175  18.603  0.00  0.00    +0.000 N 
ATOM      4  C   UNL     1       3.668   6.394  18.131  0.00  0.00    +0.000 A 
ATOM      5  N   UNL     1       3.753   5.094  18.315  0.00  0.00    +0.000 NA
ATOM      6  N   UNL     1       4.871   4.547  17.687  0.00  0.00    +0.000 NA
ATOM      7  C   UNL     1       5.594   5.489  17.112  0.00  0.00    +0.000 A 
ATOM      8  S   UNL     1       5.008   7.071  17.313  0.00  0.00    +0.000 S 
ATOM      9  H   UNL     1       1.952   6.683  19.162  0.00  0.00    +0.000 HD
ENDROOT
BRANCH   2  10
ATOM     10  C   UNL     1       1.180   9.129  18.730  0.00  0.00    +0.000 A 
ATOM     11  C   UNL     1       0.269   9.736  17.847  0.00  0.00    +0.000 A 
ATOM     12  C   UNL     1      -0.815  10.455  18.345  0.00  0.00    +0.000 A 
ATOM     13  C   UNL     1      -0.978  10.572  19.719  0.00  0.00    +0.000 A 
ATOM     14  F   UNL     1      -2.010  11.276  20.201  0.00  0.00    +0.000 F 
ATOM     15  C   UNL     1      -0.075   9.986  20.604  0.00  0.00    +0.000 A 
ATOM     16  C   UNL     1       1.012   9.257  20.112  0.00  0.00    +0.000 A 
ENDBRANCH   2  10
BRANCH   7  17
ATOM     17  S   UNL     1       7.080   5.294  16.171  0.00  0.00    +0.000 S 
ATOM     18  O   UNL     1       7.732   6.588  16.223  0.00  0.00    +0.000 OA
ATOM     19  O   UNL     1       7.718   4.112  16.723  0.00  0.00    +0.000 OA
BRANCH  17  20
ATOM     20  N   UNL     1       6.725   4.962  14.519  0.00  0.00    +0.000 NA
ATOM     21  C   UNL     1       7.862   5.200  13.596  0.00  0.00    +0.000 C 
ATOM     22  C   UNL     1       7.453   5.001  12.141  0.00  0.00    +0.000 C 
ATOM     23  C   UNL     1       6.801   3.642  11.935  0.00  0.00    +0.000 C 
ATOM     24  C   UNL     1       5.585   3.523  12.841  0.00  0.00    +0.000 C 
ATOM     25  C   UNL     1       5.971   3.701  14.304  0.00  0.00    +0.000 C 
ENDBRANCH  17  20
ENDBRANCH   7  17
TORSDOF 3
ENDMDL
MODEL 9
REMARK VINA RESULT:      -7.7      5.426      7.157
REMARK  Name = 
REMARK  3 active torsions:
REMARK  status: ('A' for Active; 'I' for Inactive)
REMARK    1  A    between atoms: C_2  and  C_18
REMARK    2  A    between atoms: C_7  and  S_8
REMARK    3  A    between atoms: S_8  and  N_11
REMARK                            x       y       z     vdW  Elec       q    Type
REMARK                         _______ _______ _______ _____ _____    ______ ____
ROOT
ATOM      1  O   UNL     1       2.027   9.022  17.358  0.00  0.00    +0.000 OA
ATOM      2  C   UNL     1       1.571   9.304  18.463  0.00  0.00    +0.000 C 
ATOM      3  N   UNL     1       1.566   8.506  19.588  0.00  0.00    +0.000 N 
ATOM      4  C   UNL     1       2.134   7.247  19.633  0.00  0.00    +0.000 A 
ATOM      5  N   UNL     1       1.866   6.351  20.559  0.00  0.00    +0.000 NA
ATOM      6  N   UNL     1       2.534   5.148  20.335  0.00  0.00    +0.000 NA
ATOM      7  C   UNL     1       3.314   5.235  19.275  0.00  0.00    +0.000 A 
ATOM      8  S   UNL     1       3.324   6.752  18.510  0.00  0.00    +0.000 S 
ATOM      9  H   UNL     1       0.959   8.723  20.362  0.00  0.00    +0.000 HD
ENDROOT
BRANCH   2  10
ATOM     10  C   UNL     1       0.884  10.617  18.581  0.00  0.00    +0.000 A 
ATOM     11  C   UNL     1       1.694  11.763  18.679  0.00  0.00    +0.000 A 
ATOM     12  C   UNL     1       1.114  13.016  18.861  0.00  0.00    +0.000 A 
ATOM     13  C   UNL     1      -0.268  13.117  18.956  0.00  0.00    +0.000 A 
ATOM     14  F   UNL     1      -0.828  14.318  19.148  0.00  0.00    +0.000 F 
ATOM     15  C   UNL     1      -1.080  11.987  18.873  0.00  0.00    +0.000 A 
ATOM     16  C   UNL     1      -0.506  10.727  18.682  0.00  0.00    +0.000 A 
ENDBRANCH   2  10
BRANCH   7  17
ATOM     17  S   UNL     1       4.334   3.971  18.572  0.00  0.00    +0.000 S 
ATOM     18  O   UNL     1       5.319   3.671  19.593  0.00  0.00    +0.000 OA
ATOM     19  O   UNL     1       3.404   2.958  18.108  0.00  0.00    +0.000 OA
BRANCH  17  20
ATOM     20  N   UNL     1       5.184   4.559  17.195  0.00  0.00    +0.000 NA
ATOM     21  C   UNL     1       6.627   4.808  17.435  0.00  0.00    +0.000 C 
ATOM     22  C   UNL     1       7.297   5.434  16.217  0.00  0.00    +0.000 C 
ATOM     23  C   UNL     1       7.042   4.609  14.965  0.00  0.00    +0.000 C 
ATOM     24  C   UNL     1       5.543   4.492  14.734  0.00  0.00    +0.000 C 
ATOM     25  C   UNL     1       4.852   3.852  15.932  0.00  0.00    +0.000 C 
ENDBRANCH  17  20
ENDBRANCH   7  17
TORSDOF 3
ENDMDL
