MODEL 1
REMARK VINA RESULT:      -7.5      0.000      0.000
REMARK  Name = 
REMARK  2 active torsions:
REMARK  status: ('A' for Active; 'I' for Inactive)
REMARK    1  A    between atoms: N_10  and  C_11
REMARK    2  A    between atoms: N_14  and  C_15
REMARK                            x       y       z     vdW  Elec       q    Type
REMARK                         _______ _______ _______ _____ _____    ______ ____
ROOT
ATOM      1  C   UNL     1       2.218   5.134  18.553  0.00  0.00    +0.000 C 
ATOM      2  C   UNL     1       1.860   5.289  20.033  0.00  0.00    +0.000 C 
ATOM      3  C   UNL     1       2.519   6.526  20.649  0.00  0.00    +0.000 C 
ATOM      4  N   UNL     1       2.133   7.788  20.004  0.00  0.00    +0.000 NA
ATOM      5  C   UNL     1       2.425   7.695  18.564  0.00  0.00    +0.000 C 
ATOM      6  C   UNL     1       1.864   6.462  17.849  0.00  0.00    +0.000 C 
ENDROOT
BRANCH   1  16
ATOM      7  O   UNL     1       3.348   2.682  19.630  0.00  0.00    +0.000 OA
ATOM      8  C   UNL     1       4.029   3.534  19.091  0.00  0.00    +0.000 C 
ATOM      9  N   UNL     1       5.417   3.614  19.242  0.00  0.00    +0.000 N 
ATOM     10  C   UNL     1       5.928   4.569  18.322  0.00  0.00    +0.000 C 
ATOM     11  C   UNL     1       7.183   5.336  18.707  0.00  0.00    +0.000 C 
ATOM     12  C   UNL     1       7.488   6.386  17.626  0.00  0.00    +0.000 C 
ATOM     13  C   UNL     1       6.271   7.235  17.245  0.00  0.00    +0.000 C 
ATOM     14  C   UNL     1       5.020   6.389  16.962  0.00  0.00    +0.000 C 
ATOM     15  C   UNL     1       4.743   5.530  18.193  0.00  0.00    +0.000 C 
ATOM     16  N   UNL     1       3.591   4.638  18.283  0.00  0.00    +0.000 N 
ATOM     17  H   UNL     1       5.901   2.793  19.579  0.00  0.00    +0.000 HD
ENDBRANCH   1  16
BRANCH   4  18
ATOM     18  C   UNL     1       0.814   8.322  20.441  0.00  0.00    +0.000 C 
ATOM     19  C   UNL     1       0.958   8.841  21.903  0.00  0.00    +0.000 C 
ATOM     20  C   UNL     1      -0.284   9.420  22.586  0.00  0.00    +0.000 C 
ATOM     21  C   UNL     1      -0.819  10.785  22.149  0.00  0.00    +0.000 C 
ATOM     22  C   UNL     1       0.222  11.814  21.710  0.00  0.00    +0.000 C 
ATOM     23  C   UNL     1       0.417  11.917  20.195  0.00  0.00    +0.000 C 
ATOM     24  C   UNL     1       1.076  10.723  19.504  0.00  0.00    +0.000 C 
ATOM     25  C   UNL     1       0.247   9.431  19.525  0.00  0.00    +0.000 C 
ENDBRANCH   4  18
TORSDOF 2
ENDMDL
MODEL 2
REMARK VINA RESULT:      -6.7      3.129      7.440
REMARK  Name = 
REMARK  2 active torsions:
REMARK  status: ('A' for Active; 'I' for Inactive)
REMARK    1  A    between atoms: N_10  and  C_11
REMARK    2  A    between atoms: N_14  and  C_15
REMARK                            x       y       z     vdW  Elec       q    Type
REMARK                         _______ _______ _______ _____ _____    ______ ____
ROOT
ATOM      1  C   UNL     1       0.236   9.812  19.846  0.00  0.00    +0.000 C 
ATOM      2  C   UNL     1       0.896   9.196  18.611  0.00  0.00    +0.000 C 
ATOM      3  C   UNL     1       2.201   8.479  18.964  0.00  0.00    +0.000 C 
ATOM      4  N   UNL     1       2.034   7.380  19.925  0.00  0.00    +0.000 NA
ATOM      5  C   UNL     1       1.374   7.902  21.133  0.00  0.00    +0.000 C 
ATOM      6  C   UNL     1       0.083   8.691  20.897  0.00  0.00    +0.000 C 
ENDROOT
BRANCH   1  16
ATOM      7  O   UNL     1      -0.280  11.016  22.441  0.00  0.00    +0.000 OA
ATOM      8  C   UNL     1       0.315  11.602  21.555  0.00  0.00    +0.000 C 
ATOM      9  N   UNL     1       0.492  12.989  21.537  0.00  0.00    +0.000 N 
ATOM     10  C   UNL     1       1.404  13.326  20.501  0.00  0.00    +0.000 C 
ATOM     11  C   UNL     1       1.252  14.678  19.823  0.00  0.00    +0.000 C 
ATOM     12  C   UNL     1       2.261  14.782  18.667  0.00  0.00    +0.000 C 
ATOM     13  C   UNL     1       2.250  13.562  17.741  0.00  0.00    +0.000 C 
ATOM     14  C   UNL     1       2.312  12.232  18.509  0.00  0.00    +0.000 C 
ATOM     15  C   UNL     1       1.146  12.201  19.493  0.00  0.00    +0.000 C 
ATOM     16  N   UNL     1       0.876  11.052  20.353  0.00  0.00    +0.000 N 
ATOM     17  H   UNL     1       0.367  13.489  22.407  0.00  0.00    +0.000 HD
ENDBRANCH   1  16
BRANCH   4  18
ATOM     18  C   UNL     1       1.545   6.109  19.324  0.00  0.00    +0.000 C 
ATOM     19  C   UNL     1       2.642   5.571  18.358  0.00  0.00    +0.000 C 
ATOM     20  C   UNL     1       2.357   4.274  17.595  0.00  0.00    +0.000 C 
ATOM     21  C   UNL     1       2.357   2.942  18.347  0.00  0.00    +0.000 C 
ATOM     22  C   UNL     1       3.350   2.813  19.501  0.00  0.00    +0.000 C 
ATOM     23  C   UNL     1       2.750   3.069  20.887  0.00  0.00    +0.000 C 
ATOM     24  C   UNL     1       2.332   4.505  21.200  0.00  0.00    +0.000 C 
ATOM     25  C   UNL     1       1.158   5.030  20.361  0.00  0.00    +0.000 C 
ENDBRANCH   4  18
TORSDOF 2
ENDMDL
MODEL 3
REMARK VINA RESULT:      -6.5      8.418      9.092
REMARK  Name = 
REMARK  2 active torsions:
REMARK  status: ('A' for Active; 'I' for Inactive)
REMARK    1  A    between atoms: N_10  and  C_11
REMARK    2  A    between atoms: N_14  and  C_15
REMARK                            x       y       z     vdW  Elec       q    Type
REMARK                         _______ _______ _______ _____ _____    ______ ____
ROOT
ATOM      1  C   UNL     1       7.765  15.239  19.865  0.00  0.00    +0.000 C 
ATOM      2  C   UNL     1       7.279  15.513  18.441  0.00  0.00    +0.000 C 
ATOM      3  C   UNL     1       5.975  14.774  18.135  0.00  0.00    +0.000 C 
ATOM      4  N   UNL     1       4.862  15.141  19.021  0.00  0.00    +0.000 NA
ATOM      5  C   UNL     1       5.276  14.927  20.417  0.00  0.00    +0.000 C 
ATOM      6  C   UNL     1       6.603  15.574  20.825  0.00  0.00    +0.000 C 
ENDROOT
BRANCH   1  16
ATOM      7  O   UNL     1       8.103  13.950  22.449  0.00  0.00    +0.000 OA
ATOM      8  C   UNL     1       8.658  13.551  21.441  0.00  0.00    +0.000 C 
ATOM      9  N   UNL     1       9.764  12.694  21.463  0.00  0.00    +0.000 N 
ATOM     10  C   UNL     1      10.030  12.250  20.140  0.00  0.00    +0.000 C 
ATOM     11  C   UNL     1      11.468  11.923  19.770  0.00  0.00    +0.000 C 
ATOM     12  C   UNL     1      11.540  11.576  18.273  0.00  0.00    +0.000 C 
ATOM     13  C   UNL     1      10.831  12.598  17.379  0.00  0.00    +0.000 C 
ATOM     14  C   UNL     1       9.418  12.944  17.875  0.00  0.00    +0.000 C 
ATOM     15  C   UNL     1       9.532  13.439  19.314  0.00  0.00    +0.000 C 
ATOM     16  N   UNL     1       8.377  13.902  20.078  0.00  0.00    +0.000 N 
ATOM     17  H   UNL     1       9.939  12.175  22.313  0.00  0.00    +0.000 HD
ENDBRANCH   1  16
BRANCH   4  18
ATOM     18  C   UNL     1       4.180  16.414  18.655  0.00  0.00    +0.000 C 
ATOM     19  C   UNL     1       3.302  16.152  17.395  0.00  0.00    +0.000 C 
ATOM     20  C   UNL     1       2.516  17.329  16.809  0.00  0.00    +0.000 C 
ATOM     21  C   UNL     1       1.294  17.866  17.557  0.00  0.00    +0.000 C 
ATOM     22  C   UNL     1       0.458  16.839  18.319  0.00  0.00    +0.000 C 
ATOM     23  C   UNL     1       0.764  16.754  19.817  0.00  0.00    +0.000 C 
ATOM     24  C   UNL     1       2.122  16.172  20.208  0.00  0.00    +0.000 C 
ATOM     25  C   UNL     1       3.330  17.023  19.793  0.00  0.00    +0.000 C 
ENDBRANCH   4  18
TORSDOF 2
ENDMDL
MODEL 4
REMARK VINA RESULT:      -6.5      4.536      7.455
REMARK  Name = 
REMARK  2 active torsions:
REMARK  status: ('A' for Active; 'I' for Inactive)
REMARK    1  A    between atoms: N_10  and  C_11
REMARK    2  A    between atoms: N_14  and  C_15
REMARK                            x       y       z     vdW  Elec       q    Type
REMARK                         _______ _______ _______ _____ _____    ______ ____
ROOT
ATOM      1  C   UNL     1      -0.224  11.841  21.726  0.00  0.00    +0.000 C 
ATOM      2  C   UNL     1      -0.893  12.662  20.622  0.00  0.00    +0.000 C 
ATOM      3  C   UNL     1      -2.392  12.368  20.526  0.00  0.00    +0.000 C 
ATOM      4  N   UNL     1      -3.135  12.664  21.759  0.00  0.00    +0.000 NA
ATOM      5  C   UNL     1      -2.521  11.923  22.873  0.00  0.00    +0.000 C 
ATOM      6  C   UNL     1      -1.007  12.095  23.032  0.00  0.00    +0.000 C 
ENDROOT
BRANCH   1  16
ATOM      7  O   UNL     1       0.312   9.754  23.677  0.00  0.00    +0.000 OA
ATOM      8  C   UNL     1       0.471   9.588  22.482  0.00  0.00    +0.000 C 
ATOM      9  N   UNL     1       1.244   8.552  21.948  0.00  0.00    +0.000 N 
ATOM     10  C   UNL     1       1.048   8.506  20.541  0.00  0.00    +0.000 C 
ATOM     11  C   UNL     1       2.194   8.013  19.673  0.00  0.00    +0.000 C 
ATOM     12  C   UNL     1       1.806   8.155  18.192  0.00  0.00    +0.000 C 
ATOM     13  C   UNL     1       1.244   9.536  17.842  0.00  0.00    +0.000 C 
ATOM     14  C   UNL     1       0.156  10.002  18.822  0.00  0.00    +0.000 C 
ATOM     15  C   UNL     1       0.746   9.976  20.229  0.00  0.00    +0.000 C 
ATOM     16  N   UNL     1      -0.005  10.408  21.404  0.00  0.00    +0.000 N 
ATOM     17  H   UNL     1       1.451   7.764  22.547  0.00  0.00    +0.000 HD
ENDBRANCH   1  16
BRANCH   4  18
ATOM     18  C   UNL     1      -3.470  14.103  21.943  0.00  0.00    +0.000 C 
ATOM     19  C   UNL     1      -4.473  14.518  20.826  0.00  0.00    +0.000 C 
ATOM     20  C   UNL     1      -4.949  15.973  20.791  0.00  0.00    +0.000 C 
ATOM     21  C   UNL     1      -5.923  16.473  21.860  0.00  0.00    +0.000 C 
ATOM     22  C   UNL     1      -6.951  15.463  22.368  0.00  0.00    +0.000 C 
ATOM     23  C   UNL     1      -6.575  14.781  23.687  0.00  0.00    +0.000 C 
ATOM     24  C   UNL     1      -5.401  13.802  23.643  0.00  0.00    +0.000 C 
ATOM     25  C   UNL     1      -4.040  14.443  23.339  0.00  0.00    +0.000 C 
ENDBRANCH   4  18
TORSDOF 2
ENDMDL
MODEL 5
REMARK VINA RESULT:      -6.4      2.708      4.754
REMARK  Name = 
REMARK  2 active torsions:
REMARK  status: ('A' for Active; 'I' for Inactive)
REMARK    1  A    between atoms: N_10  and  C_11
REMARK    2  A    between atoms: N_14  and  C_15
REMARK                            x       y       z     vdW  Elec       q    Type
REMARK                         _______ _______ _______ _____ _____    ______ ____
ROOT
ATOM      1  C   UNL     1       0.423   9.317  19.295  0.00  0.00    +0.000 C 
ATOM      2  C   UNL     1      -0.249   9.274  20.669  0.00  0.00    +0.000 C 
ATOM      3  C   UNL     1       0.441  10.206  21.667  0.00  0.00    +0.000 C 
ATOM      4  N   UNL     1       0.441  11.618  21.260  0.00  0.00    +0.000 NA
ATOM      5  C   UNL     1       1.051  11.727  19.925  0.00  0.00    +0.000 C 
ATOM      6  C   UNL     1       0.478  10.796  18.852  0.00  0.00    +0.000 C 
ENDROOT
BRANCH   1  16
ATOM      7  O   UNL     1       2.473   9.818  17.295  0.00  0.00    +0.000 OA
ATOM      8  C   UNL     1       2.483   8.832  18.009  0.00  0.00    +0.000 C 
ATOM      9  N   UNL     1       3.233   7.687  17.724  0.00  0.00    +0.000 N 
ATOM     10  C   UNL     1       3.199   6.820  18.849  0.00  0.00    +0.000 C 
ATOM     11  C   UNL     1       3.302   5.323  18.605  0.00  0.00    +0.000 C 
ATOM     12  C   UNL     1       3.129   4.578  19.939  0.00  0.00    +0.000 C 
ATOM     13  C   UNL     1       1.911   5.046  20.742  0.00  0.00    +0.000 C 
ATOM     14  C   UNL     1       1.831   6.576  20.863  0.00  0.00    +0.000 C 
ATOM     15  C   UNL     1       1.834   7.162  19.454  0.00  0.00    +0.000 C 
ATOM     16  N   UNL     1       1.717   8.595  19.200  0.00  0.00    +0.000 N 
ATOM     17  H   UNL     1       3.993   7.776  17.063  0.00  0.00    +0.000 HD
ENDBRANCH   1  16
BRANCH   4  18
ATOM     18  C   UNL     1      -0.836  12.334  21.534  0.00  0.00    +0.000 C 
ATOM     19  C   UNL     1      -1.271  12.015  22.995  0.00  0.00    +0.000 C 
ATOM     20  C   UNL     1      -2.580  12.624  23.504  0.00  0.00    +0.000 C 
ATOM     21  C   UNL     1      -2.648  14.122  23.806  0.00  0.00    +0.000 C 
ATOM     22  C   UNL     1      -1.375  14.764  24.355  0.00  0.00    +0.000 C 
ATOM     23  C   UNL     1      -0.520  15.480  23.306  0.00  0.00    +0.000 C 
ATOM     24  C   UNL     1       0.182  14.599  22.273  0.00  0.00    +0.000 C 
ATOM     25  C   UNL     1      -0.761  13.862  21.311  0.00  0.00    +0.000 C 
ENDBRANCH   4  18
TORSDOF 2
ENDMDL
MODEL 6
REMARK VINA RESULT:      -6.4      3.794      6.063
REMARK  Name = 
REMARK  2 active torsions:
REMARK  status: ('A' for Active; 'I' for Inactive)
REMARK    1  A    between atoms: N_10  and  C_11
REMARK    2  A    between atoms: N_14  and  C_15
REMARK                            x       y       z     vdW  Elec       q    Type
REMARK                         _______ _______ _______ _____ _____    ______ ____
ROOT
ATOM      1  C   UNL     1       5.222   5.362  16.566  0.00  0.00    +0.000 C 
ATOM      2  C   UNL     1       4.263   4.208  16.866  0.00  0.00    +0.000 C 
ATOM      3  C   UNL     1       4.877   3.198  17.838  0.00  0.00    +0.000 C 
ATOM      4  N   UNL     1       5.241   3.773  19.141  0.00  0.00    +0.000 NA
ATOM      5  C   UNL     1       6.145   4.914  18.921  0.00  0.00    +0.000 C 
ATOM      6  C   UNL     1       5.659   5.965  17.918  0.00  0.00    +0.000 C 
ENDROOT
BRANCH   1  16
ATOM      7  O   UNL     1       7.779   6.741  16.483  0.00  0.00    +0.000 OA
ATOM      8  C   UNL     1       7.420   5.976  15.607  0.00  0.00    +0.000 C 
ATOM      9  N   UNL     1       7.995   5.947  14.332  0.00  0.00    +0.000 N 
ATOM     10  C   UNL     1       7.508   4.810  13.632  0.00  0.00    +0.000 C 
ATOM     11  C   UNL     1       7.394   4.895  12.118  0.00  0.00    +0.000 C 
ATOM     12  C   UNL     1       6.744   3.607  11.586  0.00  0.00    +0.000 C 
ATOM     13  C   UNL     1       5.466   3.218  12.336  0.00  0.00    +0.000 C 
ATOM     14  C   UNL     1       5.640   3.247  13.862  0.00  0.00    +0.000 C 
ATOM     15  C   UNL     1       6.120   4.641  14.256  0.00  0.00    +0.000 C 
ATOM     16  N   UNL     1       6.339   5.032  15.645  0.00  0.00    +0.000 N 
ATOM     17  H   UNL     1       8.904   6.374  14.217  0.00  0.00    +0.000 HD
ENDBRANCH   1  16
BRANCH   4  18
ATOM     18  C   UNL     1       4.098   3.926  20.084  0.00  0.00    +0.000 C 
ATOM     19  C   UNL     1       3.092   4.945  19.471  0.00  0.00    +0.000 C 
ATOM     20  C   UNL     1       1.837   5.289  20.277  0.00  0.00    +0.000 C 
ATOM     21  C   UNL     1       0.717   4.254  20.407  0.00  0.00    +0.000 C 
ATOM     22  C   UNL     1       0.488   3.345  19.200  0.00  0.00    +0.000 C 
ATOM     23  C   UNL     1       1.149   1.967  19.307  0.00  0.00    +0.000 C 
ATOM     24  C   UNL     1       2.676   1.931  19.243  0.00  0.00    +0.000 C 
ATOM     25  C   UNL     1       3.385   2.599  20.429  0.00  0.00    +0.000 C 
ENDBRANCH   4  18
TORSDOF 2
ENDMDL
MODEL 7
REMARK VINA RESULT:      -6.3      8.393     10.093
REMARK  Name = 
REMARK  2 active torsions:
REMARK  status: ('A' for Active; 'I' for Inactive)
REMARK    1  A    between atoms: N_10  and  C_11
REMARK    2  A    between atoms: N_14  and  C_15
REMARK                            x       y       z     vdW  Elec       q    Type
REMARK                         _______ _______ _______ _____ _____    ______ ____
ROOT
ATOM      1  C   UNL     1       9.324  16.422  18.619  0.00  0.00    +0.000 C 
ATOM      2  C   UNL     1       8.314  15.771  17.672  0.00  0.00    +0.000 C 
ATOM      3  C   UNL     1       7.600  14.588  18.331  0.00  0.00    +0.000 C 
ATOM      4  N   UNL     1       6.849  14.946  19.541  0.00  0.00    +0.000 NA
ATOM      5  C   UNL     1       7.762  15.607  20.488  0.00  0.00    +0.000 C 
ATOM      6  C   UNL     1       8.577  16.774  19.923  0.00  0.00    +0.000 C 
ENDROOT
BRANCH   1  16
ATOM      7  O   UNL     1      11.738  16.762  17.036  0.00  0.00    +0.000 OA
ATOM      8  C   UNL     1      11.576  15.818  17.786  0.00  0.00    +0.000 C 
ATOM      9  N   UNL     1      12.328  14.641  17.710  0.00  0.00    +0.000 N 
ATOM     10  C   UNL     1      12.047  13.838  18.848  0.00  0.00    +0.000 C 
ATOM     11  C   UNL     1      12.144  12.328  18.702  0.00  0.00    +0.000 C 
ATOM     12  C   UNL     1      11.690  11.662  20.012  0.00  0.00    +0.000 C 
ATOM     13  C   UNL     1      10.357  12.202  20.538  0.00  0.00    +0.000 C 
ATOM     14  C   UNL     1      10.306  13.738  20.565  0.00  0.00    +0.000 C 
ATOM     15  C   UNL     1      10.603  14.245  19.157  0.00  0.00    +0.000 C 
ATOM     16  N   UNL     1      10.586  15.664  18.815  0.00  0.00    +0.000 N 
ATOM     17  H   UNL     1      13.204  14.675  17.206  0.00  0.00    +0.000 HD
ENDBRANCH   1  16
BRANCH   4  18
ATOM     18  C   UNL     1       5.515  15.553  19.278  0.00  0.00    +0.000 C 
ATOM     19  C   UNL     1       4.808  14.716  18.170  0.00  0.00    +0.000 C 
ATOM     20  C   UNL     1       3.419  15.164  17.707  0.00  0.00    +0.000 C 
ATOM     21  C   UNL     1       2.216  14.967  18.631  0.00  0.00    +0.000 C 
ATOM     22  C   UNL     1       2.236  13.724  19.519  0.00  0.00    +0.000 C 
ATOM     23  C   UNL     1       2.715  13.972  20.952  0.00  0.00    +0.000 C 
ATOM     24  C   UNL     1       4.193  14.318  21.132  0.00  0.00    +0.000 C 
ATOM     25  C   UNL     1       4.616  15.666  20.531  0.00  0.00    +0.000 C 
ENDBRANCH   4  18
TORSDOF 2
ENDMDL
MODEL 8
REMARK VINA RESULT:      -6.2      8.123      9.911
REMARK  Name = 
REMARK  2 active torsions:
REMARK  status: ('A' for Active; 'I' for Inactive)
REMARK    1  A    between atoms: N_10  and  C_11
REMARK    2  A    between atoms: N_14  and  C_15
REMARK                            x       y       z     vdW  Elec       q    Type
REMARK                         _______ _______ _______ _____ _____    ______ ____
ROOT
ATOM      1  C   UNL     1       8.951  16.376  19.390  0.00  0.00    +0.000 C 
ATOM      2  C   UNL     1       8.012  16.416  18.183  0.00  0.00    +0.000 C 
ATOM      3  C   UNL     1       7.090  15.195  18.142  0.00  0.00    +0.000 C 
ATOM      4  N   UNL     1       6.227  15.062  19.323  0.00  0.00    +0.000 NA
ATOM      5  C   UNL     1       7.071  15.047  20.529  0.00  0.00    +0.000 C 
ATOM      6  C   UNL     1       8.079  16.194  20.651  0.00  0.00    +0.000 C 
ENDROOT
BRANCH   1  16
ATOM      7  O   UNL     1      11.719  17.122  18.909  0.00  0.00    +0.000 OA
ATOM      8  C   UNL     1      11.325  15.974  18.812  0.00  0.00    +0.000 C 
ATOM      9  N   UNL     1      12.030  14.977  18.131  0.00  0.00    +0.000 N 
ATOM     10  C   UNL     1      11.418  13.720  18.388  0.00  0.00    +0.000 C 
ATOM     11  C   UNL     1      11.502  12.648  17.314  0.00  0.00    +0.000 C 
ATOM     12  C   UNL     1      10.682  11.424  17.755  0.00  0.00    +0.000 C 
ATOM     13  C   UNL     1       9.273  11.780  18.239  0.00  0.00    +0.000 C 
ATOM     14  C   UNL     1       9.267  12.935  19.252  0.00  0.00    +0.000 C 
ATOM     15  C   UNL     1       9.959  14.133  18.607  0.00  0.00    +0.000 C 
ATOM     16  N   UNL     1      10.084  15.423  19.279  0.00  0.00    +0.000 N 
ATOM     17  H   UNL     1      13.012  15.136  17.950  0.00  0.00    +0.000 HD
ENDBRANCH   1  16
BRANCH   4  18
ATOM     18  C   UNL     1       5.015  15.927  19.298  0.00  0.00    +0.000 C 
ATOM     19  C   UNL     1       4.267  15.680  17.954  0.00  0.00    +0.000 C 
ATOM     20  C   UNL     1       2.991  16.483  17.684  0.00  0.00    +0.000 C 
ATOM     21  C   UNL     1       1.715  16.155  18.461  0.00  0.00    +0.000 C 
ATOM     22  C   UNL     1       1.496  14.686  18.821  0.00  0.00    +0.000 C 
ATOM     23  C   UNL     1       1.913  14.310  20.246  0.00  0.00    +0.000 C 
ATOM     24  C   UNL     1       3.411  14.325  20.550  0.00  0.00    +0.000 C 
ATOM     25  C   UNL     1       4.064  15.713  20.497  0.00  0.00    +0.000 C 
ENDBRANCH   4  18
TORSDOF 2
ENDMDL
MODEL 9
REMARK VINA RESULT:      -6.2      9.304     10.712
REMARK  Name = 
REMARK  2 active torsions:
REMARK  status: ('A' for Active; 'I' for Inactive)
REMARK    1  A    between atoms: N_10  and  C_11
REMARK    2  A    between atoms: N_14  and  C_15
REMARK                            x       y       z     vdW  Elec       q    Type
REMARK                         _______ _______ _______ _____ _____    ______ ____
ROOT
ATOM      1  C   UNL     1      10.527  13.833  20.695  0.00  0.00    +0.000 C 
ATOM      2  C   UNL     1      10.196  14.706  21.907  0.00  0.00    +0.000 C 
ATOM      3  C   UNL     1       8.704  14.663  22.245  0.00  0.00    +0.000 C 
ATOM      4  N   UNL     1       8.206  13.319  22.566  0.00  0.00    +0.000 NA
ATOM      5  C   UNL     1       8.520  12.416  21.447  0.00  0.00    +0.000 C 
ATOM      6  C   UNL     1       9.979  12.418  20.980  0.00  0.00    +0.000 C 
ENDROOT
BRANCH   1  16
ATOM      7  O   UNL     1      10.728  12.442  18.151  0.00  0.00    +0.000 OA
ATOM      8  C   UNL     1      10.523  13.639  18.227  0.00  0.00    +0.000 C 
ATOM      9  N   UNL     1      10.717  14.520  17.158  0.00  0.00    +0.000 N 
ATOM     10  C   UNL     1      10.184  15.791  17.503  0.00  0.00    +0.000 C 
ATOM     11  C   UNL     1      10.829  17.027  16.898  0.00  0.00    +0.000 C 
ATOM     12  C   UNL     1      10.173  18.285  17.493  0.00  0.00    +0.000 C 
ATOM     13  C   UNL     1      10.081  18.255  19.022  0.00  0.00    +0.000 C 
ATOM     14  C   UNL     1       9.506  16.934  19.558  0.00  0.00    +0.000 C 
ATOM     15  C   UNL     1      10.367  15.793  19.024  0.00  0.00    +0.000 C 
ATOM     16  N   UNL     1      10.129  14.398  19.381  0.00  0.00    +0.000 N 
ATOM     17  H   UNL     1      10.764  14.126  16.228  0.00  0.00    +0.000 HD
ENDBRANCH   1  16
BRANCH   4  18
ATOM     18  C   UNL     1       8.493  12.874  23.958  0.00  0.00    +0.000 C 
ATOM     19  C   UNL     1       8.016  13.989  24.935  0.00  0.00    +0.000 C 
ATOM     20  C   UNL     1       8.230  13.770  26.435  0.00  0.00    +0.000 C 
ATOM     21  C   UNL     1       7.371  12.744  27.178  0.00  0.00    +0.000 C 
ATOM     22  C   UNL     1       5.930  12.588  26.696  0.00  0.00    +0.000 C 
ATOM     23  C   UNL     1       5.701  11.410  25.745  0.00  0.00    +0.000 C 
ATOM     24  C   UNL     1       6.320  11.520  24.352  0.00  0.00    +0.000 C 
ATOM     25  C   UNL     1       7.855  11.516  24.329  0.00  0.00    +0.000 C 
ENDBRANCH   4  18
TORSDOF 2
ENDMDL
