MODEL 1
REMARK VINA RESULT:      -7.6      0.000      0.000
REMARK  Name = 
REMARK  6 active torsions:
REMARK  status: ('A' for Active; 'I' for Inactive)
REMARK    1  A    between atoms: O_1  and  C_2
REMARK    2  A    between atoms: C_2  and  C_3
REMARK    3  A    between atoms: C_3  and  N_4
REMARK    4  A    between atoms: N_4  and  C_5
REMARK    5  A    between atoms: C_12  and  N_13
REMARK    6  A    between atoms: N_13  and  C_14
REMARK                            x       y       z     vdW  Elec       q    Type
REMARK                         _______ _______ _______ _____ _____    ______ ____
ROOT
ATOM      1  C   UNL     1       3.841   4.016  17.681  0.00  0.00    +0.000 A 
ATOM      2  N   UNL     1       3.926   2.709  17.388  0.00  0.00    +0.000 NA
ATOM      3  C   UNL     1       3.240   1.879  18.187  0.00  0.00    +0.000 A 
ATOM      4  N   UNL     1       2.461   2.226  19.222  0.00  0.00    +0.000 NA
ATOM      5  C   UNL     1       2.378   3.542  19.491  0.00  0.00    +0.000 A 
ATOM      6  C   UNL     1       1.605   4.061  20.525  0.00  0.00    +0.000 A 
ATOM      7  N   UNL     1       1.490   5.379  20.874  0.00  0.00    +0.000 NA
ATOM      8  C   UNL     1       2.153   6.267  20.120  0.00  0.00    +0.000 A 
ATOM      9  C   UNL     1       2.935   5.855  19.054  0.00  0.00    +0.000 A 
ATOM     10  C   UNL     1       3.067   4.490  18.746  0.00  0.00    +0.000 A 
ENDROOT
BRANCH   1  11
ATOM     11  N   UNL     1       4.578   4.953  16.937  0.00  0.00    +0.000 N 
ATOM     12  H   UNL     1       4.643   5.818  17.475  0.00  0.00    +0.000 HD
BRANCH  11  13
ATOM     13  C   UNL     1       5.896   4.548  16.466  0.00  0.00    +0.000 C 
BRANCH  13  14
ATOM     14  C   UNL     1       6.894   4.768  17.612  0.00  0.00    +0.000 C 
BRANCH  14  15
ATOM     15  O   UNL     1       8.124   4.100  17.317  0.00  0.00    +0.000 OA
ATOM     16  H   UNL     1       7.992   3.625  16.479  0.00  0.00    +0.000 HD
ENDBRANCH  14  15
ENDBRANCH  13  14
ENDBRANCH  11  13
ENDBRANCH   1  11
BRANCH   8  17
ATOM     17  N   UNL     1       2.141   7.627  20.390  0.00  0.00    +0.000 N 
ATOM     18  H   UNL     1       2.866   8.116  19.875  0.00  0.00    +0.000 HD
BRANCH  17  19
ATOM     19  C   UNL     1       0.879   8.348  20.499  0.00  0.00    +0.000 C 
ATOM     20  C   UNL     1       0.599   8.570  22.009  0.00  0.00    +0.000 C 
ATOM     21  C   UNL     1      -0.087   9.893  22.025  0.00  0.00    +0.000 A 
ATOM     22  C   UNL     1      -0.760  10.473  23.087  0.00  0.00    +0.000 A 
ATOM     23  C   UNL     1      -1.317  11.737  22.904  0.00  0.00    +0.000 A 
ATOM     24  C   UNL     1      -1.188  12.400  21.674  0.00  0.00    +0.000 A 
ATOM     25  C   UNL     1      -0.488  11.812  20.615  0.00  0.00    +0.000 A 
ATOM     26  C   UNL     1       0.060  10.553  20.803  0.00  0.00    +0.000 A 
ATOM     27  C   UNL     1       0.885   9.746  19.842  0.00  0.00    +0.000 C 
ENDBRANCH  17  19
ENDBRANCH   8  17
TORSDOF 6
ENDMDL
MODEL 2
REMARK VINA RESULT:      -7.5      2.302      3.752
REMARK  Name = 
REMARK  6 active torsions:
REMARK  status: ('A' for Active; 'I' for Inactive)
REMARK    1  A    between atoms: O_1  and  C_2
REMARK    2  A    between atoms: C_2  and  C_3
REMARK    3  A    between atoms: C_3  and  N_4
REMARK    4  A    between atoms: N_4  and  C_5
REMARK    5  A    between atoms: C_12  and  N_13
REMARK    6  A    between atoms: N_13  and  C_14
REMARK                            x       y       z     vdW  Elec       q    Type
REMARK                         _______ _______ _______ _____ _____    ______ ____
ROOT
ATOM      1  C   UNL     1       6.412   6.239  16.632  0.00  0.00    +0.000 A 
ATOM      2  N   UNL     1       7.322   5.729  15.789  0.00  0.00    +0.000 NA
ATOM      3  C   UNL     1       7.074   4.494  15.330  0.00  0.00    +0.000 A 
ATOM      4  N   UNL     1       6.000   3.738  15.604  0.00  0.00    +0.000 NA
ATOM      5  C   UNL     1       5.093   4.275  16.441  0.00  0.00    +0.000 A 
ATOM      6  C   UNL     1       3.923   3.621  16.816  0.00  0.00    +0.000 A 
ATOM      7  N   UNL     1       2.968   4.089  17.677  0.00  0.00    +0.000 NA
ATOM      8  C   UNL     1       3.154   5.318  18.180  0.00  0.00    +0.000 A 
ATOM      9  C   UNL     1       4.276   6.060  17.853  0.00  0.00    +0.000 A 
ATOM     10  C   UNL     1       5.260   5.535  16.998  0.00  0.00    +0.000 A 
ENDROOT
BRANCH   1  11
ATOM     11  N   UNL     1       6.623   7.502  17.213  0.00  0.00    +0.000 N 
ATOM     12  H   UNL     1       5.845   7.705  17.843  0.00  0.00    +0.000 HD
BRANCH  11  13
ATOM     13  C   UNL     1       7.894   7.725  17.889  0.00  0.00    +0.000 C 
BRANCH  13  14
ATOM     14  C   UNL     1       8.165   9.237  17.896  0.00  0.00    +0.000 C 
BRANCH  14  15
ATOM     15  O   UNL     1       8.977   9.577  19.023  0.00  0.00    +0.000 OA
ATOM     16  H   UNL     1       8.739   8.962  19.738  0.00  0.00    +0.000 HD
ENDBRANCH  14  15
ENDBRANCH  13  14
ENDBRANCH  11  13
ENDBRANCH   1  11
BRANCH   8  17
ATOM     17  N   UNL     1       2.274   5.890  19.086  0.00  0.00    +0.000 N 
ATOM     18  H   UNL     1       2.067   5.259  19.854  0.00  0.00    +0.000 HD
BRANCH  17  19
ATOM     19  C   UNL     1       2.412   7.289  19.468  0.00  0.00    +0.000 C 
ATOM     20  C   UNL     1       1.856   8.148  18.302  0.00  0.00    +0.000 C 
ATOM     21  C   UNL     1       1.258   9.315  19.009  0.00  0.00    +0.000 A 
ATOM     22  C   UNL     1       0.821  10.501  18.444  0.00  0.00    +0.000 A 
ATOM     23  C   UNL     1       0.267  11.467  19.282  0.00  0.00    +0.000 A 
ATOM     24  C   UNL     1       0.150  11.231  20.660  0.00  0.00    +0.000 A 
ATOM     25  C   UNL     1       0.577  10.020  21.216  0.00  0.00    +0.000 A 
ATOM     26  C   UNL     1       1.131   9.066  20.377  0.00  0.00    +0.000 A 
ATOM     27  C   UNL     1       1.613   7.688  20.729  0.00  0.00    +0.000 C 
ENDBRANCH  17  19
ENDBRANCH   8  17
TORSDOF 6
ENDMDL
MODEL 3
REMARK VINA RESULT:      -7.5      1.934      3.578
REMARK  Name = 
REMARK  6 active torsions:
REMARK  status: ('A' for Active; 'I' for Inactive)
REMARK    1  A    between atoms: O_1  and  C_2
REMARK    2  A    between atoms: C_2  and  C_3
REMARK    3  A    between atoms: C_3  and  N_4
REMARK    4  A    between atoms: N_4  and  C_5
REMARK    5  A    between atoms: C_12  and  N_13
REMARK    6  A    between atoms: N_13  and  C_14
REMARK                            x       y       z     vdW  Elec       q    Type
REMARK                         _______ _______ _______ _____ _____    ______ ____
ROOT
ATOM      1  C   UNL     1       6.528   6.082  16.645  0.00  0.00    +0.000 A 
ATOM      2  N   UNL     1       7.366   5.613  15.708  0.00  0.00    +0.000 NA
ATOM      3  C   UNL     1       6.983   4.491  15.082  0.00  0.00    +0.000 A 
ATOM      4  N   UNL     1       5.841   3.816  15.276  0.00  0.00    +0.000 NA
ATOM      5  C   UNL     1       5.008   4.310  16.211  0.00  0.00    +0.000 A 
ATOM      6  C   UNL     1       3.782   3.730  16.523  0.00  0.00    +0.000 A 
ATOM      7  N   UNL     1       2.896   4.158  17.473  0.00  0.00    +0.000 NA
ATOM      8  C   UNL     1       3.217   5.274  18.143  0.00  0.00    +0.000 A 
ATOM      9  C   UNL     1       4.405   5.940  17.893  0.00  0.00    +0.000 A 
ATOM     10  C   UNL     1       5.315   5.451  16.940  0.00  0.00    +0.000 A 
ENDROOT
BRANCH   1  11
ATOM     11  N   UNL     1       6.878   7.217  17.397  0.00  0.00    +0.000 N 
ATOM     12  H   UNL     1       6.037   7.584  17.845  0.00  0.00    +0.000 HD
BRANCH  11  13
ATOM     13  C   UNL     1       7.949   7.070  18.374  0.00  0.00    +0.000 C 
BRANCH  13  14
ATOM     14  C   UNL     1       7.885   5.641  18.932  0.00  0.00    +0.000 C 
BRANCH  14  15
ATOM     15  O   UNL     1       7.907   5.678  20.361  0.00  0.00    +0.000 OA
ATOM     16  H   UNL     1       8.150   6.585  20.615  0.00  0.00    +0.000 HD
ENDBRANCH  14  15
ENDBRANCH  13  14
ENDBRANCH  11  13
ENDBRANCH   1  11
BRANCH   8  17
ATOM     17  N   UNL     1       2.416   5.791  19.150  0.00  0.00    +0.000 N 
ATOM     18  H   UNL     1       2.347   5.153  19.937  0.00  0.00    +0.000 HD
BRANCH  17  19
ATOM     19  C   UNL     1       2.503   7.199  19.515  0.00  0.00    +0.000 C 
ATOM     20  C   UNL     1       1.973   8.024  18.313  0.00  0.00    +0.000 C 
ATOM     21  C   UNL     1       1.317   9.186  18.976  0.00  0.00    +0.000 A 
ATOM     22  C   UNL     1       0.873  10.352  18.373  0.00  0.00    +0.000 A 
ATOM     23  C   UNL     1       0.260  11.316  19.172  0.00  0.00    +0.000 A 
ATOM     24  C   UNL     1       0.094  11.098  20.548  0.00  0.00    +0.000 A 
ATOM     25  C   UNL     1       0.529   9.908  21.141  0.00  0.00    +0.000 A 
ATOM     26  C   UNL     1       1.140   8.956  20.341  0.00  0.00    +0.000 A 
ATOM     27  C   UNL     1       1.643   7.596  20.735  0.00  0.00    +0.000 C 
ENDBRANCH  17  19
ENDBRANCH   8  17
TORSDOF 6
ENDMDL
MODEL 4
REMARK VINA RESULT:      -7.5      3.579      8.296
REMARK  Name = 
REMARK  6 active torsions:
REMARK  status: ('A' for Active; 'I' for Inactive)
REMARK    1  A    between atoms: O_1  and  C_2
REMARK    2  A    between atoms: C_2  and  C_3
REMARK    3  A    between atoms: C_3  and  N_4
REMARK    4  A    between atoms: N_4  and  C_5
REMARK    5  A    between atoms: C_12  and  N_13
REMARK    6  A    between atoms: N_13  and  C_14
REMARK                            x       y       z     vdW  Elec       q    Type
REMARK                         _______ _______ _______ _____ _____    ______ ____
ROOT
ATOM      1  C   UNL     1      -0.813  11.043  19.323  0.00  0.00    +0.000 A 
ATOM      2  N   UNL     1      -1.634  12.072  19.582  0.00  0.00    +0.000 NA
ATOM      3  C   UNL     1      -1.834  12.356  20.877  0.00  0.00    +0.000 A 
ATOM      4  N   UNL     1      -1.275  11.738  21.928  0.00  0.00    +0.000 NA
ATOM      5  C   UNL     1      -0.443  10.718  21.646  0.00  0.00    +0.000 A 
ATOM      6  C   UNL     1       0.221   9.984  22.624  0.00  0.00    +0.000 A 
ATOM      7  N   UNL     1       1.059   8.922  22.418  0.00  0.00    +0.000 NA
ATOM      8  C   UNL     1       1.301   8.579  21.145  0.00  0.00    +0.000 A 
ATOM      9  C   UNL     1       0.706   9.259  20.096  0.00  0.00    +0.000 A 
ATOM     10  C   UNL     1      -0.184  10.319  20.342  0.00  0.00    +0.000 A 
ENDROOT
BRANCH   1  11
ATOM     11  N   UNL     1      -0.596  10.634  17.996  0.00  0.00    +0.000 N 
ATOM     12  H   UNL     1       0.321  10.189  17.937  0.00  0.00    +0.000 HD
BRANCH  11  13
ATOM     13  C   UNL     1      -1.610   9.787  17.381  0.00  0.00    +0.000 C 
BRANCH  13  14
ATOM     14  C   UNL     1      -2.490  10.675  16.490  0.00  0.00    +0.000 C 
BRANCH  14  15
ATOM     15  O   UNL     1      -1.930  11.989  16.414  0.00  0.00    +0.000 OA
ATOM     16  H   UNL     1      -2.546  12.527  15.887  0.00  0.00    +0.000 HD
ENDBRANCH  14  15
ENDBRANCH  13  14
ENDBRANCH  11  13
ENDBRANCH   1  11
BRANCH   8  17
ATOM     17  N   UNL     1       2.108   7.503  20.807  0.00  0.00    +0.000 N 
ATOM     18  H   UNL     1       2.713   7.234  21.577  0.00  0.00    +0.000 HD
BRANCH  17  19
ATOM     19  C   UNL     1       1.570   6.388  20.038  0.00  0.00    +0.000 C 
ATOM     20  C   UNL     1       2.498   6.177  18.813  0.00  0.00    +0.000 C 
ATOM     21  C   UNL     1       2.453   4.701  18.617  0.00  0.00    +0.000 A 
ATOM     22  C   UNL     1       2.920   3.987  17.526  0.00  0.00    +0.000 A 
ATOM     23  C   UNL     1       2.804   2.599  17.546  0.00  0.00    +0.000 A 
ATOM     24  C   UNL     1       2.235   1.949  18.652  0.00  0.00    +0.000 A 
ATOM     25  C   UNL     1       1.786   2.679  19.757  0.00  0.00    +0.000 A 
ATOM     26  C   UNL     1       1.901   4.060  19.728  0.00  0.00    +0.000 A 
ATOM     27  C   UNL     1       1.536   5.045  20.801  0.00  0.00    +0.000 C 
ENDBRANCH  17  19
ENDBRANCH   8  17
TORSDOF 6
ENDMDL
MODEL 5
REMARK VINA RESULT:      -7.3      1.981      3.367
REMARK  Name = 
REMARK  6 active torsions:
REMARK  status: ('A' for Active; 'I' for Inactive)
REMARK    1  A    between atoms: O_1  and  C_2
REMARK    2  A    between atoms: C_2  and  C_3
REMARK    3  A    between atoms: C_3  and  N_4
REMARK    4  A    between atoms: N_4  and  C_5
REMARK    5  A    between atoms: C_12  and  N_13
REMARK    6  A    between atoms: N_13  and  C_14
REMARK                            x       y       z     vdW  Elec       q    Type
REMARK                         _______ _______ _______ _____ _____    ______ ____
ROOT
ATOM      1  C   UNL     1       2.259   3.730  18.582  0.00  0.00    +0.000 A 
ATOM      2  N   UNL     1       2.706   2.498  18.293  0.00  0.00    +0.000 NA
ATOM      3  C   UNL     1       3.789   2.433  17.506  0.00  0.00    +0.000 A 
ATOM      4  N   UNL     1       4.481   3.469  17.009  0.00  0.00    +0.000 NA
ATOM      5  C   UNL     1       4.024   4.696  17.322  0.00  0.00    +0.000 A 
ATOM      6  C   UNL     1       4.635   5.870  16.892  0.00  0.00    +0.000 A 
ATOM      7  N   UNL     1       4.218   7.147  17.147  0.00  0.00    +0.000 NA
ATOM      8  C   UNL     1       3.136   7.288  17.926  0.00  0.00    +0.000 A 
ATOM      9  C   UNL     1       2.466   6.183  18.423  0.00  0.00    +0.000 A 
ATOM     10  C   UNL     1       2.895   4.882  18.108  0.00  0.00    +0.000 A 
ENDROOT
BRANCH   1  11
ATOM     11  N   UNL     1       1.091   3.892  19.348  0.00  0.00    +0.000 N 
ATOM     12  H   UNL     1       0.469   3.103  19.164  0.00  0.00    +0.000 HD
BRANCH  11  13
ATOM     13  C   UNL     1       1.252   4.087  20.783  0.00  0.00    +0.000 C 
BRANCH  13  14
ATOM     14  C   UNL     1       1.385   2.704  21.435  0.00  0.00    +0.000 C 
BRANCH  14  15
ATOM     15  O   UNL     1       2.667   2.583  22.056  0.00  0.00    +0.000 OA
ATOM     16  H   UNL     1       2.957   3.484  22.279  0.00  0.00    +0.000 HD
ENDBRANCH  14  15
ENDBRANCH  13  14
ENDBRANCH  11  13
ENDBRANCH   1  11
BRANCH   8  17
ATOM     17  N   UNL     1       2.598   8.528  18.232  0.00  0.00    +0.000 N 
ATOM     18  H   UNL     1       2.668   9.170  17.447  0.00  0.00    +0.000 HD
BRANCH  17  19
ATOM     19  C   UNL     1       1.359   8.630  18.992  0.00  0.00    +0.000 C 
ATOM     20  C   UNL     1       1.697   8.330  20.475  0.00  0.00    +0.000 C 
ATOM     21  C   UNL     1       0.753   9.215  21.214  0.00  0.00    +0.000 A 
ATOM     22  C   UNL     1       0.465   9.186  22.568  0.00  0.00    +0.000 A 
ATOM     23  C   UNL     1      -0.437  10.122  23.071  0.00  0.00    +0.000 A 
ATOM     24  C   UNL     1      -1.026  11.070  22.222  0.00  0.00    +0.000 A 
ATOM     25  C   UNL     1      -0.711  11.102  20.859  0.00  0.00    +0.000 A 
ATOM     26  C   UNL     1       0.183  10.166  20.365  0.00  0.00    +0.000 A 
ATOM     27  C   UNL     1       0.706  10.030  18.964  0.00  0.00    +0.000 C 
ENDBRANCH  17  19
ENDBRANCH   8  17
TORSDOF 6
ENDMDL
MODEL 6
REMARK VINA RESULT:      -7.2      2.181      3.558
REMARK  Name = 
REMARK  6 active torsions:
REMARK  status: ('A' for Active; 'I' for Inactive)
REMARK    1  A    between atoms: O_1  and  C_2
REMARK    2  A    between atoms: C_2  and  C_3
REMARK    3  A    between atoms: C_3  and  N_4
REMARK    4  A    between atoms: N_4  and  C_5
REMARK    5  A    between atoms: C_12  and  N_13
REMARK    6  A    between atoms: N_13  and  C_14
REMARK                            x       y       z     vdW  Elec       q    Type
REMARK                         _______ _______ _______ _____ _____    ______ ____
ROOT
ATOM      1  C   UNL     1       2.873   3.700  18.030  0.00  0.00    +0.000 A 
ATOM      2  N   UNL     1       3.781   2.761  17.724  0.00  0.00    +0.000 NA
ATOM      3  C   UNL     1       4.933   3.201  17.200  0.00  0.00    +0.000 A 
ATOM      4  N   UNL     1       5.277   4.479  16.982  0.00  0.00    +0.000 NA
ATOM      5  C   UNL     1       4.358   5.407  17.308  0.00  0.00    +0.000 A 
ATOM      6  C   UNL     1       4.566   6.774  17.150  0.00  0.00    +0.000 A 
ATOM      7  N   UNL     1       3.675   7.772  17.435  0.00  0.00    +0.000 NA
ATOM      8  C   UNL     1       2.498   7.404  17.959  0.00  0.00    +0.000 A 
ATOM      9  C   UNL     1       2.199   6.069  18.175  0.00  0.00    +0.000 A 
ATOM     10  C   UNL     1       3.120   5.064  17.832  0.00  0.00    +0.000 A 
ENDROOT
BRANCH   1  11
ATOM     11  N   UNL     1       1.611   3.325  18.524  0.00  0.00    +0.000 N 
ATOM     12  H   UNL     1       1.045   2.984  17.745  0.00  0.00    +0.000 HD
BRANCH  11  13
ATOM     13  C   UNL     1       1.579   2.377  19.629  0.00  0.00    +0.000 C 
BRANCH  13  14
ATOM     14  C   UNL     1       1.153   3.140  20.892  0.00  0.00    +0.000 C 
BRANCH  14  15
ATOM     15  O   UNL     1       1.620   2.451  22.054  0.00  0.00    +0.000 OA
ATOM     16  H   UNL     1       2.262   3.037  22.490  0.00  0.00    +0.000 HD
ENDBRANCH  14  15
ENDBRANCH  13  14
ENDBRANCH  11  13
ENDBRANCH   1  11
BRANCH   8  17
ATOM     17  N   UNL     1       1.501   8.319  18.261  0.00  0.00    +0.000 N 
ATOM     18  H   UNL     1       0.584   7.974  17.993  0.00  0.00    +0.000 HD
BRANCH  17  19
ATOM     19  C   UNL     1       1.530   9.057  19.517  0.00  0.00    +0.000 C 
ATOM     20  C   UNL     1       0.645  10.318  19.336  0.00  0.00    +0.000 C 
ATOM     21  C   UNL     1       0.055  10.503  20.692  0.00  0.00    +0.000 A 
ATOM     22  C   UNL     1      -0.637  11.607  21.159  0.00  0.00    +0.000 A 
ATOM     23  C   UNL     1      -1.133  11.573  22.461  0.00  0.00    +0.000 A 
ATOM     24  C   UNL     1      -0.939  10.440  23.267  0.00  0.00    +0.000 A 
ATOM     25  C   UNL     1      -0.256   9.322  22.775  0.00  0.00    +0.000 A 
ATOM     26  C   UNL     1       0.237   9.365  21.481  0.00  0.00    +0.000 A 
ATOM     27  C   UNL     1       0.955   8.285  20.725  0.00  0.00    +0.000 C 
ENDBRANCH  17  19
ENDBRANCH   8  17
TORSDOF 6
ENDMDL
MODEL 7
REMARK VINA RESULT:      -7.1      2.182      3.352
REMARK  Name = 
REMARK  6 active torsions:
REMARK  status: ('A' for Active; 'I' for Inactive)
REMARK    1  A    between atoms: O_1  and  C_2
REMARK    2  A    between atoms: C_2  and  C_3
REMARK    3  A    between atoms: C_3  and  N_4
REMARK    4  A    between atoms: N_4  and  C_5
REMARK    5  A    between atoms: C_12  and  N_13
REMARK    6  A    between atoms: N_13  and  C_14
REMARK                            x       y       z     vdW  Elec       q    Type
REMARK                         _______ _______ _______ _____ _____    ______ ____
ROOT
ATOM      1  C   UNL     1       6.933   5.811  17.089  0.00  0.00    +0.000 A 
ATOM      2  N   UNL     1       7.605   5.224  16.087  0.00  0.00    +0.000 NA
ATOM      3  C   UNL     1       6.983   4.208  15.473  0.00  0.00    +0.000 A 
ATOM      4  N   UNL     1       5.752   3.745  15.740  0.00  0.00    +0.000 NA
ATOM      5  C   UNL     1       5.089   4.356  16.740  0.00  0.00    +0.000 A 
ATOM      6  C   UNL     1       3.802   3.998  17.130  0.00  0.00    +0.000 A 
ATOM      7  N   UNL     1       3.076   4.553  18.148  0.00  0.00    +0.000 NA
ATOM      8  C   UNL     1       3.639   5.573  18.810  0.00  0.00    +0.000 A 
ATOM      9  C   UNL     1       4.909   6.020  18.485  0.00  0.00    +0.000 A 
ATOM     10  C   UNL     1       5.647   5.401  17.461  0.00  0.00    +0.000 A 
ENDROOT
BRANCH   1  11
ATOM     11  N   UNL     1       7.534   6.842  17.831  0.00  0.00    +0.000 N 
ATOM     12  H   UNL     1       8.513   6.599  17.992  0.00  0.00    +0.000 HD
BRANCH  11  13
ATOM     13  C   UNL     1       7.428   8.196  17.306  0.00  0.00    +0.000 C 
BRANCH  13  14
ATOM     14  C   UNL     1       8.360   9.097  18.129  0.00  0.00    +0.000 C 
BRANCH  14  15
ATOM     15  O   UNL     1       8.917   8.352  19.215  0.00  0.00    +0.000 OA
ATOM     16  H   UNL     1       8.409   8.590  20.009  0.00  0.00    +0.000 HD
ENDBRANCH  14  15
ENDBRANCH  13  14
ENDBRANCH  11  13
ENDBRANCH   1  11
BRANCH   8  17
ATOM     17  N   UNL     1       3.017   6.198  19.879  0.00  0.00    +0.000 N 
ATOM     18  H   UNL     1       3.694   6.577  20.536  0.00  0.00    +0.000 HD
BRANCH  17  19
ATOM     19  C   UNL     1       1.842   7.033  19.667  0.00  0.00    +0.000 C 
ATOM     20  C   UNL     1       1.509   7.720  21.017  0.00  0.00    +0.000 C 
ATOM     21  C   UNL     1       0.978   9.045  20.590  0.00  0.00    +0.000 A 
ATOM     22  C   UNL     1       0.321   9.976  21.377  0.00  0.00    +0.000 A 
ATOM     23  C   UNL     1      -0.078  11.174  20.787  0.00  0.00    +0.000 A 
ATOM     24  C   UNL     1       0.191  11.426  19.434  0.00  0.00    +0.000 A 
ATOM     25  C   UNL     1       0.874  10.486  18.655  0.00  0.00    +0.000 A 
ATOM     26  C   UNL     1       1.265   9.295  19.246  0.00  0.00    +0.000 A 
ATOM     27  C   UNL     1       2.042   8.165  18.634  0.00  0.00    +0.000 C 
ENDBRANCH  17  19
ENDBRANCH   8  17
TORSDOF 6
ENDMDL
MODEL 8
REMARK VINA RESULT:      -7.1      1.617      2.681
REMARK  Name = 
REMARK  6 active torsions:
REMARK  status: ('A' for Active; 'I' for Inactive)
REMARK    1  A    between atoms: O_1  and  C_2
REMARK    2  A    between atoms: C_2  and  C_3
REMARK    3  A    between atoms: C_3  and  N_4
REMARK    4  A    between atoms: N_4  and  C_5
REMARK    5  A    between atoms: C_12  and  N_13
REMARK    6  A    between atoms: N_13  and  C_14
REMARK                            x       y       z     vdW  Elec       q    Type
REMARK                         _______ _______ _______ _____ _____    ______ ____
ROOT
ATOM      1  C   UNL     1       5.803   4.989  18.257  0.00  0.00    +0.000 A 
ATOM      2  N   UNL     1       6.383   4.350  17.229  0.00  0.00    +0.000 NA
ATOM      3  C   UNL     1       5.557   3.711  16.389  0.00  0.00    +0.000 A 
ATOM      4  N   UNL     1       4.217   3.674  16.457  0.00  0.00    +0.000 NA
ATOM      5  C   UNL     1       3.655   4.333  17.488  0.00  0.00    +0.000 A 
ATOM      6  C   UNL     1       2.280   4.396  17.691  0.00  0.00    +0.000 A 
ATOM      7  N   UNL     1       1.637   5.023  18.724  0.00  0.00    +0.000 NA
ATOM      8  C   UNL     1       2.403   5.680  19.606  0.00  0.00    +0.000 A 
ATOM      9  C   UNL     1       3.782   5.695  19.482  0.00  0.00    +0.000 A 
ATOM     10  C   UNL     1       4.416   5.006  18.433  0.00  0.00    +0.000 A 
ENDROOT
BRANCH   1  11
ATOM     11  N   UNL     1       6.597   5.632  19.223  0.00  0.00    +0.000 N 
ATOM     12  H   UNL     1       6.725   4.998  20.013  0.00  0.00    +0.000 HD
BRANCH  11  13
ATOM     13  C   UNL     1       7.881   6.166  18.789  0.00  0.00    +0.000 C 
BRANCH  13  14
ATOM     14  C   UNL     1       7.607   7.387  17.899  0.00  0.00    +0.000 C 
BRANCH  14  15
ATOM     15  O   UNL     1       7.792   7.035  16.525  0.00  0.00    +0.000 OA
ATOM     16  H   UNL     1       8.417   6.290  16.507  0.00  0.00    +0.000 HD
ENDBRANCH  14  15
ENDBRANCH  13  14
ENDBRANCH  11  13
ENDBRANCH   1  11
BRANCH   8  17
ATOM     17  N   UNL     1       1.873   6.328  20.711  0.00  0.00    +0.000 N 
ATOM     18  H   UNL     1       2.152   5.877  21.578  0.00  0.00    +0.000 HD
BRANCH  17  19
ATOM     19  C   UNL     1       1.835   7.783  20.768  0.00  0.00    +0.000 C 
ATOM     20  C   UNL     1       1.751   8.303  19.309  0.00  0.00    +0.000 C 
ATOM     21  C   UNL     1       0.912   9.527  19.444  0.00  0.00    +0.000 A 
ATOM     22  C   UNL     1       0.705  10.509  18.489  0.00  0.00    +0.000 A 
ATOM     23  C   UNL     1      -0.140  11.571  18.807  0.00  0.00    +0.000 A 
ATOM     24  C   UNL     1      -0.768  11.630  20.060  0.00  0.00    +0.000 A 
ATOM     25  C   UNL     1      -0.567  10.621  21.009  0.00  0.00    +0.000 A 
ATOM     26  C   UNL     1       0.278   9.571  20.687  0.00  0.00    +0.000 A 
ATOM     27  C   UNL     1       0.611   8.361  21.513  0.00  0.00    +0.000 C 
ENDBRANCH  17  19
ENDBRANCH   8  17
TORSDOF 6
ENDMDL
MODEL 9
REMARK VINA RESULT:      -7.0      3.993      8.472
REMARK  Name = 
REMARK  6 active torsions:
REMARK  status: ('A' for Active; 'I' for Inactive)
REMARK    1  A    between atoms: O_1  and  C_2
REMARK    2  A    between atoms: C_2  and  C_3
REMARK    3  A    between atoms: C_3  and  N_4
REMARK    4  A    between atoms: N_4  and  C_5
REMARK    5  A    between atoms: C_12  and  N_13
REMARK    6  A    between atoms: N_13  and  C_14
REMARK                            x       y       z     vdW  Elec       q    Type
REMARK                         _______ _______ _______ _____ _____    ______ ____
ROOT
ATOM      1  C   UNL     1      -1.578  11.071  17.990  0.00  0.00    +0.000 A 
ATOM      2  N   UNL     1      -2.475  11.824  18.645  0.00  0.00    +0.000 NA
ATOM      3  C   UNL     1      -2.279  11.963  19.963  0.00  0.00    +0.000 A 
ATOM      4  N   UNL     1      -1.265  11.455  20.680  0.00  0.00    +0.000 NA
ATOM      5  C   UNL     1      -0.368  10.715  20.002  0.00  0.00    +0.000 A 
ATOM      6  C   UNL     1       0.743  10.127  20.600  0.00  0.00    +0.000 A 
ATOM      7  N   UNL     1       1.681   9.345  19.984  0.00  0.00    +0.000 NA
ATOM      8  C   UNL     1       1.544   9.158  18.664  0.00  0.00    +0.000 A 
ATOM      9  C   UNL     1       0.484   9.717  17.970  0.00  0.00    +0.000 A 
ATOM     10  C   UNL     1      -0.487  10.482  18.639  0.00  0.00    +0.000 A 
ENDROOT
BRANCH   1  11
ATOM     11  N   UNL     1      -1.741  10.818  16.617  0.00  0.00    +0.000 N 
ATOM     12  H   UNL     1      -0.836  10.556  16.224  0.00  0.00    +0.000 HD
BRANCH  11  13
ATOM     13  C   UNL     1      -2.761   9.852  16.230  0.00  0.00    +0.000 C 
BRANCH  13  14
ATOM     14  C   UNL     1      -3.317  10.275  14.863  0.00  0.00    +0.000 C 
BRANCH  14  15
ATOM     15  O   UNL     1      -2.473   9.777  13.822  0.00  0.00    +0.000 OA
ATOM     16  H   UNL     1      -2.988   9.109  13.338  0.00  0.00    +0.000 HD
ENDBRANCH  14  15
ENDBRANCH  13  14
ENDBRANCH  11  13
ENDBRANCH   1  11
BRANCH   8  17
ATOM     17  N   UNL     1       2.412   8.362  17.933  0.00  0.00    +0.000 N 
ATOM     18  H   UNL     1       3.153   8.910  17.506  0.00  0.00    +0.000 HD
BRANCH  17  19
ATOM     19  C   UNL     1       2.834   7.064  18.445  0.00  0.00    +0.000 C 
ATOM     20  C   UNL     1       1.631   6.095  18.305  0.00  0.00    +0.000 C 
ATOM     21  C   UNL     1       2.291   4.791  18.014  0.00  0.00    +0.000 A 
ATOM     22  C   UNL     1       1.703   3.537  18.019  0.00  0.00    +0.000 A 
ATOM     23  C   UNL     1       2.495   2.436  17.694  0.00  0.00    +0.000 A 
ATOM     24  C   UNL     1       3.847   2.606  17.363  0.00  0.00    +0.000 A 
ATOM     25  C   UNL     1       4.424   3.881  17.341  0.00  0.00    +0.000 A 
ATOM     26  C   UNL     1       3.632   4.970  17.668  0.00  0.00    +0.000 A 
ATOM     27  C   UNL     1       4.008   6.424  17.671  0.00  0.00    +0.000 C 
ENDBRANCH  17  19
ENDBRANCH   8  17
TORSDOF 6
ENDMDL
