MODEL 1
REMARK VINA RESULT:      -7.4      0.000      0.000
REMARK  Name = 
REMARK  3 active torsions:
REMARK  status: ('A' for Active; 'I' for Inactive)
REMARK    1  A    between atoms: N_2  and  C_4
REMARK    2  A    between atoms: C_7  and  N_8
REMARK    3  A    between atoms: C_15  and  N_16
REMARK                            x       y       z     vdW  Elec       q    Type
REMARK                         _______ _______ _______ _____ _____    ______ ____
ROOT
ATOM      1  C   UNL     1       3.421   4.017  19.319  0.00  0.00    +0.000 A 
ATOM      2  C   UNL     1       2.320   4.297  20.137  0.00  0.00    +0.000 A 
ATOM      3  C   UNL     1       1.868   5.599  20.241  0.00  0.00    +0.000 A 
ATOM      4  C   UNL     1       2.483   6.640  19.534  0.00  0.00    +0.000 A 
ATOM      5  C   UNL     1       3.568   6.305  18.702  0.00  0.00    +0.000 A 
ATOM      6  C   UNL     1       4.085   5.009  18.566  0.00  0.00    +0.000 A 
ENDROOT
BRANCH   4   7
ATOM      7  N   UNL     1       2.044   7.940  19.660  0.00  0.00    +0.000 N 
ATOM      8  C   UNL     1       1.496   8.442  20.918  0.00  0.00    +0.000 C 
ATOM      9  C   UNL     1       0.077   8.952  20.699  0.00  0.00    +0.000 C 
ATOM     10  C   UNL     1       0.019   9.958  19.550  0.00  0.00    +0.000 C 
ATOM     11  C   UNL     1       0.651   9.390  18.279  0.00  0.00    +0.000 C 
ATOM     12  C   UNL     1       2.067   8.870  18.533  0.00  0.00    +0.000 C 
ENDBRANCH   4   7
BRANCH   6  13
ATOM     13  N   UNL     1       5.162   4.787  17.729  0.00  0.00    +0.000 N 
ATOM     14  C   UNL     1       6.563   5.012  18.131  0.00  0.00    +0.000 C 
ATOM     15  C   UNL     1       7.265   5.983  17.164  0.00  0.00    +0.000 C 
ATOM     16  O   UNL     1       7.098   5.589  15.791  0.00  0.00    +0.000 OA
ATOM     17  C   UNL     1       5.704   5.535  15.455  0.00  0.00    +0.000 C 
ATOM     18  C   UNL     1       4.973   4.487  16.301  0.00  0.00    +0.000 C 
ENDBRANCH   6  13
BRANCH   1  20
ATOM     19  O   UNL     1       3.363   1.823  18.628  0.00  0.00    +0.000 OA
ATOM     20  N   UNL     1       3.926   2.660  19.367  0.00  0.00    +0.000 N 
ATOM     21  O   UNL     1       4.864   2.414  20.125  0.00  0.00    +0.000 OA
ENDBRANCH   1  20
TORSDOF 3
ENDMDL
MODEL 2
REMARK VINA RESULT:      -7.4      0.762      1.493
REMARK  Name = 
REMARK  3 active torsions:
REMARK  status: ('A' for Active; 'I' for Inactive)
REMARK    1  A    between atoms: N_2  and  C_4
REMARK    2  A    between atoms: C_7  and  N_8
REMARK    3  A    between atoms: C_15  and  N_16
REMARK                            x       y       z     vdW  Elec       q    Type
REMARK                         _______ _______ _______ _____ _____    ______ ____
ROOT
ATOM      1  C   UNL     1       3.548   4.505  19.076  0.00  0.00    +0.000 A 
ATOM      2  C   UNL     1       2.440   4.564  19.929  0.00  0.00    +0.000 A 
ATOM      3  C   UNL     1       1.865   5.789  20.208  0.00  0.00    +0.000 A 
ATOM      4  C   UNL     1       2.362   6.971  19.643  0.00  0.00    +0.000 A 
ATOM      5  C   UNL     1       3.459   6.858  18.768  0.00  0.00    +0.000 A 
ATOM      6  C   UNL     1       4.097   5.649  18.458  0.00  0.00    +0.000 A 
ENDROOT
BRANCH   4   7
ATOM      7  N   UNL     1       1.800   8.192  19.943  0.00  0.00    +0.000 N 
ATOM      8  C   UNL     1       1.304   8.495  21.283  0.00  0.00    +0.000 C 
ATOM      9  C   UNL     1      -0.174   8.861  21.220  0.00  0.00    +0.000 C 
ATOM     10  C   UNL     1      -0.428   9.968  20.198  0.00  0.00    +0.000 C 
ATOM     11  C   UNL     1       0.157   9.611  18.831  0.00  0.00    +0.000 C 
ATOM     12  C   UNL     1       1.635   9.231  18.928  0.00  0.00    +0.000 C 
ENDBRANCH   4   7
BRANCH   6  13
ATOM     13  N   UNL     1       5.175   5.648  17.593  0.00  0.00    +0.000 N 
ATOM     14  C   UNL     1       5.092   5.202  16.190  0.00  0.00    +0.000 C 
ATOM     15  C   UNL     1       6.112   4.086  15.902  0.00  0.00    +0.000 C 
ATOM     16  O   UNL     1       7.437   4.445  16.332  0.00  0.00    +0.000 OA
ATOM     17  C   UNL     1       7.445   4.724  17.740  0.00  0.00    +0.000 C 
ATOM     18  C   UNL     1       6.541   5.916  18.072  0.00  0.00    +0.000 C 
ENDBRANCH   6  13
BRANCH   1  20
ATOM     19  O   UNL     1       5.108   2.951  19.743  0.00  0.00    +0.000 OA
ATOM     20  N   UNL     1       4.185   3.211  18.940  0.00  0.00    +0.000 N 
ATOM     21  O   UNL     1       3.789   2.456  18.053  0.00  0.00    +0.000 OA
ENDBRANCH   1  20
TORSDOF 3
ENDMDL
MODEL 3
REMARK VINA RESULT:      -6.7      3.269      6.756
REMARK  Name = 
REMARK  3 active torsions:
REMARK  status: ('A' for Active; 'I' for Inactive)
REMARK    1  A    between atoms: N_2  and  C_4
REMARK    2  A    between atoms: C_7  and  N_8
REMARK    3  A    between atoms: C_15  and  N_16
REMARK                            x       y       z     vdW  Elec       q    Type
REMARK                         _______ _______ _______ _____ _____    ______ ____
ROOT
ATOM      1  C   UNL     1       3.852   5.741  17.601  0.00  0.00    +0.000 A 
ATOM      2  C   UNL     1       4.605   6.637  16.834  0.00  0.00    +0.000 A 
ATOM      3  C   UNL     1       5.406   6.150  15.817  0.00  0.00    +0.000 A 
ATOM      4  C   UNL     1       5.467   4.780  15.534  0.00  0.00    +0.000 A 
ATOM      5  C   UNL     1       4.670   3.921  16.315  0.00  0.00    +0.000 A 
ATOM      6  C   UNL     1       3.851   4.348  17.369  0.00  0.00    +0.000 A 
ENDROOT
BRANCH   4   7
ATOM      7  N   UNL     1       6.286   4.297  14.536  0.00  0.00    +0.000 N 
ATOM      8  C   UNL     1       7.572   4.922  14.236  0.00  0.00    +0.000 C 
ATOM      9  C   UNL     1       7.602   5.374  12.781  0.00  0.00    +0.000 C 
ATOM     10  C   UNL     1       7.229   4.232  11.836  0.00  0.00    +0.000 C 
ATOM     11  C   UNL     1       5.899   3.591  12.234  0.00  0.00    +0.000 C 
ATOM     12  C   UNL     1       5.892   3.163  13.703  0.00  0.00    +0.000 C 
ENDBRANCH   4   7
BRANCH   6  13
ATOM     13  N   UNL     1       3.115   3.422  18.081  0.00  0.00    +0.000 N 
ATOM     14  C   UNL     1       1.640   3.384  18.085  0.00  0.00    +0.000 C 
ATOM     15  C   UNL     1       1.089   3.468  19.519  0.00  0.00    +0.000 C 
ATOM     16  O   UNL     1       1.708   2.507  20.391  0.00  0.00    +0.000 OA
ATOM     17  C   UNL     1       3.128   2.714  20.432  0.00  0.00    +0.000 C 
ATOM     18  C   UNL     1       3.755   2.515  19.048  0.00  0.00    +0.000 C 
ENDBRANCH   6  13
BRANCH   1  20
ATOM     19  O   UNL     1       3.579   6.004  19.871  0.00  0.00    +0.000 OA
ATOM     20  N   UNL     1       3.147   6.303  18.736  0.00  0.00    +0.000 N 
ATOM     21  O   UNL     1       2.178   7.029  18.519  0.00  0.00    +0.000 OA
ENDBRANCH   1  20
TORSDOF 3
ENDMDL
MODEL 4
REMARK VINA RESULT:      -6.7      1.273      2.024
REMARK  Name = 
REMARK  3 active torsions:
REMARK  status: ('A' for Active; 'I' for Inactive)
REMARK    1  A    between atoms: N_2  and  C_4
REMARK    2  A    between atoms: C_7  and  N_8
REMARK    3  A    between atoms: C_15  and  N_16
REMARK                            x       y       z     vdW  Elec       q    Type
REMARK                         _______ _______ _______ _____ _____    ______ ____
ROOT
ATOM      1  C   UNL     1       3.839   5.250  19.093  0.00  0.00    +0.000 A 
ATOM      2  C   UNL     1       2.851   5.373  20.075  0.00  0.00    +0.000 A 
ATOM      3  C   UNL     1       2.050   6.500  20.093  0.00  0.00    +0.000 A 
ATOM      4  C   UNL     1       2.203   7.515  19.140  0.00  0.00    +0.000 A 
ATOM      5  C   UNL     1       3.192   7.333  18.154  0.00  0.00    +0.000 A 
ATOM      6  C   UNL     1       4.046   6.223  18.091  0.00  0.00    +0.000 A 
ENDROOT
BRANCH   4   7
ATOM      7  N   UNL     1       1.419   8.647  19.177  0.00  0.00    +0.000 N 
ATOM      8  C   UNL     1       1.326   9.548  18.031  0.00  0.00    +0.000 C 
ATOM      9  C   UNL     1       1.765  10.950  18.435  0.00  0.00    +0.000 C 
ATOM     10  C   UNL     1       1.007  11.435  19.671  0.00  0.00    +0.000 C 
ATOM     11  C   UNL     1       1.103  10.426  20.815  0.00  0.00    +0.000 C 
ATOM     12  C   UNL     1       0.674   9.025  20.375  0.00  0.00    +0.000 C 
ENDBRANCH   4   7
BRANCH   6  13
ATOM     13  N   UNL     1       4.992   6.146  17.087  0.00  0.00    +0.000 N 
ATOM     14  C   UNL     1       4.978   5.113  16.035  0.00  0.00    +0.000 C 
ATOM     15  C   UNL     1       6.308   4.338  16.003  0.00  0.00    +0.000 C 
ATOM     16  O   UNL     1       7.443   5.219  15.954  0.00  0.00    +0.000 OA
ATOM     17  C   UNL     1       7.447   6.091  17.093  0.00  0.00    +0.000 C 
ATOM     18  C   UNL     1       6.202   6.985  17.109  0.00  0.00    +0.000 C 
ENDBRANCH   6  13
BRANCH   1  20
ATOM     19  O   UNL     1       4.263   2.996  18.916  0.00  0.00    +0.000 OA
ATOM     20  N   UNL     1       4.731   4.115  19.219  0.00  0.00    +0.000 N 
ATOM     21  O   UNL     1       5.878   4.316  19.614  0.00  0.00    +0.000 OA
ENDBRANCH   1  20
TORSDOF 3
ENDMDL
MODEL 5
REMARK VINA RESULT:      -6.3      1.890      4.016
REMARK  Name = 
REMARK  3 active torsions:
REMARK  status: ('A' for Active; 'I' for Inactive)
REMARK    1  A    between atoms: N_2  and  C_4
REMARK    2  A    between atoms: C_7  and  N_8
REMARK    3  A    between atoms: C_15  and  N_16
REMARK                            x       y       z     vdW  Elec       q    Type
REMARK                         _______ _______ _______ _____ _____    ______ ____
ROOT
ATOM      1  C   UNL     1       3.946   5.661  17.794  0.00  0.00    +0.000 A 
ATOM      2  C   UNL     1       4.220   6.930  17.273  0.00  0.00    +0.000 A 
ATOM      3  C   UNL     1       3.463   8.010  17.686  0.00  0.00    +0.000 A 
ATOM      4  C   UNL     1       2.435   7.860  18.626  0.00  0.00    +0.000 A 
ATOM      5  C   UNL     1       2.215   6.569  19.143  0.00  0.00    +0.000 A 
ATOM      6  C   UNL     1       2.935   5.431  18.754  0.00  0.00    +0.000 A 
ENDROOT
BRANCH   4   7
ATOM      7  N   UNL     1       1.667   8.935  19.016  0.00  0.00    +0.000 N 
ATOM      8  C   UNL     1       1.289   9.135  20.413  0.00  0.00    +0.000 C 
ATOM      9  C   UNL     1      -0.229   9.176  20.539  0.00  0.00    +0.000 C 
ATOM     10  C   UNL     1      -0.839  10.195  19.577  0.00  0.00    +0.000 C 
ATOM     11  C   UNL     1      -0.366   9.960  18.142  0.00  0.00    +0.000 C 
ATOM     12  C   UNL     1       1.160   9.906  18.049  0.00  0.00    +0.000 C 
ENDBRANCH   4   7
BRANCH   6  13
ATOM     13  N   UNL     1       2.634   4.206  19.316  0.00  0.00    +0.000 N 
ATOM     14  C   UNL     1       1.504   3.366  18.877  0.00  0.00    +0.000 C 
ATOM     15  C   UNL     1       0.571   3.035  20.056  0.00  0.00    +0.000 C 
ATOM     16  O   UNL     1       1.295   2.513  21.184  0.00  0.00    +0.000 OA
ATOM     17  C   UNL     1       2.277   3.460  21.628  0.00  0.00    +0.000 C 
ATOM     18  C   UNL     1       3.314   3.734  20.533  0.00  0.00    +0.000 C 
ENDBRANCH   6  13
BRANCH   1  20
ATOM     19  O   UNL     1       5.803   4.305  17.708  0.00  0.00    +0.000 OA
ATOM     20  N   UNL     1       4.681   4.556  17.214  0.00  0.00    +0.000 N 
ATOM     21  O   UNL     1       4.169   3.941  16.280  0.00  0.00    +0.000 OA
ENDBRANCH   1  20
TORSDOF 3
ENDMDL
MODEL 6
REMARK VINA RESULT:      -6.3      1.563      2.406
REMARK  Name = 
REMARK  3 active torsions:
REMARK  status: ('A' for Active; 'I' for Inactive)
REMARK    1  A    between atoms: N_2  and  C_4
REMARK    2  A    between atoms: C_7  and  N_8
REMARK    3  A    between atoms: C_15  and  N_16
REMARK                            x       y       z     vdW  Elec       q    Type
REMARK                         _______ _______ _______ _____ _____    ______ ____
ROOT
ATOM      1  C   UNL     1       3.592   6.052  18.921  0.00  0.00    +0.000 A 
ATOM      2  C   UNL     1       2.515   6.425  19.732  0.00  0.00    +0.000 A 
ATOM      3  C   UNL     1       1.822   7.587  19.447  0.00  0.00    +0.000 A 
ATOM      4  C   UNL     1       2.171   8.391  18.354  0.00  0.00    +0.000 A 
ATOM      5  C   UNL     1       3.244   7.960  17.550  0.00  0.00    +0.000 A 
ATOM      6  C   UNL     1       3.996   6.802  17.795  0.00  0.00    +0.000 A 
ENDROOT
BRANCH   4   7
ATOM      7  N   UNL     1       1.494   9.561  18.089  0.00  0.00    +0.000 N 
ATOM      8  C   UNL     1       2.191  10.841  17.992  0.00  0.00    +0.000 C 
ATOM      9  C   UNL     1       1.623  11.819  19.013  0.00  0.00    +0.000 C 
ATOM     10  C   UNL     1       0.103  11.928  18.893  0.00  0.00    +0.000 C 
ATOM     11  C   UNL     1      -0.561  10.552  18.952  0.00  0.00    +0.000 C 
ATOM     12  C   UNL     1       0.041   9.586  17.930  0.00  0.00    +0.000 C 
ENDBRANCH   4   7
BRANCH   6  13
ATOM     13  N   UNL     1       5.038   6.473  16.949  0.00  0.00    +0.000 N 
ATOM     14  C   UNL     1       4.986   5.351  15.994  0.00  0.00    +0.000 C 
ATOM     15  C   UNL     1       6.157   4.378  16.220  0.00  0.00    +0.000 C 
ATOM     16  O   UNL     1       7.422   5.060  16.263  0.00  0.00    +0.000 OA
ATOM     17  C   UNL     1       7.425   6.035  17.316  0.00  0.00    +0.000 C 
ATOM     18  C   UNL     1       6.359   7.110  17.078  0.00  0.00    +0.000 C 
ENDBRANCH   6  13
BRANCH   1  20
ATOM     19  O   UNL     1       3.838   3.779  19.181  0.00  0.00    +0.000 OA
ATOM     20  N   UNL     1       4.358   4.903  19.359  0.00  0.00    +0.000 N 
ATOM     21  O   UNL     1       5.457   5.098  19.876  0.00  0.00    +0.000 OA
ENDBRANCH   1  20
TORSDOF 3
ENDMDL
MODEL 7
REMARK VINA RESULT:      -6.2      3.871      6.788
REMARK  Name = 
REMARK  3 active torsions:
REMARK  status: ('A' for Active; 'I' for Inactive)
REMARK    1  A    between atoms: N_2  and  C_4
REMARK    2  A    between atoms: C_7  and  N_8
REMARK    3  A    between atoms: C_15  and  N_16
REMARK                            x       y       z     vdW  Elec       q    Type
REMARK                         _______ _______ _______ _____ _____    ______ ____
ROOT
ATOM      1  C   UNL     1       1.373   8.413  20.399  0.00  0.00    +0.000 A 
ATOM      2  C   UNL     1       1.949   7.204  20.806  0.00  0.00    +0.000 A 
ATOM      3  C   UNL     1       2.646   6.443  19.887  0.00  0.00    +0.000 A 
ATOM      4  C   UNL     1       2.796   6.864  18.559  0.00  0.00    +0.000 A 
ATOM      5  C   UNL     1       2.223   8.101  18.204  0.00  0.00    +0.000 A 
ATOM      6  C   UNL     1       1.491   8.911  19.083  0.00  0.00    +0.000 A 
ENDROOT
BRANCH   4   7
ATOM      7  N   UNL     1       3.471   6.090  17.641  0.00  0.00    +0.000 N 
ATOM      8  C   UNL     1       3.191   4.664  17.493  0.00  0.00    +0.000 C 
ATOM      9  C   UNL     1       4.461   3.858  17.735  0.00  0.00    +0.000 C 
ATOM     10  C   UNL     1       5.612   4.360  16.864  0.00  0.00    +0.000 C 
ATOM     11  C   UNL     1       5.821   5.865  17.028  0.00  0.00    +0.000 C 
ATOM     12  C   UNL     1       4.526   6.647  16.797  0.00  0.00    +0.000 C 
ENDBRANCH   4   7
BRANCH   6  13
ATOM     13  N   UNL     1       0.960  10.104  18.632  0.00  0.00    +0.000 N 
ATOM     14  C   UNL     1       1.670  11.394  18.717  0.00  0.00    +0.000 C 
ATOM     15  C   UNL     1       0.829  12.437  19.474  0.00  0.00    +0.000 C 
ATOM     16  O   UNL     1      -0.508  12.530  18.954  0.00  0.00    +0.000 OA
ATOM     17  C   UNL     1      -1.167  11.259  19.044  0.00  0.00    +0.000 C 
ATOM     18  C   UNL     1      -0.444  10.202  18.201  0.00  0.00    +0.000 C 
ENDBRANCH   6  13
BRANCH   1  20
ATOM     19  O   UNL     1       1.072  10.016  22.021  0.00  0.00    +0.000 OA
ATOM     20  N   UNL     1       0.540   9.087  21.375  0.00  0.00    +0.000 N 
ATOM     21  O   UNL     1      -0.622   8.708  21.511  0.00  0.00    +0.000 OA
ENDBRANCH   1  20
TORSDOF 3
ENDMDL
MODEL 8
REMARK VINA RESULT:      -6.1      1.684      3.558
REMARK  Name = 
REMARK  3 active torsions:
REMARK  status: ('A' for Active; 'I' for Inactive)
REMARK    1  A    between atoms: N_2  and  C_4
REMARK    2  A    between atoms: C_7  and  N_8
REMARK    3  A    between atoms: C_15  and  N_16
REMARK                            x       y       z     vdW  Elec       q    Type
REMARK                         _______ _______ _______ _____ _____    ______ ____
ROOT
ATOM      1  C   UNL     1       4.086   5.810  17.682  0.00  0.00    +0.000 A 
ATOM      2  C   UNL     1       4.261   7.150  17.316  0.00  0.00    +0.000 A 
ATOM      3  C   UNL     1       3.369   8.100  17.779  0.00  0.00    +0.000 A 
ATOM      4  C   UNL     1       2.303   7.748  18.617  0.00  0.00    +0.000 A 
ATOM      5  C   UNL     1       2.186   6.393  18.980  0.00  0.00    +0.000 A 
ATOM      6  C   UNL     1       3.045   5.380  18.532  0.00  0.00    +0.000 A 
ENDROOT
BRANCH   4   7
ATOM      7  N   UNL     1       1.403   8.695  19.056  0.00  0.00    +0.000 N 
ATOM      8  C   UNL     1       0.960   9.785  18.191  0.00  0.00    +0.000 C 
ATOM      9  C   UNL     1       1.287  11.126  18.836  0.00  0.00    +0.000 C 
ATOM     10  C   UNL     1       0.744  11.203  20.263  0.00  0.00    +0.000 C 
ATOM     11  C   UNL     1       1.204  10.010  21.100  0.00  0.00    +0.000 C 
ATOM     12  C   UNL     1       0.878   8.679  20.419  0.00  0.00    +0.000 C 
ENDBRANCH   4   7
BRANCH   6  13
ATOM     13  N   UNL     1       2.836   4.077  18.941  0.00  0.00    +0.000 N 
ATOM     14  C   UNL     1       3.530   3.463  20.088  0.00  0.00    +0.000 C 
ATOM     15  C   UNL     1       4.265   2.178  19.667  0.00  0.00    +0.000 C 
ATOM     16  O   UNL     1       3.405   1.279  18.945  0.00  0.00    +0.000 OA
ATOM     17  C   UNL     1       2.890   1.920  17.769  0.00  0.00    +0.000 C 
ATOM     18  C   UNL     1       2.037   3.140  18.134  0.00  0.00    +0.000 C 
ENDBRANCH   6  13
BRANCH   1  20
ATOM     19  O   UNL     1       6.013   4.553  17.670  0.00  0.00    +0.000 OA
ATOM     20  N   UNL     1       4.970   4.852  17.049  0.00  0.00    +0.000 N 
ATOM     21  O   UNL     1       4.648   4.400  15.951  0.00  0.00    +0.000 OA
ENDBRANCH   1  20
TORSDOF 3
ENDMDL
MODEL 9
REMARK VINA RESULT:      -6.1      1.844      3.596
REMARK  Name = 
REMARK  3 active torsions:
REMARK  status: ('A' for Active; 'I' for Inactive)
REMARK    1  A    between atoms: N_2  and  C_4
REMARK    2  A    between atoms: C_7  and  N_8
REMARK    3  A    between atoms: C_15  and  N_16
REMARK                            x       y       z     vdW  Elec       q    Type
REMARK                         _______ _______ _______ _____ _____    ______ ____
ROOT
ATOM      1  C   UNL     1       3.695   5.756  17.847  0.00  0.00    +0.000 A 
ATOM      2  C   UNL     1       3.979   7.012  17.300  0.00  0.00    +0.000 A 
ATOM      3  C   UNL     1       3.264   8.115  17.730  0.00  0.00    +0.000 A 
ATOM      4  C   UNL     1       2.271   8.000  18.711  0.00  0.00    +0.000 A 
ATOM      5  C   UNL     1       2.041   6.720  19.252  0.00  0.00    +0.000 A 
ATOM      6  C   UNL     1       2.718   5.562  18.848  0.00  0.00    +0.000 A 
ENDROOT
BRANCH   4   7
ATOM      7  N   UNL     1       1.545   9.098  19.119  0.00  0.00    +0.000 N 
ATOM      8  C   UNL     1       1.211   9.312  20.524  0.00  0.00    +0.000 C 
ATOM      9  C   UNL     1      -0.301   9.397  20.692  0.00  0.00    +0.000 C 
ATOM     10  C   UNL     1      -0.908  10.430  19.743  0.00  0.00    +0.000 C 
ATOM     11  C   UNL     1      -0.482  10.178  18.297  0.00  0.00    +0.000 C 
ATOM     12  C   UNL     1       1.039  10.080  18.163  0.00  0.00    +0.000 C 
ENDBRANCH   4   7
BRANCH   6  13
ATOM     13  N   UNL     1       2.410   4.350  19.436  0.00  0.00    +0.000 N 
ATOM     14  C   UNL     1       3.373   3.561  20.227  0.00  0.00    +0.000 C 
ATOM     15  C   UNL     1       3.517   2.137  19.662  0.00  0.00    +0.000 C 
ATOM     16  O   UNL     1       2.241   1.500  19.477  0.00  0.00    +0.000 OA
ATOM     17  C   UNL     1       1.426   2.269  18.581  0.00  0.00    +0.000 C 
ATOM     18  C   UNL     1       1.139   3.662  19.152  0.00  0.00    +0.000 C 
ENDBRANCH   6  13
BRANCH   1  20
ATOM     19  O   UNL     1       5.569   4.447  17.594  0.00  0.00    +0.000 OA
ATOM     20  N   UNL     1       4.380   4.628  17.251  0.00  0.00    +0.000 N 
ATOM     21  O   UNL     1       3.763   3.926  16.451  0.00  0.00    +0.000 OA
ENDBRANCH   1  20
TORSDOF 3
ENDMDL
