MODEL 1
REMARK VINA RESULT:      -7.7      0.000      0.000
REMARK  Name = 
REMARK  7 active torsions:
REMARK  status: ('A' for Active; 'I' for Inactive)
REMARK    1  A    between atoms: C_1  and  O_2
REMARK    2  A    between atoms: O_2  and  C_3
REMARK    3  A    between atoms: C_7  and  C_8
REMARK    4  A    between atoms: C_8  and  N_9
REMARK    5  A    between atoms: C_10  and  C_12
REMARK    6  A    between atoms: C_16  and  C_17
REMARK    7  A    between atoms: C_18  and  C_19
REMARK                            x       y       z     vdW  Elec       q    Type
REMARK                         _______ _______ _______ _____ _____    ______ ____
ROOT
ATOM      1  N   UNL     1       2.383   7.575  18.950  0.00  0.00    +0.000 N 
ATOM      2  C   UNL     1       1.909   8.712  18.346  0.00  0.00    +0.000 C 
ATOM      3  O   UNL     1       2.165   9.098  17.214  0.00  0.00    +0.000 OA
ATOM      4  H   UNL     1       2.004   7.337  19.863  0.00  0.00    +0.000 HD
ENDROOT
BRANCH   2   5
ATOM      5  C   UNL     1       0.977   9.551  19.212  0.00  0.00    +0.000 A 
ATOM      6  N   UNL     1       0.085  10.321  18.663  0.00  0.00    +0.000 NA
ATOM      7  C   UNL     1      -0.675  11.003  19.568  0.00  0.00    +0.000 A 
ATOM      8  S   UNL     1      -1.907  12.059  19.062  0.00  0.00    +0.000 S 
ATOM      9  C   UNL     1      -2.304  12.489  20.672  0.00  0.00    +0.000 A 
ATOM     10  C   UNL     1      -3.384  13.494  20.914  0.00  0.00    +0.000 C 
ATOM     11  C   UNL     1      -1.523  11.818  21.604  0.00  0.00    +0.000 A 
ATOM     12  C   UNL     1      -1.629  11.970  23.088  0.00  0.00    +0.000 C 
ATOM     13  C   UNL     1      -0.577  10.953  20.944  0.00  0.00    +0.000 A 
ATOM     14  C   UNL     1       0.434  10.074  21.513  0.00  0.00    +0.000 A 
ATOM     15  O   UNL     1       0.625   9.931  22.716  0.00  0.00    +0.000 OA
ATOM     16  N   UNL     1       1.174   9.408  20.570  0.00  0.00    +0.000 N 
ATOM     17  H   UNL     1       1.897   8.776  20.893  0.00  0.00    +0.000 HD
ENDBRANCH   2   5
BRANCH   1  18
ATOM     18  C   UNL     1       3.251   6.648  18.267  0.00  0.00    +0.000 C 
BRANCH  18  23
ATOM     19  C   UNL     1       1.537   3.497  19.587  0.00  0.00    +0.000 A 
ATOM     20  C   UNL     1       1.780   2.607  18.539  0.00  0.00    +0.000 A 
ATOM     21  C   UNL     1       2.499   3.013  17.416  0.00  0.00    +0.000 A 
ATOM     22  C   UNL     1       2.984   4.317  17.335  0.00  0.00    +0.000 A 
ATOM     23  C   UNL     1       2.752   5.228  18.376  0.00  0.00    +0.000 A 
ATOM     24  C   UNL     1       2.017   4.807  19.499  0.00  0.00    +0.000 A 
BRANCH  19  26
ATOM     25  C   UNL     1       1.566   2.567  21.778  0.00  0.00    +0.000 C 
ATOM     26  O   UNL     1       0.830   2.965  20.630  0.00  0.00    +0.000 OA
ENDBRANCH  19  26
ENDBRANCH  18  23
ENDBRANCH   1  18
TORSDOF 4
ENDMDL
MODEL 2
REMARK VINA RESULT:      -7.7      5.281      7.964
REMARK  Name = 
REMARK  7 active torsions:
REMARK  status: ('A' for Active; 'I' for Inactive)
REMARK    1  A    between atoms: C_1  and  O_2
REMARK    2  A    between atoms: O_2  and  C_3
REMARK    3  A    between atoms: C_7  and  C_8
REMARK    4  A    between atoms: C_8  and  N_9
REMARK    5  A    between atoms: C_10  and  C_12
REMARK    6  A    between atoms: C_16  and  C_17
REMARK    7  A    between atoms: C_18  and  C_19
REMARK                            x       y       z     vdW  Elec       q    Type
REMARK                         _______ _______ _______ _____ _____    ______ ____
ROOT
ATOM      1  N   UNL     1       6.075   4.674  14.928  0.00  0.00    +0.000 N 
ATOM      2  C   UNL     1       6.595   4.593  16.195  0.00  0.00    +0.000 C 
ATOM      3  O   UNL     1       7.772   4.445  16.492  0.00  0.00    +0.000 OA
ATOM      4  H   UNL     1       5.086   4.894  14.840  0.00  0.00    +0.000 HD
ENDROOT
BRANCH   2   5
ATOM      5  C   UNL     1       5.564   4.697  17.313  0.00  0.00    +0.000 A 
ATOM      6  N   UNL     1       4.796   5.742  17.402  0.00  0.00    +0.000 NA
ATOM      7  C   UNL     1       3.924   5.687  18.449  0.00  0.00    +0.000 A 
ATOM      8  S   UNL     1       2.823   6.948  18.743  0.00  0.00    +0.000 S 
ATOM      9  C   UNL     1       2.188   6.172  20.133  0.00  0.00    +0.000 A 
ATOM     10  C   UNL     1       1.116   6.851  20.923  0.00  0.00    +0.000 C 
ATOM     11  C   UNL     1       2.789   4.943  20.370  0.00  0.00    +0.000 A 
ATOM     12  C   UNL     1       2.453   4.021  21.499  0.00  0.00    +0.000 C 
ATOM     13  C   UNL     1       3.800   4.672  19.378  0.00  0.00    +0.000 A 
ATOM     14  C   UNL     1       4.679   3.521  19.234  0.00  0.00    +0.000 A 
ATOM     15  O   UNL     1       4.671   2.550  19.984  0.00  0.00    +0.000 OA
ATOM     16  N   UNL     1       5.539   3.617  18.170  0.00  0.00    +0.000 N 
ATOM     17  H   UNL     1       6.180   2.850  18.007  0.00  0.00    +0.000 HD
ENDBRANCH   2   5
BRANCH   1  18
ATOM     18  C   UNL     1       6.907   4.626  13.751  0.00  0.00    +0.000 C 
BRANCH  18  23
ATOM     19  C   UNL     1       4.493   2.953  11.306  0.00  0.00    +0.000 A 
ATOM     20  C   UNL     1       5.331   2.004  10.717  0.00  0.00    +0.000 A 
ATOM     21  C   UNL     1       6.664   1.894  11.109  0.00  0.00    +0.000 A 
ATOM     22  C   UNL     1       7.170   2.736  12.099  0.00  0.00    +0.000 A 
ATOM     23  C   UNL     1       6.346   3.696  12.704  0.00  0.00    +0.000 A 
ATOM     24  C   UNL     1       5.005   3.801  12.292  0.00  0.00    +0.000 A 
BRANCH  19  26
ATOM     25  C   UNL     1       2.936   3.719   9.676  0.00  0.00    +0.000 C 
ATOM     26  O   UNL     1       3.209   2.945  10.836  0.00  0.00    +0.000 OA
ENDBRANCH  19  26
ENDBRANCH  18  23
ENDBRANCH   1  18
TORSDOF 4
ENDMDL
MODEL 3
REMARK VINA RESULT:      -7.6      5.332      7.876
REMARK  Name = 
REMARK  7 active torsions:
REMARK  status: ('A' for Active; 'I' for Inactive)
REMARK    1  A    between atoms: C_1  and  O_2
REMARK    2  A    between atoms: O_2  and  C_3
REMARK    3  A    between atoms: C_7  and  C_8
REMARK    4  A    between atoms: C_8  and  N_9
REMARK    5  A    between atoms: C_10  and  C_12
REMARK    6  A    between atoms: C_16  and  C_17
REMARK    7  A    between atoms: C_18  and  C_19
REMARK                            x       y       z     vdW  Elec       q    Type
REMARK                         _______ _______ _______ _____ _____    ______ ____
ROOT
ATOM      1  N   UNL     1       5.922   4.488  15.114  0.00  0.00    +0.000 N 
ATOM      2  C   UNL     1       5.353   5.647  15.579  0.00  0.00    +0.000 C 
ATOM      3  O   UNL     1       5.448   6.758  15.079  0.00  0.00    +0.000 OA
ATOM      4  H   UNL     1       5.673   3.622  15.585  0.00  0.00    +0.000 HD
ENDROOT
BRANCH   2   5
ATOM      5  C   UNL     1       4.532   5.484  16.854  0.00  0.00    +0.000 A 
ATOM      6  N   UNL     1       4.470   4.331  17.452  0.00  0.00    +0.000 NA
ATOM      7  C   UNL     1       3.703   4.346  18.580  0.00  0.00    +0.000 A 
ATOM      8  S   UNL     1       3.495   2.945  19.519  0.00  0.00    +0.000 S 
ATOM      9  C   UNL     1       2.461   3.747  20.624  0.00  0.00    +0.000 A 
ATOM     10  C   UNL     1       1.869   2.977  21.761  0.00  0.00    +0.000 C 
ATOM     11  C   UNL     1       2.285   5.086  20.304  0.00  0.00    +0.000 A 
ATOM     12  C   UNL     1       1.447   6.056  21.074  0.00  0.00    +0.000 C 
ATOM     13  C   UNL     1       3.018   5.422  19.108  0.00  0.00    +0.000 A 
ATOM     14  C   UNL     1       3.121   6.693  18.405  0.00  0.00    +0.000 A 
ATOM     15  O   UNL     1       2.568   7.726  18.767  0.00  0.00    +0.000 OA
ATOM     16  N   UNL     1       3.900   6.634  17.278  0.00  0.00    +0.000 N 
ATOM     17  H   UNL     1       4.019   7.483  16.739  0.00  0.00    +0.000 HD
ENDBRANCH   2   5
BRANCH   1  18
ATOM     18  C   UNL     1       6.705   4.449  13.903  0.00  0.00    +0.000 C 
BRANCH  18  23
ATOM     19  C   UNL     1       5.999   1.704  11.341  0.00  0.00    +0.000 A 
ATOM     20  C   UNL     1       4.748   2.102  10.867  0.00  0.00    +0.000 A 
ATOM     21  C   UNL     1       4.135   3.252  11.361  0.00  0.00    +0.000 A 
ATOM     22  C   UNL     1       4.775   4.017  12.335  0.00  0.00    +0.000 A 
ATOM     23  C   UNL     1       6.033   3.636  12.826  0.00  0.00    +0.000 A 
ATOM     24  C   UNL     1       6.635   2.468  12.324  0.00  0.00    +0.000 A 
BRANCH  19  26
ATOM     25  C   UNL     1       6.041  -0.677  11.292  0.00  0.00    +0.000 C 
ATOM     26  O   UNL     1       6.488   0.564  10.763  0.00  0.00    +0.000 OA
ENDBRANCH  19  26
ENDBRANCH  18  23
ENDBRANCH   1  18
TORSDOF 4
ENDMDL
MODEL 4
REMARK VINA RESULT:      -7.6      5.447      8.227
REMARK  Name = 
REMARK  7 active torsions:
REMARK  status: ('A' for Active; 'I' for Inactive)
REMARK    1  A    between atoms: C_1  and  O_2
REMARK    2  A    between atoms: O_2  and  C_3
REMARK    3  A    between atoms: C_7  and  C_8
REMARK    4  A    between atoms: C_8  and  N_9
REMARK    5  A    between atoms: C_10  and  C_12
REMARK    6  A    between atoms: C_16  and  C_17
REMARK    7  A    between atoms: C_18  and  C_19
REMARK                            x       y       z     vdW  Elec       q    Type
REMARK                         _______ _______ _______ _____ _____    ______ ____
ROOT
ATOM      1  N   UNL     1       5.897   4.489  14.912  0.00  0.00    +0.000 N 
ATOM      2  C   UNL     1       6.397   4.671  16.177  0.00  0.00    +0.000 C 
ATOM      3  O   UNL     1       7.573   4.805  16.484  0.00  0.00    +0.000 OA
ATOM      4  H   UNL     1       4.886   4.489  14.803  0.00  0.00    +0.000 HD
ENDROOT
BRANCH   2   5
ATOM      5  C   UNL     1       5.344   4.697  17.278  0.00  0.00    +0.000 A 
ATOM      6  N   UNL     1       5.126   3.640  18.003  0.00  0.00    +0.000 NA
ATOM      7  C   UNL     1       4.160   3.820  18.950  0.00  0.00    +0.000 A 
ATOM      8  S   UNL     1       3.725   2.566  20.011  0.00  0.00    +0.000 S 
ATOM      9  C   UNL     1       2.530   3.526  20.776  0.00  0.00    +0.000 A 
ATOM     10  C   UNL     1       1.704   2.929  21.870  0.00  0.00    +0.000 C 
ATOM     11  C   UNL     1       2.468   4.809  20.250  0.00  0.00    +0.000 A 
ATOM     12  C   UNL     1       1.535   5.886  20.705  0.00  0.00    +0.000 C 
ATOM     13  C   UNL     1       3.427   4.967  19.184  0.00  0.00    +0.000 A 
ATOM     14  C   UNL     1       3.709   6.125  18.350  0.00  0.00    +0.000 A 
ATOM     15  O   UNL     1       3.137   7.205  18.454  0.00  0.00    +0.000 OA
ATOM     16  N   UNL     1       4.686   5.901  17.413  0.00  0.00    +0.000 N 
ATOM     17  H   UNL     1       4.936   6.665  16.797  0.00  0.00    +0.000 HD
ENDBRANCH   2   5
BRANCH   1  18
ATOM     18  C   UNL     1       6.746   4.470  13.746  0.00  0.00    +0.000 C 
BRANCH  18  23
ATOM     19  C   UNL     1       4.391   2.935  11.157  0.00  0.00    +0.000 A 
ATOM     20  C   UNL     1       5.206   1.937  10.619  0.00  0.00    +0.000 A 
ATOM     21  C   UNL     1       6.504   1.751  11.091  0.00  0.00    +0.000 A 
ATOM     22  C   UNL     1       6.997   2.564  12.110  0.00  0.00    +0.000 A 
ATOM     23  C   UNL     1       6.195   3.572  12.666  0.00  0.00    +0.000 A 
ATOM     24  C   UNL     1       4.890   3.754  12.174  0.00  0.00    +0.000 A 
BRANCH  19  26
ATOM     25  C   UNL     1       2.892   4.038   9.672  0.00  0.00    +0.000 C 
ATOM     26  O   UNL     1       3.139   3.000  10.610  0.00  0.00    +0.000 OA
ENDBRANCH  19  26
ENDBRANCH  18  23
ENDBRANCH   1  18
TORSDOF 4
ENDMDL
MODEL 5
REMARK VINA RESULT:      -7.6      2.901      4.242
REMARK  Name = 
REMARK  7 active torsions:
REMARK  status: ('A' for Active; 'I' for Inactive)
REMARK    1  A    between atoms: C_1  and  O_2
REMARK    2  A    between atoms: O_2  and  C_3
REMARK    3  A    between atoms: C_7  and  C_8
REMARK    4  A    between atoms: C_8  and  N_9
REMARK    5  A    between atoms: C_10  and  C_12
REMARK    6  A    between atoms: C_16  and  C_17
REMARK    7  A    between atoms: C_18  and  C_19
REMARK                            x       y       z     vdW  Elec       q    Type
REMARK                         _______ _______ _______ _____ _____    ______ ____
ROOT
ATOM      1  N   UNL     1       2.659   5.450  18.143  0.00  0.00    +0.000 N 
ATOM      2  C   UNL     1       2.569   5.836  19.457  0.00  0.00    +0.000 C 
ATOM      3  O   UNL     1       2.876   5.170  20.435  0.00  0.00    +0.000 OA
ATOM      4  H   UNL     1       2.456   6.150  17.434  0.00  0.00    +0.000 HD
ENDROOT
BRANCH   2   5
ATOM      5  C   UNL     1       2.021   7.242  19.670  0.00  0.00    +0.000 A 
ATOM      6  N   UNL     1       1.492   7.575  20.810  0.00  0.00    +0.000 NA
ATOM      7  C   UNL     1       1.053   8.866  20.848  0.00  0.00    +0.000 A 
ATOM      8  S   UNL     1       0.336   9.508  22.249  0.00  0.00    +0.000 S 
ATOM      9  C   UNL     1       0.065  11.027  21.505  0.00  0.00    +0.000 A 
ATOM     10  C   UNL     1      -0.622  12.107  22.278  0.00  0.00    +0.000 C 
ATOM     11  C   UNL     1       0.536  11.066  20.200  0.00  0.00    +0.000 A 
ATOM     12  C   UNL     1       0.455  12.248  19.286  0.00  0.00    +0.000 C 
ATOM     13  C   UNL     1       1.111   9.797  19.830  0.00  0.00    +0.000 A 
ATOM     14  C   UNL     1       1.715   9.379  18.573  0.00  0.00    +0.000 A 
ATOM     15  O   UNL     1       1.835  10.104  17.592  0.00  0.00    +0.000 OA
ATOM     16  N   UNL     1       2.143   8.076  18.578  0.00  0.00    +0.000 N 
ATOM     17  H   UNL     1       2.576   7.715  17.736  0.00  0.00    +0.000 HD
ENDBRANCH   2   5
BRANCH   1  18
ATOM     18  C   UNL     1       3.185   4.164  17.754  0.00  0.00    +0.000 C 
BRANCH  18  23
ATOM     19  C   UNL     1       6.983   4.568  17.636  0.00  0.00    +0.000 A 
ATOM     20  C   UNL     1       7.223   4.401  16.270  0.00  0.00    +0.000 A 
ATOM     21  C   UNL     1       6.168   4.168  15.389  0.00  0.00    +0.000 A 
ATOM     22  C   UNL     1       4.862   4.103  15.869  0.00  0.00    +0.000 A 
ATOM     23  C   UNL     1       4.597   4.269  17.236  0.00  0.00    +0.000 A 
ATOM     24  C   UNL     1       5.672   4.494  18.115  0.00  0.00    +0.000 A 
BRANCH  19  26
ATOM     25  C   UNL     1       7.991   5.728  19.455  0.00  0.00    +0.000 C 
ATOM     26  O   UNL     1       8.104   4.801  18.384  0.00  0.00    +0.000 OA
ENDBRANCH  19  26
ENDBRANCH  18  23
ENDBRANCH   1  18
TORSDOF 4
ENDMDL
MODEL 6
REMARK VINA RESULT:      -7.6      3.022      8.265
REMARK  Name = 
REMARK  7 active torsions:
REMARK  status: ('A' for Active; 'I' for Inactive)
REMARK    1  A    between atoms: C_1  and  O_2
REMARK    2  A    between atoms: O_2  and  C_3
REMARK    3  A    between atoms: C_7  and  C_8
REMARK    4  A    between atoms: C_8  and  N_9
REMARK    5  A    between atoms: C_10  and  C_12
REMARK    6  A    between atoms: C_16  and  C_17
REMARK    7  A    between atoms: C_18  and  C_19
REMARK                            x       y       z     vdW  Elec       q    Type
REMARK                         _______ _______ _______ _____ _____    ______ ____
ROOT
ATOM      1  N   UNL     1       1.162   9.382  19.321  0.00  0.00    +0.000 N 
ATOM      2  C   UNL     1       1.553   8.408  20.205  0.00  0.00    +0.000 C 
ATOM      3  O   UNL     1       1.440   8.440  21.422  0.00  0.00    +0.000 OA
ATOM      4  H   UNL     1       1.234   9.171  18.329  0.00  0.00    +0.000 HD
ENDROOT
BRANCH   2   5
ATOM      5  C   UNL     1       2.191   7.183  19.559  0.00  0.00    +0.000 A 
ATOM      6  N   UNL     1       1.947   5.994  20.024  0.00  0.00    +0.000 NA
ATOM      7  C   UNL     1       2.585   5.002  19.339  0.00  0.00    +0.000 A 
ATOM      8  S   UNL     1       2.396   3.371  19.776  0.00  0.00    +0.000 S 
ATOM      9  C   UNL     1       3.466   2.838  18.548  0.00  0.00    +0.000 A 
ATOM     10  C   UNL     1       3.766   1.379  18.422  0.00  0.00    +0.000 C 
ATOM     11  C   UNL     1       3.954   3.890  17.784  0.00  0.00    +0.000 A 
ATOM     12  C   UNL     1       4.902   3.754  16.634  0.00  0.00    +0.000 C 
ATOM     13  C   UNL     1       3.431   5.147  18.257  0.00  0.00    +0.000 A 
ATOM     14  C   UNL     1       3.671   6.498  17.770  0.00  0.00    +0.000 A 
ATOM     15  O   UNL     1       4.394   6.768  16.817  0.00  0.00    +0.000 OA
ATOM     16  N   UNL     1       3.010   7.463  18.486  0.00  0.00    +0.000 N 
ATOM     17  H   UNL     1       3.129   8.429  18.203  0.00  0.00    +0.000 HD
ENDBRANCH   2   5
BRANCH   1  18
ATOM     18  C   UNL     1       0.512  10.595  19.752  0.00  0.00    +0.000 C 
BRANCH  18  23
ATOM     19  C   UNL     1      -2.315  10.306  17.198  0.00  0.00    +0.000 A 
ATOM     20  C   UNL     1      -3.244  11.203  17.731  0.00  0.00    +0.000 A 
ATOM     21  C   UNL     1      -2.960  11.905  18.902  0.00  0.00    +0.000 A 
ATOM     22  C   UNL     1      -1.740  11.716  19.548  0.00  0.00    +0.000 A 
ATOM     23  C   UNL     1      -0.793  10.820  19.030  0.00  0.00    +0.000 A 
ATOM     24  C   UNL     1      -1.096  10.112  17.853  0.00  0.00    +0.000 A 
BRANCH  19  26
ATOM     25  C   UNL     1      -3.192  10.531  14.996  0.00  0.00    +0.000 C 
ATOM     26  O   UNL     1      -2.717   9.695  16.043  0.00  0.00    +0.000 OA
ENDBRANCH  19  26
ENDBRANCH  18  23
ENDBRANCH   1  18
TORSDOF 4
ENDMDL
MODEL 7
REMARK VINA RESULT:      -7.5      2.873      4.395
REMARK  Name = 
REMARK  7 active torsions:
REMARK  status: ('A' for Active; 'I' for Inactive)
REMARK    1  A    between atoms: C_1  and  O_2
REMARK    2  A    between atoms: O_2  and  C_3
REMARK    3  A    between atoms: C_7  and  C_8
REMARK    4  A    between atoms: C_8  and  N_9
REMARK    5  A    between atoms: C_10  and  C_12
REMARK    6  A    between atoms: C_16  and  C_17
REMARK    7  A    between atoms: C_18  and  C_19
REMARK                            x       y       z     vdW  Elec       q    Type
REMARK                         _______ _______ _______ _____ _____    ______ ____
ROOT
ATOM      1  N   UNL     1       2.630   6.198  18.552  0.00  0.00    +0.000 N 
ATOM      2  C   UNL     1       2.239   6.355  19.857  0.00  0.00    +0.000 C 
ATOM      3  O   UNL     1       2.356   5.536  20.757  0.00  0.00    +0.000 OA
ATOM      4  H   UNL     1       2.553   7.006  17.939  0.00  0.00    +0.000 HD
ENDROOT
BRANCH   2   5
ATOM      5  C   UNL     1       1.594   7.701  20.170  0.00  0.00    +0.000 A 
ATOM      6  N   UNL     1       1.021   7.903  21.319  0.00  0.00    +0.000 NA
ATOM      7  C   UNL     1       0.496   9.155  21.451  0.00  0.00    +0.000 A 
ATOM      8  S   UNL     1      -0.292   9.631  22.880  0.00  0.00    +0.000 S 
ATOM      9  C   UNL     1      -0.648  11.186  22.255  0.00  0.00    +0.000 A 
ATOM     10  C   UNL     1      -1.421  12.152  23.095  0.00  0.00    +0.000 C 
ATOM     11  C   UNL     1      -0.153  11.364  20.971  0.00  0.00    +0.000 A 
ATOM     12  C   UNL     1      -0.292  12.610  20.155  0.00  0.00    +0.000 C 
ATOM     13  C   UNL     1       0.514  10.170  20.514  0.00  0.00    +0.000 A 
ATOM     14  C   UNL     1       1.171   9.898  19.244  0.00  0.00    +0.000 A 
ATOM     15  O   UNL     1       1.263  10.709  18.329  0.00  0.00    +0.000 OA
ATOM     16  N   UNL     1       1.685   8.629  19.154  0.00  0.00    +0.000 N 
ATOM     17  H   UNL     1       2.158   8.369  18.297  0.00  0.00    +0.000 HD
ENDBRANCH   2   5
BRANCH   1  18
ATOM     18  C   UNL     1       3.285   5.001  18.085  0.00  0.00    +0.000 C 
BRANCH  18  23
ATOM     19  C   UNL     1       6.781   5.446  16.608  0.00  0.00    +0.000 A 
ATOM     20  C   UNL     1       7.541   5.591  17.771  0.00  0.00    +0.000 A 
ATOM     21  C   UNL     1       6.936   5.537  19.025  0.00  0.00    +0.000 A 
ATOM     22  C   UNL     1       5.560   5.334  19.125  0.00  0.00    +0.000 A 
ATOM     23  C   UNL     1       4.777   5.186  17.971  0.00  0.00    +0.000 A 
ATOM     24  C   UNL     1       5.401   5.252  16.712  0.00  0.00    +0.000 A 
BRANCH  19  26
ATOM     25  C   UNL     1       6.964   4.850  14.310  0.00  0.00    +0.000 C 
ATOM     26  O   UNL     1       7.503   5.509  15.448  0.00  0.00    +0.000 OA
ENDBRANCH  19  26
ENDBRANCH  18  23
ENDBRANCH   1  18
TORSDOF 4
ENDMDL
MODEL 8
REMARK VINA RESULT:      -7.5      2.958      7.972
REMARK  Name = 
REMARK  7 active torsions:
REMARK  status: ('A' for Active; 'I' for Inactive)
REMARK    1  A    between atoms: C_1  and  O_2
REMARK    2  A    between atoms: O_2  and  C_3
REMARK    3  A    between atoms: C_7  and  C_8
REMARK    4  A    between atoms: C_8  and  N_9
REMARK    5  A    between atoms: C_10  and  C_12
REMARK    6  A    between atoms: C_16  and  C_17
REMARK    7  A    between atoms: C_18  and  C_19
REMARK                            x       y       z     vdW  Elec       q    Type
REMARK                         _______ _______ _______ _____ _____    ______ ____
ROOT
ATOM      1  N   UNL     1       0.783   9.721  19.495  0.00  0.00    +0.000 N 
ATOM      2  C   UNL     1       1.073   8.794  20.464  0.00  0.00    +0.000 C 
ATOM      3  O   UNL     1       0.753   8.847  21.643  0.00  0.00    +0.000 OA
ATOM      4  H   UNL     1       1.034   9.492  18.537  0.00  0.00    +0.000 HD
ENDROOT
BRANCH   2   5
ATOM      5  C   UNL     1       1.882   7.598  19.977  0.00  0.00    +0.000 A 
ATOM      6  N   UNL     1       2.603   7.688  18.899  0.00  0.00    +0.000 NA
ATOM      7  C   UNL     1       3.272   6.538  18.596  0.00  0.00    +0.000 A 
ATOM      8  S   UNL     1       4.280   6.443  17.231  0.00  0.00    +0.000 S 
ATOM      9  C   UNL     1       4.664   4.801  17.535  0.00  0.00    +0.000 A 
ATOM     10  C   UNL     1       5.564   4.073  16.589  0.00  0.00    +0.000 C 
ATOM     11  C   UNL     1       4.052   4.322  18.685  0.00  0.00    +0.000 A 
ATOM     12  C   UNL     1       4.192   2.933  19.224  0.00  0.00    +0.000 C 
ATOM     13  C   UNL     1       3.242   5.347  19.295  0.00  0.00    +0.000 A 
ATOM     14  C   UNL     1       2.423   5.296  20.497  0.00  0.00    +0.000 A 
ATOM     15  O   UNL     1       2.311   4.306  21.212  0.00  0.00    +0.000 OA
ATOM     16  N   UNL     1       1.770   6.472  20.765  0.00  0.00    +0.000 N 
ATOM     17  H   UNL     1       1.182   6.510  21.589  0.00  0.00    +0.000 HD
ENDBRANCH   2   5
BRANCH   1  18
ATOM     18  C   UNL     1      -0.000  10.901  19.770  0.00  0.00    +0.000 C 
BRANCH  18  23
ATOM     19  C   UNL     1      -2.479  10.268  16.932  0.00  0.00    +0.000 A 
ATOM     20  C   UNL     1      -3.554  11.060  17.340  0.00  0.00    +0.000 A 
ATOM     21  C   UNL     1      -3.482  11.801  18.518  0.00  0.00    +0.000 A 
ATOM     22  C   UNL     1      -2.327  11.758  19.297  0.00  0.00    +0.000 A 
ATOM     23  C   UNL     1      -1.234  10.970  18.906  0.00  0.00    +0.000 A 
ATOM     24  C   UNL     1      -1.325  10.220  17.720  0.00  0.00    +0.000 A 
BRANCH  19  26
ATOM     25  C   UNL     1      -3.503  10.235  14.782  0.00  0.00    +0.000 C 
ATOM     26  O   UNL     1      -2.681   9.603  15.754  0.00  0.00    +0.000 OA
ENDBRANCH  19  26
ENDBRANCH  18  23
ENDBRANCH   1  18
TORSDOF 4
ENDMDL
MODEL 9
REMARK VINA RESULT:      -7.5      3.221      8.216
REMARK  Name = 
REMARK  7 active torsions:
REMARK  status: ('A' for Active; 'I' for Inactive)
REMARK    1  A    between atoms: C_1  and  O_2
REMARK    2  A    between atoms: O_2  and  C_3
REMARK    3  A    between atoms: C_7  and  C_8
REMARK    4  A    between atoms: C_8  and  N_9
REMARK    5  A    between atoms: C_10  and  C_12
REMARK    6  A    between atoms: C_16  and  C_17
REMARK    7  A    between atoms: C_18  and  C_19
REMARK                            x       y       z     vdW  Elec       q    Type
REMARK                         _______ _______ _______ _____ _____    ______ ____
ROOT
ATOM      1  N   UNL     1       0.974   9.317  19.067  0.00  0.00    +0.000 N 
ATOM      2  C   UNL     1       2.015   9.295  18.174  0.00  0.00    +0.000 C 
ATOM      3  O   UNL     1       2.484  10.253  17.577  0.00  0.00    +0.000 OA
ATOM      4  H   UNL     1       0.758   8.452  19.557  0.00  0.00    +0.000 HD
ENDROOT
BRANCH   2   5
ATOM      5  C   UNL     1       2.613   7.914  17.930  0.00  0.00    +0.000 A 
ATOM      6  N   UNL     1       2.016   6.851  18.382  0.00  0.00    +0.000 NA
ATOM      7  C   UNL     1       2.669   5.692  18.078  0.00  0.00    +0.000 A 
ATOM      8  S   UNL     1       2.056   4.185  18.568  0.00  0.00    +0.000 S 
ATOM      9  C   UNL     1       3.375   3.338  17.878  0.00  0.00    +0.000 A 
ATOM     10  C   UNL     1       3.440   1.850  18.011  0.00  0.00    +0.000 C 
ATOM     11  C   UNL     1       4.277   4.189  17.252  0.00  0.00    +0.000 A 
ATOM     12  C   UNL     1       5.527   3.759  16.552  0.00  0.00    +0.000 C 
ATOM     13  C   UNL     1       3.851   5.560  17.376  0.00  0.00    +0.000 A 
ATOM     14  C   UNL     1       4.479   6.779  16.887  0.00  0.00    +0.000 A 
ATOM     15  O   UNL     1       5.525   6.805  16.247  0.00  0.00    +0.000 OA
ATOM     16  N   UNL     1       3.791   7.919  17.213  0.00  0.00    +0.000 N 
ATOM     17  H   UNL     1       4.169   8.806  16.903  0.00  0.00    +0.000 HD
ENDBRANCH   2   5
BRANCH   1  18
ATOM     18  C   UNL     1       0.309  10.541  19.442  0.00  0.00    +0.000 C 
BRANCH  18  23
ATOM     19  C   UNL     1      -2.533  10.097  16.925  0.00  0.00    +0.000 A 
ATOM     20  C   UNL     1      -3.487  10.971  17.450  0.00  0.00    +0.000 A 
ATOM     21  C   UNL     1      -3.217  11.707  18.602  0.00  0.00    +0.000 A 
ATOM     22  C   UNL     1      -1.985  11.575  19.239  0.00  0.00    +0.000 A 
ATOM     23  C   UNL     1      -1.011  10.704  18.730  0.00  0.00    +0.000 A 
ATOM     24  C   UNL     1      -1.300   9.961  17.571  0.00  0.00    +0.000 A 
BRANCH  19  26
ATOM     25  C   UNL     1      -3.006  10.217  14.595  0.00  0.00    +0.000 C 
ATOM     26  O   UNL     1      -2.924   9.448  15.787  0.00  0.00    +0.000 OA
ENDBRANCH  19  26
ENDBRANCH  18  23
ENDBRANCH   1  18
TORSDOF 4
ENDMDL
