MODEL 1
REMARK VINA RESULT:      -8.7      0.000      0.000
REMARK  Name = 
REMARK  5 active torsions:
REMARK  status: ('A' for Active; 'I' for Inactive)
REMARK    1  A    between atoms: C_2  and  C_3
REMARK    2  A    between atoms: C_3  and  N_4
REMARK    3  A    between atoms: C_6  and  C_7
REMARK    4  A    between atoms: C_7  and  C_8
REMARK    5  A    between atoms: N_22  and  C_23
REMARK                            x       y       z     vdW  Elec       q    Type
REMARK                         _______ _______ _______ _____ _____    ______ ____
ROOT
ATOM      1  N   UNL     1       5.337   5.867  18.178  0.00  0.00    +0.000 N 
ATOM      2  N   UNL     1       4.342   6.744  17.835  0.00  0.00    +0.000 NA
ATOM      3  C   UNL     1       3.129   6.521  18.239  0.00  0.00    +0.000 A 
ATOM      4  C   UNL     1       2.756   5.322  19.022  0.00  0.00    +0.000 A 
ATOM      5  C   UNL     1       1.437   5.012  19.363  0.00  0.00    +0.000 A 
ATOM      6  C   UNL     1       1.149   3.817  20.027  0.00  0.00    +0.000 A 
ATOM      7  C   UNL     1       2.178   2.943  20.383  0.00  0.00    +0.000 A 
ATOM      8  C   UNL     1       3.496   3.261  20.064  0.00  0.00    +0.000 A 
ATOM      9  C   UNL     1       3.780   4.444  19.373  0.00  0.00    +0.000 A 
ATOM     10  C   UNL     1       5.164   4.728  18.957  0.00  0.00    +0.000 A 
ATOM     11  O   UNL     1       6.062   3.957  19.253  0.00  0.00    +0.000 OA
ENDROOT
BRANCH   1  12
ATOM     12  C   UNL     1       6.658   6.168  17.649  0.00  0.00    +0.000 C 
BRANCH  12  14
ATOM     13  O   UNL     1       7.889   4.453  16.561  0.00  0.00    +0.000 OA
ATOM     14  C   UNL     1       7.042   5.338  16.427  0.00  0.00    +0.000 C 
ATOM     15  N   UNL     1       6.407   5.641  15.231  0.00  0.00    +0.000 N 
ATOM     16  H   UNL     1       5.943   6.544  15.173  0.00  0.00    +0.000 HD
BRANCH  15  17
ATOM     17  C   UNL     1       6.441   4.837  14.059  0.00  0.00    +0.000 A 
ATOM     18  C   UNL     1       5.461   3.882  13.793  0.00  0.00    +0.000 A 
ATOM     19  C   UNL     1       5.493   3.132  12.620  0.00  0.00    +0.000 A 
ATOM     20  C   UNL     1       6.502   3.379  11.710  0.00  0.00    +0.000 A 
ATOM     21  N   UNL     1       7.481   4.286  11.913  0.00  0.00    +0.000 NA
ATOM     22  C   UNL     1       7.432   4.979  13.081  0.00  0.00    +0.000 A 
ATOM     23 CL   UNL     1       8.785   6.026  13.298  0.00  0.00    +0.000 Cl
ENDBRANCH  15  17
ENDBRANCH  12  14
ENDBRANCH   1  12
BRANCH   3  24
ATOM     24  C   UNL     1       2.071   7.534  17.826  0.00  0.00    +0.000 C 
BRANCH  24  25
ATOM     25  C   UNL     1       1.712   8.529  18.898  0.00  0.00    +0.000 A 
ATOM     26  C   UNL     1       1.652   8.157  20.244  0.00  0.00    +0.000 A 
ATOM     27  C   UNL     1       1.210   9.071  21.198  0.00  0.00    +0.000 A 
ATOM     28  C   UNL     1       0.849  10.337  20.775  0.00  0.00    +0.000 A 
ATOM     29  N   UNL     1       0.915  10.743  19.490  0.00  0.00    +0.000 NA
ATOM     30  C   UNL     1       1.341   9.834  18.582  0.00  0.00    +0.000 A 
ENDBRANCH  24  25
ENDBRANCH   3  24
TORSDOF 5
ENDMDL
MODEL 2
REMARK VINA RESULT:      -8.5      1.182      1.404
REMARK  Name = 
REMARK  5 active torsions:
REMARK  status: ('A' for Active; 'I' for Inactive)
REMARK    1  A    between atoms: C_2  and  C_3
REMARK    2  A    between atoms: C_3  and  N_4
REMARK    3  A    between atoms: C_6  and  C_7
REMARK    4  A    between atoms: C_7  and  C_8
REMARK    5  A    between atoms: N_22  and  C_23
REMARK                            x       y       z     vdW  Elec       q    Type
REMARK                         _______ _______ _______ _____ _____    ______ ____
ROOT
ATOM      1  N   UNL     1       5.327   5.589  18.630  0.00  0.00    +0.000 N 
ATOM      2  N   UNL     1       4.397   6.526  18.262  0.00  0.00    +0.000 NA
ATOM      3  C   UNL     1       3.141   6.306  18.501  0.00  0.00    +0.000 A 
ATOM      4  C   UNL     1       2.654   5.052  19.117  0.00  0.00    +0.000 A 
ATOM      5  C   UNL     1       1.297   4.753  19.273  0.00  0.00    +0.000 A 
ATOM      6  C   UNL     1       0.908   3.511  19.780  0.00  0.00    +0.000 A 
ATOM      7  C   UNL     1       1.869   2.576  20.165  0.00  0.00    +0.000 A 
ATOM      8  C   UNL     1       3.222   2.879  20.033  0.00  0.00    +0.000 A 
ATOM      9  C   UNL     1       3.610   4.112  19.497  0.00  0.00    +0.000 A 
ATOM     10  C   UNL     1       5.039   4.389  19.271  0.00  0.00    +0.000 A 
ATOM     11  O   UNL     1       5.880   3.566  19.592  0.00  0.00    +0.000 OA
ENDROOT
BRANCH   1  12
ATOM     12  C   UNL     1       6.706   5.897  18.289  0.00  0.00    +0.000 C 
BRANCH  12  14
ATOM     13  O   UNL     1       8.012   4.368  17.023  0.00  0.00    +0.000 OA
ATOM     14  C   UNL     1       7.175   5.271  16.977  0.00  0.00    +0.000 C 
ATOM     15  N   UNL     1       6.622   5.770  15.806  0.00  0.00    +0.000 N 
ATOM     16  H   UNL     1       6.161   6.675  15.863  0.00  0.00    +0.000 HD
BRANCH  15  17
ATOM     17  C   UNL     1       6.738   5.166  14.524  0.00  0.00    +0.000 A 
ATOM     18  C   UNL     1       7.688   5.590  13.595  0.00  0.00    +0.000 A 
ATOM     19  C   UNL     1       7.810   4.960  12.359  0.00  0.00    +0.000 A 
ATOM     20  C   UNL     1       6.989   3.884  12.086  0.00  0.00    +0.000 A 
ATOM     21  N   UNL     1       6.048   3.431  12.942  0.00  0.00    +0.000 NA
ATOM     22  C   UNL     1       5.941   4.088  14.127  0.00  0.00    +0.000 A 
ATOM     23 CL   UNL     1       4.638   3.510  15.099  0.00  0.00    +0.000 Cl
ENDBRANCH  15  17
ENDBRANCH  12  14
ENDBRANCH   1  12
BRANCH   3  24
ATOM     24  C   UNL     1       2.160   7.387  18.070  0.00  0.00    +0.000 C 
BRANCH  24  25
ATOM     25  C   UNL     1       1.753   8.331  19.170  0.00  0.00    +0.000 A 
ATOM     26  C   UNL     1       1.732   7.924  20.506  0.00  0.00    +0.000 A 
ATOM     27  C   UNL     1       1.246   8.784  21.487  0.00  0.00    +0.000 A 
ATOM     28  C   UNL     1       0.802  10.036  21.100  0.00  0.00    +0.000 A 
ATOM     29  N   UNL     1       0.827  10.476  19.825  0.00  0.00    +0.000 NA
ATOM     30  C   UNL     1       1.298   9.617  18.890  0.00  0.00    +0.000 A 
ENDBRANCH  24  25
ENDBRANCH   3  24
TORSDOF 5
ENDMDL
MODEL 3
REMARK VINA RESULT:      -8.1      4.287      7.739
REMARK  Name = 
REMARK  5 active torsions:
REMARK  status: ('A' for Active; 'I' for Inactive)
REMARK    1  A    between atoms: C_2  and  C_3
REMARK    2  A    between atoms: C_3  and  N_4
REMARK    3  A    between atoms: C_6  and  C_7
REMARK    4  A    between atoms: C_7  and  C_8
REMARK    5  A    between atoms: N_22  and  C_23
REMARK                            x       y       z     vdW  Elec       q    Type
REMARK                         _______ _______ _______ _____ _____    ______ ____
ROOT
ATOM      1  N   UNL     1       2.072   7.490  19.652  0.00  0.00    +0.000 N 
ATOM      2  N   UNL     1       2.982   7.233  18.660  0.00  0.00    +0.000 NA
ATOM      3  C   UNL     1       3.253   6.003  18.346  0.00  0.00    +0.000 A 
ATOM      4  C   UNL     1       2.657   4.849  19.054  0.00  0.00    +0.000 A 
ATOM      5  C   UNL     1       3.028   3.525  18.806  0.00  0.00    +0.000 A 
ATOM      6  C   UNL     1       2.488   2.491  19.574  0.00  0.00    +0.000 A 
ATOM      7  C   UNL     1       1.551   2.770  20.570  0.00  0.00    +0.000 A 
ATOM      8  C   UNL     1       1.161   4.087  20.805  0.00  0.00    +0.000 A 
ATOM      9  C   UNL     1       1.725   5.124  20.054  0.00  0.00    +0.000 A 
ATOM     10  C   UNL     1       1.381   6.520  20.371  0.00  0.00    +0.000 A 
ATOM     11  O   UNL     1       0.574   6.767  21.251  0.00  0.00    +0.000 OA
ENDROOT
BRANCH   1  12
ATOM     12  C   UNL     1       1.857   8.893  19.968  0.00  0.00    +0.000 C 
BRANCH  12  14
ATOM     13  O   UNL     1       1.469   9.949  17.875  0.00  0.00    +0.000 OA
ATOM     14  C   UNL     1       0.978   9.628  18.959  0.00  0.00    +0.000 C 
ATOM     15  N   UNL     1      -0.331   9.893  19.336  0.00  0.00    +0.000 N 
ATOM     16  H   UNL     1      -0.545   9.831  20.329  0.00  0.00    +0.000 HD
BRANCH  15  17
ATOM     17  C   UNL     1      -1.361  10.337  18.462  0.00  0.00    +0.000 A 
ATOM     18  C   UNL     1      -1.588   9.733  17.226  0.00  0.00    +0.000 A 
ATOM     19  C   UNL     1      -2.627  10.159  16.402  0.00  0.00    +0.000 A 
ATOM     20  C   UNL     1      -3.448  11.174  16.853  0.00  0.00    +0.000 A 
ATOM     21  N   UNL     1      -3.276  11.801  18.036  0.00  0.00    +0.000 NA
ATOM     22  C   UNL     1      -2.236  11.375  18.800  0.00  0.00    +0.000 A 
ATOM     23 CL   UNL     1      -2.030  12.312  20.234  0.00  0.00    +0.000 Cl
ENDBRANCH  15  17
ENDBRANCH  12  14
ENDBRANCH   1  12
BRANCH   3  24
ATOM     24  C   UNL     1       4.270   5.787  17.234  0.00  0.00    +0.000 C 
BRANCH  24  25
ATOM     25  C   UNL     1       5.681   6.162  17.602  0.00  0.00    +0.000 A 
ATOM     26  C   UNL     1       6.373   5.488  18.612  0.00  0.00    +0.000 A 
ATOM     27  C   UNL     1       7.634   5.929  19.004  0.00  0.00    +0.000 A 
ATOM     28  C   UNL     1       8.171   7.032  18.365  0.00  0.00    +0.000 A 
ATOM     29  N   UNL     1       7.547   7.696  17.369  0.00  0.00    +0.000 NA
ATOM     30  C   UNL     1       6.319   7.251  17.012  0.00  0.00    +0.000 A 
ENDBRANCH  24  25
ENDBRANCH   3  24
TORSDOF 5
ENDMDL
MODEL 4
REMARK VINA RESULT:      -8.1      4.035      7.536
REMARK  Name = 
REMARK  5 active torsions:
REMARK  status: ('A' for Active; 'I' for Inactive)
REMARK    1  A    between atoms: C_2  and  C_3
REMARK    2  A    between atoms: C_3  and  N_4
REMARK    3  A    between atoms: C_6  and  C_7
REMARK    4  A    between atoms: C_7  and  C_8
REMARK    5  A    between atoms: N_22  and  C_23
REMARK                            x       y       z     vdW  Elec       q    Type
REMARK                         _______ _______ _______ _____ _____    ______ ____
ROOT
ATOM      1  N   UNL     1       2.195   6.552  19.938  0.00  0.00    +0.000 N 
ATOM      2  N   UNL     1       3.085   6.830  18.933  0.00  0.00    +0.000 NA
ATOM      3  C   UNL     1       3.375   5.908  18.066  0.00  0.00    +0.000 A 
ATOM      4  C   UNL     1       2.821   4.539  18.142  0.00  0.00    +0.000 A 
ATOM      5  C   UNL     1       3.215   3.507  17.286  0.00  0.00    +0.000 A 
ATOM      6  C   UNL     1       2.716   2.215  17.471  0.00  0.00    +0.000 A 
ATOM      7  C   UNL     1       1.798   1.955  18.490  0.00  0.00    +0.000 A 
ATOM      8  C   UNL     1       1.386   2.986  19.331  0.00  0.00    +0.000 A 
ATOM      9  C   UNL     1       1.909   4.273  19.162  0.00  0.00    +0.000 A 
ATOM     10  C   UNL     1       1.542   5.336  20.112  0.00  0.00    +0.000 A 
ATOM     11  O   UNL     1       0.753   5.107  21.013  0.00  0.00    +0.000 OA
ENDROOT
BRANCH   1  12
ATOM     12  C   UNL     1       1.958   7.626  20.889  0.00  0.00    +0.000 C 
BRANCH  12  14
ATOM     13  O   UNL     1      -0.189   8.572  21.262  0.00  0.00    +0.000 OA
ATOM     14  C   UNL     1       0.792   8.538  20.517  0.00  0.00    +0.000 C 
ATOM     15  N   UNL     1       0.914   9.275  19.347  0.00  0.00    +0.000 N 
ATOM     16  H   UNL     1       1.624   8.973  18.684  0.00  0.00    +0.000 HD
BRANCH  15  17
ATOM     17  C   UNL     1       0.063  10.348  18.962  0.00  0.00    +0.000 A 
ATOM     18  C   UNL     1      -0.990  10.166  18.066  0.00  0.00    +0.000 A 
ATOM     19  C   UNL     1      -1.834  11.222  17.732  0.00  0.00    +0.000 A 
ATOM     20  C   UNL     1      -1.624  12.447  18.334  0.00  0.00    +0.000 A 
ATOM     21  N   UNL     1      -0.619  12.686  19.204  0.00  0.00    +0.000 NA
ATOM     22  C   UNL     1       0.200  11.638  19.485  0.00  0.00    +0.000 A 
ATOM     23 CL   UNL     1       1.515  12.072  20.513  0.00  0.00    +0.000 Cl
ENDBRANCH  15  17
ENDBRANCH  12  14
ENDBRANCH   1  12
BRANCH   3  24
ATOM     24  C   UNL     1       4.368   6.281  16.975  0.00  0.00    +0.000 C 
BRANCH  24  25
ATOM     25  C   UNL     1       5.775   6.504  17.465  0.00  0.00    +0.000 A 
ATOM     26  C   UNL     1       6.358   5.656  18.410  0.00  0.00    +0.000 A 
ATOM     27  C   UNL     1       7.617   5.951  18.926  0.00  0.00    +0.000 A 
ATOM     28  C   UNL     1       8.261   7.087  18.471  0.00  0.00    +0.000 A 
ATOM     29  N   UNL     1       7.744   7.919  17.542  0.00  0.00    +0.000 NA
ATOM     30  C   UNL     1       6.516   7.613  17.063  0.00  0.00    +0.000 A 
ENDBRANCH  24  25
ENDBRANCH   3  24
TORSDOF 5
ENDMDL
MODEL 5
REMARK VINA RESULT:      -8.1      4.758      7.983
REMARK  Name = 
REMARK  5 active torsions:
REMARK  status: ('A' for Active; 'I' for Inactive)
REMARK    1  A    between atoms: C_2  and  C_3
REMARK    2  A    between atoms: C_3  and  N_4
REMARK    3  A    between atoms: C_6  and  C_7
REMARK    4  A    between atoms: C_7  and  C_8
REMARK    5  A    between atoms: N_22  and  C_23
REMARK                            x       y       z     vdW  Elec       q    Type
REMARK                         _______ _______ _______ _____ _____    ______ ____
ROOT
ATOM      1  N   UNL     1       0.341  10.330  21.541  0.00  0.00    +0.000 N 
ATOM      2  N   UNL     1       0.135  10.822  20.279  0.00  0.00    +0.000 NA
ATOM      3  C   UNL     1      -0.841  11.652  20.070  0.00  0.00    +0.000 A 
ATOM      4  C   UNL     1      -1.785  12.059  21.134  0.00  0.00    +0.000 A 
ATOM      5  C   UNL     1      -2.907  12.857  20.896  0.00  0.00    +0.000 A 
ATOM      6  C   UNL     1      -3.805  13.128  21.932  0.00  0.00    +0.000 A 
ATOM      7  C   UNL     1      -3.570  12.632  23.215  0.00  0.00    +0.000 A 
ATOM      8  C   UNL     1      -2.441  11.854  23.460  0.00  0.00    +0.000 A 
ATOM      9  C   UNL     1      -1.558  11.559  22.415  0.00  0.00    +0.000 A 
ATOM     10  C   UNL     1      -0.418  10.659  22.660  0.00  0.00    +0.000 A 
ATOM     11  O   UNL     1      -0.220  10.211  23.776  0.00  0.00    +0.000 OA
ENDROOT
BRANCH   1  12
ATOM     12  C   UNL     1       1.429   9.376  21.680  0.00  0.00    +0.000 C 
BRANCH  12  14
ATOM     13  O   UNL     1      -0.081   7.608  21.191  0.00  0.00    +0.000 OA
ATOM     14  C   UNL     1       1.094   7.975  21.172  0.00  0.00    +0.000 C 
ATOM     15  N   UNL     1       2.151   7.198  20.719  0.00  0.00    +0.000 N 
ATOM     16  H   UNL     1       3.087   7.487  20.996  0.00  0.00    +0.000 HD
BRANCH  15  17
ATOM     17  C   UNL     1       2.022   5.984  19.990  0.00  0.00    +0.000 A 
ATOM     18  C   UNL     1       1.502   4.829  20.571  0.00  0.00    +0.000 A 
ATOM     19  C   UNL     1       1.348   3.661  19.828  0.00  0.00    +0.000 A 
ATOM     20  C   UNL     1       1.694   3.683  18.492  0.00  0.00    +0.000 A 
ATOM     21  N   UNL     1       2.208   4.768  17.874  0.00  0.00    +0.000 NA
ATOM     22  C   UNL     1       2.368   5.880  18.638  0.00  0.00    +0.000 A 
ATOM     23 CL   UNL     1       3.135   7.172  17.790  0.00  0.00    +0.000 Cl
ENDBRANCH  15  17
ENDBRANCH  12  14
ENDBRANCH   1  12
BRANCH   3  24
ATOM     24  C   UNL     1      -1.014  12.163  18.647  0.00  0.00    +0.000 C 
BRANCH  24  25
ATOM     25  C   UNL     1      -1.981  11.364  17.813  0.00  0.00    +0.000 A 
ATOM     26  C   UNL     1      -1.568  10.231  17.109  0.00  0.00    +0.000 A 
ATOM     27  C   UNL     1      -2.459   9.578  16.259  0.00  0.00    +0.000 A 
ATOM     28  C   UNL     1      -3.743  10.078  16.148  0.00  0.00    +0.000 A 
ATOM     29  N   UNL     1      -4.189  11.154  16.828  0.00  0.00    +0.000 NA
ATOM     30  C   UNL     1      -3.301  11.775  17.641  0.00  0.00    +0.000 A 
ENDBRANCH  24  25
ENDBRANCH   3  24
TORSDOF 5
ENDMDL
MODEL 6
REMARK VINA RESULT:      -8.0      7.700     11.737
REMARK  Name = 
REMARK  5 active torsions:
REMARK  status: ('A' for Active; 'I' for Inactive)
REMARK    1  A    between atoms: C_2  and  C_3
REMARK    2  A    between atoms: C_3  and  N_4
REMARK    3  A    between atoms: C_6  and  C_7
REMARK    4  A    between atoms: C_7  and  C_8
REMARK    5  A    between atoms: N_22  and  C_23
REMARK                            x       y       z     vdW  Elec       q    Type
REMARK                         _______ _______ _______ _____ _____    ______ ____
ROOT
ATOM      1  N   UNL     1      -1.013  11.523  22.032  0.00  0.00    +0.000 N 
ATOM      2  N   UNL     1      -1.208  12.002  20.763  0.00  0.00    +0.000 NA
ATOM      3  C   UNL     1      -0.688  11.370  19.756  0.00  0.00    +0.000 A 
ATOM      4  C   UNL     1       0.159  10.168  19.919  0.00  0.00    +0.000 A 
ATOM      5  C   UNL     1       0.820   9.548  18.856  0.00  0.00    +0.000 A 
ATOM      6  C   UNL     1       1.676   8.470  19.096  0.00  0.00    +0.000 A 
ATOM      7  C   UNL     1       1.850   7.986  20.393  0.00  0.00    +0.000 A 
ATOM      8  C   UNL     1       1.176   8.587  21.453  0.00  0.00    +0.000 A 
ATOM      9  C   UNL     1       0.342   9.685  21.214  0.00  0.00    +0.000 A 
ATOM     10  C   UNL     1      -0.294  10.375  22.350  0.00  0.00    +0.000 A 
ATOM     11  O   UNL     1      -0.130   9.964  23.486  0.00  0.00    +0.000 OA
ENDROOT
BRANCH   1  12
ATOM     12  C   UNL     1      -1.595  12.313  23.104  0.00  0.00    +0.000 C 
BRANCH  12  14
ATOM     13  O   UNL     1      -3.724  11.886  24.067  0.00  0.00    +0.000 OA
ATOM     14  C   UNL     1      -3.121  12.343  23.095  0.00  0.00    +0.000 C 
ATOM     15  N   UNL     1      -3.736  12.888  21.976  0.00  0.00    +0.000 N 
ATOM     16  H   UNL     1      -3.167  12.981  21.138  0.00  0.00    +0.000 HD
BRANCH  15  17
ATOM     17  C   UNL     1      -5.113  13.228  21.882  0.00  0.00    +0.000 A 
ATOM     18  C   UNL     1      -6.049  12.361  21.319  0.00  0.00    +0.000 A 
ATOM     19  C   UNL     1      -7.399  12.698  21.271  0.00  0.00    +0.000 A 
ATOM     20  C   UNL     1      -7.795  13.900  21.825  0.00  0.00    +0.000 A 
ATOM     21  N   UNL     1      -6.937  14.783  22.379  0.00  0.00    +0.000 NA
ATOM     22  C   UNL     1      -5.625  14.430  22.382  0.00  0.00    +0.000 A 
ATOM     23 CL   UNL     1      -4.599  15.670  23.005  0.00  0.00    +0.000 Cl
ENDBRANCH  15  17
ENDBRANCH  12  14
ENDBRANCH   1  12
BRANCH   3  24
ATOM     24  C   UNL     1      -0.944  11.952  18.373  0.00  0.00    +0.000 C 
BRANCH  24  25
ATOM     25  C   UNL     1      -2.283  11.592  17.787  0.00  0.00    +0.000 A 
ATOM     26  C   UNL     1      -2.396  11.089  16.488  0.00  0.00    +0.000 A 
ATOM     27  C   UNL     1      -3.655  10.870  15.934  0.00  0.00    +0.000 A 
ATOM     28  C   UNL     1      -4.768  11.154  16.704  0.00  0.00    +0.000 A 
ATOM     29  N   UNL     1      -4.703  11.618  17.970  0.00  0.00    +0.000 NA
ATOM     30  C   UNL     1      -3.467  11.829  18.481  0.00  0.00    +0.000 A 
ENDBRANCH  24  25
ENDBRANCH   3  24
TORSDOF 5
ENDMDL
MODEL 7
REMARK VINA RESULT:      -7.9      3.338      7.985
REMARK  Name = 
REMARK  5 active torsions:
REMARK  status: ('A' for Active; 'I' for Inactive)
REMARK    1  A    between atoms: C_2  and  C_3
REMARK    2  A    between atoms: C_3  and  N_4
REMARK    3  A    between atoms: C_6  and  C_7
REMARK    4  A    between atoms: C_7  and  C_8
REMARK    5  A    between atoms: N_22  and  C_23
REMARK                            x       y       z     vdW  Elec       q    Type
REMARK                         _______ _______ _______ _____ _____    ______ ____
ROOT
ATOM      1  N   UNL     1       2.858   6.921  18.378  0.00  0.00    +0.000 N 
ATOM      2  N   UNL     1       3.349   6.008  17.482  0.00  0.00    +0.000 NA
ATOM      3  C   UNL     1       3.342   4.747  17.788  0.00  0.00    +0.000 A 
ATOM      4  C   UNL     1       2.869   4.246  19.097  0.00  0.00    +0.000 A 
ATOM      5  C   UNL     1       2.966   2.906  19.482  0.00  0.00    +0.000 A 
ATOM      6  C   UNL     1       2.581   2.519  20.768  0.00  0.00    +0.000 A 
ATOM      7  C   UNL     1       2.069   3.459  21.663  0.00  0.00    +0.000 A 
ATOM      8  C   UNL     1       1.951   4.792  21.274  0.00  0.00    +0.000 A 
ATOM      9  C   UNL     1       2.363   5.183  19.996  0.00  0.00    +0.000 A 
ATOM     10  C   UNL     1       2.324   6.608  19.624  0.00  0.00    +0.000 A 
ATOM     11  O   UNL     1       1.892   7.434  20.410  0.00  0.00    +0.000 OA
ENDROOT
BRANCH   1  12
ATOM     12  C   UNL     1       2.941   8.315  17.974  0.00  0.00    +0.000 C 
BRANCH  12  14
ATOM     13  O   UNL     1       0.652   8.629  17.419  0.00  0.00    +0.000 OA
ATOM     14  C   UNL     1       1.613   9.064  18.055  0.00  0.00    +0.000 C 
ATOM     15  N   UNL     1       1.577  10.203  18.848  0.00  0.00    +0.000 N 
ATOM     16  H   UNL     1       2.472  10.616  19.101  0.00  0.00    +0.000 HD
BRANCH  15  17
ATOM     17  C   UNL     1       0.396  10.887  19.245  0.00  0.00    +0.000 A 
ATOM     18  C   UNL     1      -0.362  11.631  18.342  0.00  0.00    +0.000 A 
ATOM     19  C   UNL     1      -1.537  12.262  18.744  0.00  0.00    +0.000 A 
ATOM     20  C   UNL     1      -1.950  12.108  20.053  0.00  0.00    +0.000 A 
ATOM     21  N   UNL     1      -1.257  11.406  20.974  0.00  0.00    +0.000 NA
ATOM     22  C   UNL     1      -0.103  10.827  20.551  0.00  0.00    +0.000 A 
ATOM     23 CL   UNL     1       0.765  10.053  21.825  0.00  0.00    +0.000 Cl
ENDBRANCH  15  17
ENDBRANCH  12  14
ENDBRANCH   1  12
BRANCH   3  24
ATOM     24  C   UNL     1       3.898   3.785  16.747  0.00  0.00    +0.000 C 
BRANCH  24  25
ATOM     25  C   UNL     1       5.173   4.248  16.093  0.00  0.00    +0.000 A 
ATOM     26  C   UNL     1       5.272   4.380  14.705  0.00  0.00    +0.000 A 
ATOM     27  C   UNL     1       6.495   4.702  14.123  0.00  0.00    +0.000 A 
ATOM     28  C   UNL     1       7.586   4.892  14.952  0.00  0.00    +0.000 A 
ATOM     29  N   UNL     1       7.528   4.799  16.297  0.00  0.00    +0.000 NA
ATOM     30  C   UNL     1       6.329   4.477  16.837  0.00  0.00    +0.000 A 
ENDBRANCH  24  25
ENDBRANCH   3  24
TORSDOF 5
ENDMDL
MODEL 8
REMARK VINA RESULT:      -7.9      9.024     12.504
REMARK  Name = 
REMARK  5 active torsions:
REMARK  status: ('A' for Active; 'I' for Inactive)
REMARK    1  A    between atoms: C_2  and  C_3
REMARK    2  A    between atoms: C_3  and  N_4
REMARK    3  A    between atoms: C_6  and  C_7
REMARK    4  A    between atoms: C_7  and  C_8
REMARK    5  A    between atoms: N_22  and  C_23
REMARK                            x       y       z     vdW  Elec       q    Type
REMARK                         _______ _______ _______ _____ _____    ______ ____
ROOT
ATOM      1  N   UNL     1      -4.481  12.505  20.043  0.00  0.00    +0.000 N 
ATOM      2  N   UNL     1      -3.139  12.415  20.304  0.00  0.00    +0.000 NA
ATOM      3  C   UNL     1      -2.337  11.984  19.378  0.00  0.00    +0.000 A 
ATOM      4  C   UNL     1      -2.816  11.534  18.053  0.00  0.00    +0.000 A 
ATOM      5  C   UNL     1      -1.980  10.961  17.091  0.00  0.00    +0.000 A 
ATOM      6  C   UNL     1      -2.517  10.476  15.896  0.00  0.00    +0.000 A 
ATOM      7  C   UNL     1      -3.884  10.592  15.641  0.00  0.00    +0.000 A 
ATOM      8  C   UNL     1      -4.718  11.183  16.588  0.00  0.00    +0.000 A 
ATOM      9  C   UNL     1      -4.183  11.642  17.797  0.00  0.00    +0.000 A 
ATOM     10  C   UNL     1      -5.082  12.179  18.832  0.00  0.00    +0.000 A 
ATOM     11  O   UNL     1      -6.279  12.266  18.617  0.00  0.00    +0.000 OA
ENDROOT
BRANCH   1  12
ATOM     12  C   UNL     1      -5.312  12.956  21.147  0.00  0.00    +0.000 C 
BRANCH  12  14
ATOM     13  O   UNL     1      -4.489  12.374  23.298  0.00  0.00    +0.000 OA
ATOM     14  C   UNL     1      -4.536  13.246  22.430  0.00  0.00    +0.000 C 
ATOM     15  N   UNL     1      -3.931  14.491  22.535  0.00  0.00    +0.000 N 
ATOM     16  H   UNL     1      -4.255  15.215  21.898  0.00  0.00    +0.000 HD
BRANCH  15  17
ATOM     17  C   UNL     1      -2.975  14.856  23.522  0.00  0.00    +0.000 A 
ATOM     18  C   UNL     1      -3.329  15.033  24.859  0.00  0.00    +0.000 A 
ATOM     19  C   UNL     1      -2.370  15.354  25.817  0.00  0.00    +0.000 A 
ATOM     20  C   UNL     1      -1.053  15.460  25.416  0.00  0.00    +0.000 A 
ATOM     21  N   UNL     1      -0.649  15.305  24.137  0.00  0.00    +0.000 NA
ATOM     22  C   UNL     1      -1.617  15.020  23.228  0.00  0.00    +0.000 A 
ATOM     23 CL   UNL     1      -1.020  14.955  21.611  0.00  0.00    +0.000 Cl
ENDBRANCH  15  17
ENDBRANCH  12  14
ENDBRANCH   1  12
BRANCH   3  24
ATOM     24  C   UNL     1      -0.858  11.910  19.731  0.00  0.00    +0.000 C 
BRANCH  24  25
ATOM     25  C   UNL     1      -0.538  10.982  20.872  0.00  0.00    +0.000 A 
ATOM     26  C   UNL     1      -0.317   9.618  20.660  0.00  0.00    +0.000 A 
ATOM     27  C   UNL     1      -0.134   8.767  21.746  0.00  0.00    +0.000 A 
ATOM     28  C   UNL     1      -0.169   9.309  23.018  0.00  0.00    +0.000 A 
ATOM     29  N   UNL     1      -0.355  10.623  23.265  0.00  0.00    +0.000 NA
ATOM     30  C   UNL     1      -0.538  11.427  22.192  0.00  0.00    +0.000 A 
ENDBRANCH  24  25
ENDBRANCH   3  24
TORSDOF 5
ENDMDL
MODEL 9
REMARK VINA RESULT:      -7.9      4.806      7.984
REMARK  Name = 
REMARK  5 active torsions:
REMARK  status: ('A' for Active; 'I' for Inactive)
REMARK    1  A    between atoms: C_2  and  C_3
REMARK    2  A    between atoms: C_3  and  N_4
REMARK    3  A    between atoms: C_6  and  C_7
REMARK    4  A    between atoms: C_7  and  C_8
REMARK    5  A    between atoms: N_22  and  C_23
REMARK                            x       y       z     vdW  Elec       q    Type
REMARK                         _______ _______ _______ _____ _____    ______ ____
ROOT
ATOM      1  N   UNL     1       0.465  10.316  21.577  0.00  0.00    +0.000 N 
ATOM      2  N   UNL     1       0.475  10.907  20.340  0.00  0.00    +0.000 NA
ATOM      3  C   UNL     1      -0.404  11.821  20.063  0.00  0.00    +0.000 A 
ATOM      4  C   UNL     1      -1.462  12.226  21.015  0.00  0.00    +0.000 A 
ATOM      5  C   UNL     1      -2.483  13.122  20.687  0.00  0.00    +0.000 A 
ATOM      6  C   UNL     1      -3.500  13.390  21.606  0.00  0.00    +0.000 A 
ATOM      7  C   UNL     1      -3.485  12.792  22.867  0.00  0.00    +0.000 A 
ATOM      8  C   UNL     1      -2.456  11.916  23.205  0.00  0.00    +0.000 A 
ATOM      9  C   UNL     1      -1.454  11.625  22.273  0.00  0.00    +0.000 A 
ATOM     10  C   UNL     1      -0.423  10.626  22.602  0.00  0.00    +0.000 A 
ATOM     11  O   UNL     1      -0.418  10.090  23.697  0.00  0.00    +0.000 OA
ENDROOT
BRANCH   1  12
ATOM     12  C   UNL     1       1.456   9.275  21.790  0.00  0.00    +0.000 C 
BRANCH  12  14
ATOM     13  O   UNL     1      -0.132   7.636  21.128  0.00  0.00    +0.000 OA
ATOM     14  C   UNL     1       1.065   7.917  21.210  0.00  0.00    +0.000 C 
ATOM     15  N   UNL     1       2.096   7.079  20.811  0.00  0.00    +0.000 N 
ATOM     16  H   UNL     1       3.025   7.291  21.167  0.00  0.00    +0.000 HD
BRANCH  15  17
ATOM     17  C   UNL     1       1.939   5.900  20.033  0.00  0.00    +0.000 A 
ATOM     18  C   UNL     1       1.397   4.732  20.568  0.00  0.00    +0.000 A 
ATOM     19  C   UNL     1       1.216   3.600  19.778  0.00  0.00    +0.000 A 
ATOM     20  C   UNL     1       1.558   3.670  18.442  0.00  0.00    +0.000 A 
ATOM     21  N   UNL     1       2.092   4.769  17.867  0.00  0.00    +0.000 NA
ATOM     22  C   UNL     1       2.277   5.845  18.676  0.00  0.00    +0.000 A 
ATOM     23 CL   UNL     1       3.068   7.155  17.880  0.00  0.00    +0.000 Cl
ENDBRANCH  15  17
ENDBRANCH  12  14
ENDBRANCH   1  12
BRANCH   3  24
ATOM     24  C   UNL     1      -0.337  12.438  18.673  0.00  0.00    +0.000 C 
BRANCH  24  25
ATOM     25  C   UNL     1       0.663  13.556  18.539  0.00  0.00    +0.000 A 
ATOM     26  C   UNL     1       1.987  13.306  18.170  0.00  0.00    +0.000 A 
ATOM     27  C   UNL     1       2.914  14.345  18.162  0.00  0.00    +0.000 A 
ATOM     28  C   UNL     1       2.483  15.611  18.517  0.00  0.00    +0.000 A 
ATOM     29  N   UNL     1       1.210  15.899  18.856  0.00  0.00    +0.000 NA
ATOM     30  C   UNL     1       0.330  14.870  18.863  0.00  0.00    +0.000 A 
ENDBRANCH  24  25
ENDBRANCH   3  24
TORSDOF 5
ENDMDL
