MODEL 1
REMARK VINA RESULT:      -7.6      0.000      0.000
REMARK  Name = 
REMARK  5 active torsions:
REMARK  status: ('A' for Active; 'I' for Inactive)
REMARK    1  A    between atoms: C_1  and  C_2
REMARK    2  A    between atoms: C_2  and  O_3
REMARK    3  A    between atoms: O_3  and  C_4
REMARK    4  A    between atoms: C_4  and  C_6
REMARK    5  A    between atoms: C_6  and  N_7
REMARK                            x       y       z     vdW  Elec       q    Type
REMARK                         _______ _______ _______ _____ _____    ______ ____
ROOT
ATOM      1  N   UNL     1       5.520   3.912  14.225  0.00  0.00    +0.000 N 
ATOM      2  C   UNL     1       5.981   4.671  15.283  0.00  0.00    +0.000 C 
ATOM      3  N   UNL     1       7.049   5.389  15.062  0.00  0.00    +0.000 NA
ATOM      4  N   UNL     1       7.684   6.162  16.083  0.00  0.00    +0.000 N 
ATOM      5  S   UNL     1       6.967   6.519  17.560  0.00  0.00    +0.000 S 
ATOM      6  O   UNL     1       6.449   7.874  17.468  0.00  0.00    +0.000 OA
ATOM      7  O   UNL     1       7.897   6.137  18.603  0.00  0.00    +0.000 OA
ATOM      8  C   UNL     1       5.598   5.445  17.658  0.00  0.00    +0.000 A 
ATOM      9  C   UNL     1       4.902   5.408  18.881  0.00  0.00    +0.000 A 
ATOM     10  C   UNL     1       3.812   4.561  19.034  0.00  0.00    +0.000 A 
ATOM     11  C   UNL     1       3.415   3.762  17.970  0.00  0.00    +0.000 A 
ATOM     12  C   UNL     1       4.117   3.802  16.758  0.00  0.00    +0.000 A 
ATOM     13  C   UNL     1       5.236   4.640  16.586  0.00  0.00    +0.000 A 
ATOM     14  H   UNL     1       4.837   3.173  14.366  0.00  0.00    +0.000 HD
ATOM     15  H   UNL     1       8.162   6.987  15.713  0.00  0.00    +0.000 HD
ENDROOT
BRANCH   1  16
ATOM     16  C   UNL     1       6.290   3.731  12.994  0.00  0.00    +0.000 C 
BRANCH  16  17
ATOM     17  C   UNL     1       5.459   2.981  11.968  0.00  0.00    +0.000 C 
ATOM     18  O   UNL     1       5.756   1.882  11.513  0.00  0.00    +0.000 OA
BRANCH  17  19
ATOM     19  O   UNL     1       4.423   3.762  11.552  0.00  0.00    +0.000 OA
BRANCH  19  21
ATOM     20  C   UNL     1       2.974   4.122   9.694  0.00  0.00    +0.000 C 
ATOM     21  C   UNL     1       3.465   3.106  10.709  0.00  0.00    +0.000 C 
ENDBRANCH  19  21
ENDBRANCH  17  19
ENDBRANCH  16  17
ENDBRANCH   1  16
TORSDOF 4
ENDMDL
MODEL 2
REMARK VINA RESULT:      -7.4      3.496      5.777
REMARK  Name = 
REMARK  5 active torsions:
REMARK  status: ('A' for Active; 'I' for Inactive)
REMARK    1  A    between atoms: C_1  and  C_2
REMARK    2  A    between atoms: C_2  and  O_3
REMARK    3  A    between atoms: O_3  and  C_4
REMARK    4  A    between atoms: C_4  and  C_6
REMARK    5  A    between atoms: C_6  and  N_7
REMARK                            x       y       z     vdW  Elec       q    Type
REMARK                         _______ _______ _______ _____ _____    ______ ____
ROOT
ATOM      1  N   UNL     1       3.507   2.856  17.534  0.00  0.00    +0.000 N 
ATOM      2  C   UNL     1       4.628   3.641  17.717  0.00  0.00    +0.000 C 
ATOM      3  N   UNL     1       4.922   3.956  18.951  0.00  0.00    +0.000 NA
ATOM      4  N   UNL     1       6.006   4.825  19.286  0.00  0.00    +0.000 N 
ATOM      5  S   UNL     1       7.219   5.259  18.208  0.00  0.00    +0.000 S 
ATOM      6  O   UNL     1       8.373   4.425  18.502  0.00  0.00    +0.000 OA
ATOM      7  O   UNL     1       7.313   6.704  18.213  0.00  0.00    +0.000 OA
ATOM      8  C   UNL     1       6.615   4.777  16.646  0.00  0.00    +0.000 A 
ATOM      9  C   UNL     1       7.362   5.177  15.522  0.00  0.00    +0.000 A 
ATOM     10  C   UNL     1       6.928   4.842  14.245  0.00  0.00    +0.000 A 
ATOM     11  C   UNL     1       5.759   4.107  14.094  0.00  0.00    +0.000 A 
ATOM     12  C   UNL     1       5.020   3.718  15.218  0.00  0.00    +0.000 A 
ATOM     13  C   UNL     1       5.431   4.062  16.521  0.00  0.00    +0.000 A 
ATOM     14  H   UNL     1       3.088   2.743  16.615  0.00  0.00    +0.000 HD
ATOM     15  H   UNL     1       6.406   4.618  20.205  0.00  0.00    +0.000 HD
ENDROOT
BRANCH   1  16
ATOM     16  C   UNL     1       2.564   2.569  18.616  0.00  0.00    +0.000 C 
BRANCH  16  17
ATOM     17  C   UNL     1       1.353   3.480  18.503  0.00  0.00    +0.000 C 
ATOM     18  O   UNL     1       1.011   4.045  17.470  0.00  0.00    +0.000 OA
BRANCH  17  19
ATOM     19  O   UNL     1       0.797   3.663  19.733  0.00  0.00    +0.000 OA
BRANCH  19  21
ATOM     20  C   UNL     1       1.810   5.651  20.574  0.00  0.00    +0.000 C 
ATOM     21  C   UNL     1       1.695   4.147  20.742  0.00  0.00    +0.000 C 
ENDBRANCH  19  21
ENDBRANCH  17  19
ENDBRANCH  16  17
ENDBRANCH   1  16
TORSDOF 4
ENDMDL
MODEL 3
REMARK VINA RESULT:      -7.4      3.862      5.814
REMARK  Name = 
REMARK  5 active torsions:
REMARK  status: ('A' for Active; 'I' for Inactive)
REMARK    1  A    between atoms: C_1  and  C_2
REMARK    2  A    between atoms: C_2  and  O_3
REMARK    3  A    between atoms: O_3  and  C_4
REMARK    4  A    between atoms: C_4  and  C_6
REMARK    5  A    between atoms: C_6  and  N_7
REMARK                            x       y       z     vdW  Elec       q    Type
REMARK                         _______ _______ _______ _____ _____    ______ ____
ROOT
ATOM      1  N   UNL     1       4.423   3.039  18.703  0.00  0.00    +0.000 N 
ATOM      2  C   UNL     1       4.923   3.828  17.686  0.00  0.00    +0.000 C 
ATOM      3  N   UNL     1       4.402   3.651  16.501  0.00  0.00    +0.000 NA
ATOM      4  N   UNL     1       4.873   4.339  15.341  0.00  0.00    +0.000 N 
ATOM      5  S   UNL     1       5.884   5.680  15.401  0.00  0.00    +0.000 S 
ATOM      6  O   UNL     1       5.049   6.855  15.221  0.00  0.00    +0.000 OA
ATOM      7  O   UNL     1       7.012   5.417  14.531  0.00  0.00    +0.000 OA
ATOM      8  C   UNL     1       6.479   5.711  17.038  0.00  0.00    +0.000 A 
ATOM      9  C   UNL     1       7.492   6.644  17.331  0.00  0.00    +0.000 A 
ATOM     10  C   UNL     1       8.024   6.711  18.613  0.00  0.00    +0.000 A 
ATOM     11  C   UNL     1       7.543   5.856  19.596  0.00  0.00    +0.000 A 
ATOM     12  C   UNL     1       6.539   4.928  19.293  0.00  0.00    +0.000 A 
ATOM     13  C   UNL     1       5.997   4.830  17.997  0.00  0.00    +0.000 A 
ATOM     14  H   UNL     1       4.906   2.958  19.593  0.00  0.00    +0.000 HD
ATOM     15  H   UNL     1       4.139   4.480  14.642  0.00  0.00    +0.000 HD
ENDROOT
BRANCH   1  16
ATOM     16  C   UNL     1       3.524   1.911  18.451  0.00  0.00    +0.000 C 
BRANCH  16  17
ATOM     17  C   UNL     1       2.120   2.252  18.920  0.00  0.00    +0.000 C 
ATOM     18  O   UNL     1       1.178   2.472  18.167  0.00  0.00    +0.000 OA
BRANCH  17  19
ATOM     19  O   UNL     1       2.107   2.395  20.275  0.00  0.00    +0.000 OA
BRANCH  19  21
ATOM     20  C   UNL     1       2.013   4.707  20.847  0.00  0.00    +0.000 C 
ATOM     21  C   UNL     1       1.226   3.411  20.773  0.00  0.00    +0.000 C 
ENDBRANCH  19  21
ENDBRANCH  17  19
ENDBRANCH  16  17
ENDBRANCH   1  16
TORSDOF 4
ENDMDL
MODEL 4
REMARK VINA RESULT:      -7.4      3.781      5.293
REMARK  Name = 
REMARK  5 active torsions:
REMARK  status: ('A' for Active; 'I' for Inactive)
REMARK    1  A    between atoms: C_1  and  C_2
REMARK    2  A    between atoms: C_2  and  O_3
REMARK    3  A    between atoms: O_3  and  C_4
REMARK    4  A    between atoms: C_4  and  C_6
REMARK    5  A    between atoms: C_6  and  N_7
REMARK                            x       y       z     vdW  Elec       q    Type
REMARK                         _______ _______ _______ _____ _____    ______ ____
ROOT
ATOM      1  N   UNL     1       5.934   5.280  18.548  0.00  0.00    +0.000 N 
ATOM      2  C   UNL     1       4.953   4.474  19.090  0.00  0.00    +0.000 C 
ATOM      3  N   UNL     1       5.224   3.198  19.165  0.00  0.00    +0.000 NA
ATOM      4  N   UNL     1       4.276   2.235  19.631  0.00  0.00    +0.000 N 
ATOM      5  S   UNL     1       2.864   2.638  20.447  0.00  0.00    +0.000 S 
ATOM      6  O   UNL     1       3.112   2.430  21.863  0.00  0.00    +0.000 OA
ATOM      7  O   UNL     1       1.764   1.981  19.770  0.00  0.00    +0.000 OA
ATOM      8  C   UNL     1       2.684   4.354  20.197  0.00  0.00    +0.000 A 
ATOM      9  C   UNL     1       1.482   4.940  20.634  0.00  0.00    +0.000 A 
ATOM     10  C   UNL     1       1.265   6.299  20.451  0.00  0.00    +0.000 A 
ATOM     11  C   UNL     1       2.247   7.070  19.841  0.00  0.00    +0.000 A 
ATOM     12  C   UNL     1       3.439   6.477  19.405  0.00  0.00    +0.000 A 
ATOM     13  C   UNL     1       3.672   5.097  19.565  0.00  0.00    +0.000 A 
ATOM     14  H   UNL     1       5.732   6.232  18.257  0.00  0.00    +0.000 HD
ATOM     15  H   UNL     1       4.721   1.426  20.072  0.00  0.00    +0.000 HD
ENDROOT
BRANCH   1  16
ATOM     16  C   UNL     1       7.120   4.735  17.885  0.00  0.00    +0.000 C 
BRANCH  16  17
ATOM     17  C   UNL     1       7.403   5.511  16.609  0.00  0.00    +0.000 C 
ATOM     18  O   UNL     1       7.459   6.734  16.546  0.00  0.00    +0.000 OA
BRANCH  17  19
ATOM     19  O   UNL     1       7.457   4.654  15.551  0.00  0.00    +0.000 OA
BRANCH  19  21
ATOM     20  C   UNL     1       6.085   3.915  13.748  0.00  0.00    +0.000 C 
ATOM     21  C   UNL     1       6.232   3.970  15.257  0.00  0.00    +0.000 C 
ENDBRANCH  19  21
ENDBRANCH  17  19
ENDBRANCH  16  17
ENDBRANCH   1  16
TORSDOF 4
ENDMDL
MODEL 5
REMARK VINA RESULT:      -7.3      3.542      5.910
REMARK  Name = 
REMARK  5 active torsions:
REMARK  status: ('A' for Active; 'I' for Inactive)
REMARK    1  A    between atoms: C_1  and  C_2
REMARK    2  A    between atoms: C_2  and  O_3
REMARK    3  A    between atoms: O_3  and  C_4
REMARK    4  A    between atoms: C_4  and  C_6
REMARK    5  A    between atoms: C_6  and  N_7
REMARK                            x       y       z     vdW  Elec       q    Type
REMARK                         _______ _______ _______ _____ _____    ______ ____
ROOT
ATOM      1  N   UNL     1       2.957   3.999  17.358  0.00  0.00    +0.000 N 
ATOM      2  C   UNL     1       4.224   4.510  17.562  0.00  0.00    +0.000 C 
ATOM      3  N   UNL     1       4.503   4.905  18.775  0.00  0.00    +0.000 NA
ATOM      4  N   UNL     1       5.744   5.525  19.117  0.00  0.00    +0.000 N 
ATOM      5  S   UNL     1       7.098   5.511  18.120  0.00  0.00    +0.000 S 
ATOM      6  O   UNL     1       7.984   4.471  18.616  0.00  0.00    +0.000 OA
ATOM      7  O   UNL     1       7.549   6.880  17.974  0.00  0.00    +0.000 OA
ATOM      8  C   UNL     1       6.499   4.987  16.570  0.00  0.00    +0.000 A 
ATOM      9  C   UNL     1       7.395   5.044  15.487  0.00  0.00    +0.000 A 
ATOM     10  C   UNL     1       6.979   4.658  14.219  0.00  0.00    +0.000 A 
ATOM     11  C   UNL     1       5.676   4.211  14.037  0.00  0.00    +0.000 A 
ATOM     12  C   UNL     1       4.790   4.162  15.120  0.00  0.00    +0.000 A 
ATOM     13  C   UNL     1       5.185   4.565  16.410  0.00  0.00    +0.000 A 
ATOM     14  H   UNL     1       2.586   3.870  16.421  0.00  0.00    +0.000 HD
ATOM     15  H   UNL     1       6.018   5.352  20.087  0.00  0.00    +0.000 HD
ENDROOT
BRANCH   1  16
ATOM     16  C   UNL     1       1.901   4.091  18.368  0.00  0.00    +0.000 C 
BRANCH  16  17
ATOM     17  C   UNL     1       1.416   2.699  18.739  0.00  0.00    +0.000 C 
ATOM     18  O   UNL     1       0.311   2.256  18.448  0.00  0.00    +0.000 OA
BRANCH  17  19
ATOM     19  O   UNL     1       2.337   2.087  19.535  0.00  0.00    +0.000 OA
BRANCH  19  21
ATOM     20  C   UNL     1       1.504   2.563  21.717  0.00  0.00    +0.000 C 
ATOM     21  C   UNL     1       2.652   2.782  20.749  0.00  0.00    +0.000 C 
ENDBRANCH  19  21
ENDBRANCH  17  19
ENDBRANCH  16  17
ENDBRANCH   1  16
TORSDOF 4
ENDMDL
MODEL 6
REMARK VINA RESULT:      -7.3      3.301      4.555
REMARK  Name = 
REMARK  5 active torsions:
REMARK  status: ('A' for Active; 'I' for Inactive)
REMARK    1  A    between atoms: C_1  and  C_2
REMARK    2  A    between atoms: C_2  and  O_3
REMARK    3  A    between atoms: O_3  and  C_4
REMARK    4  A    between atoms: C_4  and  C_6
REMARK    5  A    between atoms: C_6  and  N_7
REMARK                            x       y       z     vdW  Elec       q    Type
REMARK                         _______ _______ _______ _____ _____    ______ ____
ROOT
ATOM      1  N   UNL     1       4.686   5.936  16.607  0.00  0.00    +0.000 N 
ATOM      2  C   UNL     1       4.220   4.898  17.390  0.00  0.00    +0.000 C 
ATOM      3  N   UNL     1       4.588   3.694  17.040  0.00  0.00    +0.000 NA
ATOM      4  N   UNL     1       4.122   2.521  17.709  0.00  0.00    +0.000 N 
ATOM      5  S   UNL     1       3.347   2.545  19.201  0.00  0.00    +0.000 S 
ATOM      6  O   UNL     1       4.337   2.191  20.203  0.00  0.00    +0.000 OA
ATOM      7  O   UNL     1       2.112   1.801  19.065  0.00  0.00    +0.000 OA
ATOM      8  C   UNL     1       2.928   4.218  19.453  0.00  0.00    +0.000 A 
ATOM      9  C   UNL     1       2.110   4.510  20.560  0.00  0.00    +0.000 A 
ATOM     10  C   UNL     1       1.723   5.821  20.811  0.00  0.00    +0.000 A 
ATOM     11  C   UNL     1       2.156   6.833  19.963  0.00  0.00    +0.000 A 
ATOM     12  C   UNL     1       2.965   6.531  18.861  0.00  0.00    +0.000 A 
ATOM     13  C   UNL     1       3.355   5.208  18.578  0.00  0.00    +0.000 A 
ATOM     14  H   UNL     1       4.284   6.867  16.674  0.00  0.00    +0.000 HD
ATOM     15  H   UNL     1       4.796   1.752  17.673  0.00  0.00    +0.000 HD
ENDROOT
BRANCH   1  16
ATOM     16  C   UNL     1       5.364   5.712  15.329  0.00  0.00    +0.000 C 
BRANCH  16  17
ATOM     17  C   UNL     1       6.857   5.546  15.557  0.00  0.00    +0.000 C 
ATOM     18  O   UNL     1       7.497   6.167  16.398  0.00  0.00    +0.000 OA
BRANCH  17  19
ATOM     19  O   UNL     1       7.378   4.710  14.617  0.00  0.00    +0.000 OA
BRANCH  19  21
ATOM     20  C   UNL     1       6.836   3.875  12.450  0.00  0.00    +0.000 C 
ATOM     21  C   UNL     1       6.416   3.915  13.908  0.00  0.00    +0.000 C 
ENDBRANCH  19  21
ENDBRANCH  17  19
ENDBRANCH  16  17
ENDBRANCH   1  16
TORSDOF 4
ENDMDL
MODEL 7
REMARK VINA RESULT:      -7.3      3.811      4.948
REMARK  Name = 
REMARK  5 active torsions:
REMARK  status: ('A' for Active; 'I' for Inactive)
REMARK    1  A    between atoms: C_1  and  C_2
REMARK    2  A    between atoms: C_2  and  O_3
REMARK    3  A    between atoms: O_3  and  C_4
REMARK    4  A    between atoms: C_4  and  C_6
REMARK    5  A    between atoms: C_6  and  N_7
REMARK                            x       y       z     vdW  Elec       q    Type
REMARK                         _______ _______ _______ _____ _____    ______ ____
ROOT
ATOM      1  N   UNL     1       5.099   4.547  17.175  0.00  0.00    +0.000 N 
ATOM      2  C   UNL     1       4.002   3.917  17.728  0.00  0.00    +0.000 C 
ATOM      3  N   UNL     1       3.812   2.671  17.385  0.00  0.00    +0.000 NA
ATOM      4  N   UNL     1       2.677   1.917  17.816  0.00  0.00    +0.000 N 
ATOM      5  S   UNL     1       1.657   2.400  19.061  0.00  0.00    +0.000 S 
ATOM      6  O   UNL     1       2.050   1.661  20.249  0.00  0.00    +0.000 OA
ATOM      7  O   UNL     1       0.300   2.353  18.558  0.00  0.00    +0.000 OA
ATOM      8  C   UNL     1       2.058   4.074  19.335  0.00  0.00    +0.000 A 
ATOM      9  C   UNL     1       1.232   4.791  20.221  0.00  0.00    +0.000 A 
ATOM     10  C   UNL     1       1.484   6.134  20.472  0.00  0.00    +0.000 A 
ATOM     11  C   UNL     1       2.558   6.754  19.847  0.00  0.00    +0.000 A 
ATOM     12  C   UNL     1       3.371   6.034  18.963  0.00  0.00    +0.000 A 
ATOM     13  C   UNL     1       3.124   4.677  18.680  0.00  0.00    +0.000 A 
ATOM     14  H   UNL     1       5.202   5.557  17.214  0.00  0.00    +0.000 HD
ATOM     15  H   UNL     1       2.874   0.915  17.889  0.00  0.00    +0.000 HD
ENDROOT
BRANCH   1  16
ATOM     16  C   UNL     1       5.886   3.949  16.095  0.00  0.00    +0.000 C 
BRANCH  16  17
ATOM     17  C   UNL     1       6.802   4.994  15.481  0.00  0.00    +0.000 C 
ATOM     18  O   UNL     1       7.332   5.901  16.113  0.00  0.00    +0.000 OA
BRANCH  17  19
ATOM     19  O   UNL     1       6.836   4.840  14.128  0.00  0.00    +0.000 OA
BRANCH  19  21
ATOM     20  C   UNL     1       6.458   3.467  12.216  0.00  0.00    +0.000 C 
ATOM     21  C   UNL     1       5.970   3.821  13.609  0.00  0.00    +0.000 C 
ENDBRANCH  19  21
ENDBRANCH  17  19
ENDBRANCH  16  17
ENDBRANCH   1  16
TORSDOF 4
ENDMDL
MODEL 8
REMARK VINA RESULT:      -7.3      3.499      5.354
REMARK  Name = 
REMARK  5 active torsions:
REMARK  status: ('A' for Active; 'I' for Inactive)
REMARK    1  A    between atoms: C_1  and  C_2
REMARK    2  A    between atoms: C_2  and  O_3
REMARK    3  A    between atoms: O_3  and  C_4
REMARK    4  A    between atoms: C_4  and  C_6
REMARK    5  A    between atoms: C_6  and  N_7
REMARK                            x       y       z     vdW  Elec       q    Type
REMARK                         _______ _______ _______ _____ _____    ______ ____
ROOT
ATOM      1  N   UNL     1       4.813   5.270  16.551  0.00  0.00    +0.000 N 
ATOM      2  C   UNL     1       4.208   4.440  17.473  0.00  0.00    +0.000 C 
ATOM      3  N   UNL     1       4.450   3.161  17.353  0.00  0.00    +0.000 NA
ATOM      4  N   UNL     1       3.832   2.178  18.186  0.00  0.00    +0.000 N 
ATOM      5  S   UNL     1       3.016   2.544  19.609  0.00  0.00    +0.000 S 
ATOM      6  O   UNL     1       3.925   2.269  20.708  0.00  0.00    +0.000 OA
ATOM      7  O   UNL     1       1.710   1.921  19.537  0.00  0.00    +0.000 OA
ATOM      8  C   UNL     1       2.778   4.269  19.550  0.00  0.00    +0.000 A 
ATOM      9  C   UNL     1       1.962   4.835  20.547  0.00  0.00    +0.000 A 
ATOM     10  C   UNL     1       1.716   6.202  20.550  0.00  0.00    +0.000 A 
ATOM     11  C   UNL     1       2.288   7.000  19.567  0.00  0.00    +0.000 A 
ATOM     12  C   UNL     1       3.095   6.427  18.576  0.00  0.00    +0.000 A 
ATOM     13  C   UNL     1       3.343   5.041  18.543  0.00  0.00    +0.000 A 
ATOM     14  H   UNL     1       4.517   6.235  16.437  0.00  0.00    +0.000 HD
ATOM     15  H   UNL     1       4.417   1.349  18.317  0.00  0.00    +0.000 HD
ENDROOT
BRANCH   1  16
ATOM     16  C   UNL     1       5.505   4.756  15.367  0.00  0.00    +0.000 C 
BRANCH  16  17
ATOM     17  C   UNL     1       6.970   5.156  15.409  0.00  0.00    +0.000 C 
ATOM     18  O   UNL     1       7.635   5.436  14.418  0.00  0.00    +0.000 OA
BRANCH  17  19
ATOM     19  O   UNL     1       7.446   5.034  16.680  0.00  0.00    +0.000 OA
BRANCH  19  21
ATOM     20  C   UNL     1       7.626   5.913  18.888  0.00  0.00    +0.000 C 
ATOM     21  C   UNL     1       7.547   6.262  17.413  0.00  0.00    +0.000 C 
ENDBRANCH  19  21
ENDBRANCH  17  19
ENDBRANCH  16  17
ENDBRANCH   1  16
TORSDOF 4
ENDMDL
MODEL 9
REMARK VINA RESULT:      -7.2      2.761      3.458
REMARK  Name = 
REMARK  5 active torsions:
REMARK  status: ('A' for Active; 'I' for Inactive)
REMARK    1  A    between atoms: C_1  and  C_2
REMARK    2  A    between atoms: C_2  and  O_3
REMARK    3  A    between atoms: O_3  and  C_4
REMARK    4  A    between atoms: C_4  and  C_6
REMARK    5  A    between atoms: C_6  and  N_7
REMARK                            x       y       z     vdW  Elec       q    Type
REMARK                         _______ _______ _______ _____ _____    ______ ____
ROOT
ATOM      1  N   UNL     1       5.688   3.934  16.445  0.00  0.00    +0.000 N 
ATOM      2  C   UNL     1       4.773   4.712  17.128  0.00  0.00    +0.000 C 
ATOM      3  N   UNL     1       5.055   5.983  17.234  0.00  0.00    +0.000 NA
ATOM      4  N   UNL     1       4.242   6.893  17.978  0.00  0.00    +0.000 N 
ATOM      5  S   UNL     1       2.686   6.536  18.502  0.00  0.00    +0.000 S 
ATOM      6  O   UNL     1       1.765   7.163  17.569  0.00  0.00    +0.000 OA
ATOM      7  O   UNL     1       2.627   6.816  19.922  0.00  0.00    +0.000 OA
ATOM      8  C   UNL     1       2.536   4.812  18.300  0.00  0.00    +0.000 A 
ATOM      9  C   UNL     1       1.379   4.206  18.823  0.00  0.00    +0.000 A 
ATOM     10  C   UNL     1       1.203   2.833  18.713  0.00  0.00    +0.000 A 
ATOM     11  C   UNL     1       2.175   2.070  18.077  0.00  0.00    +0.000 A 
ATOM     12  C   UNL     1       3.326   2.682  17.564  0.00  0.00    +0.000 A 
ATOM     13  C   UNL     1       3.533   4.070  17.680  0.00  0.00    +0.000 A 
ATOM     14  H   UNL     1       5.660   2.920  16.498  0.00  0.00    +0.000 HD
ATOM     15  H   UNL     1       4.282   7.847  17.611  0.00  0.00    +0.000 HD
ENDROOT
BRANCH   1  16
ATOM     16  C   UNL     1       7.005   4.435  16.051  0.00  0.00    +0.000 C 
BRANCH  16  17
ATOM     17  C   UNL     1       7.061   4.615  14.543  0.00  0.00    +0.000 C 
ATOM     18  O   UNL     1       7.753   5.452  13.975  0.00  0.00    +0.000 OA
BRANCH  17  19
ATOM     19  O   UNL     1       6.146   3.801  13.947  0.00  0.00    +0.000 OA
BRANCH  19  21
ATOM     20  C   UNL     1       4.995   3.267  11.929  0.00  0.00    +0.000 C 
ATOM     21  C   UNL     1       6.346   3.584  12.543  0.00  0.00    +0.000 C 
ENDBRANCH  19  21
ENDBRANCH  17  19
ENDBRANCH  16  17
ENDBRANCH   1  16
TORSDOF 4
ENDMDL
