MODEL 1
REMARK VINA RESULT:      -7.2      0.000      0.000
REMARK  Name = 
REMARK  8 active torsions:
REMARK  status: ('A' for Active; 'I' for Inactive)
REMARK    1  A    between atoms: C_1  and  O_2
REMARK    2  A    between atoms: O_2  and  C_3
REMARK    3  A    between atoms: C_3  and  C_4
REMARK    4  A    between atoms: N_9  and  C_10
REMARK    5  A    between atoms: C_10  and  C_11
REMARK    6  A    between atoms: C_12  and  C_13
REMARK    7  A    between atoms: C_24  and  C_25
REMARK    8  A    between atoms: C_30  and  C_31
REMARK                            x       y       z     vdW  Elec       q    Type
REMARK                         _______ _______ _______ _____ _____    ______ ____
ROOT
ATOM      1  C   UNL     1       1.504   9.973  19.785  0.00  0.00    +0.000 A 
ATOM      2  C   UNL     1       1.752  10.876  18.759  0.00  0.00    +0.000 A 
ATOM      3  N   UNL     1       2.203  10.222  17.631  0.00  0.00    +0.000 NA
ATOM      4  C   UNL     1       2.271   8.951  17.956  0.00  0.00    +0.000 A 
ATOM      5  C   UNL     1       2.710   7.820  17.212  0.00  0.00    +0.000 A 
ATOM      6  C   UNL     1       2.704   6.596  17.777  0.00  0.00    +0.000 A 
ATOM      7  C   UNL     1       2.251   6.386  19.150  0.00  0.00    +0.000 A 
ATOM      8  C   UNL     1       1.808   7.457  19.839  0.00  0.00    +0.000 A 
ATOM      9  N   UNL     1       1.834   8.732  19.257  0.00  0.00    +0.000 N 
ENDROOT
BRANCH   2  10
ATOM     10  C   UNL     1       1.539  12.321  18.769  0.00  0.00    +0.000 A 
ATOM     11  C   UNL     1       2.558  13.240  19.055  0.00  0.00    +0.000 A 
ATOM     12  C   UNL     1       2.300  14.613  19.106  0.00  0.00    +0.000 A 
ATOM     13  C   UNL     1       1.020  15.085  18.836  0.00  0.00    +0.000 A 
ATOM     14 CL   UNL     1       0.702  16.774  18.903  0.00  0.00    +0.000 Cl
ATOM     15  C   UNL     1       0.001  14.195  18.507  0.00  0.00    +0.000 A 
ATOM     16  C   UNL     1       0.262  12.821  18.472  0.00  0.00    +0.000 A 
ENDBRANCH   2  10
BRANCH   7  17
ATOM     17  C   UNL     1       2.354   5.094  19.862  0.00  0.00    +0.000 A 
ATOM     18  C   UNL     1       1.222   4.548  20.485  0.00  0.00    +0.000 A 
ATOM     19  C   UNL     1       1.307   3.334  21.175  0.00  0.00    +0.000 A 
ATOM     20  C   UNL     1       2.518   2.647  21.243  0.00  0.00    +0.000 A 
ATOM     21  C   UNL     1       3.652   3.178  20.631  0.00  0.00    +0.000 A 
ATOM     22  C   UNL     1       3.578   4.399  19.948  0.00  0.00    +0.000 A 
BRANCH  22  23
ATOM     23  C   UNL     1       4.781   4.931  19.375  0.00  0.00    +0.000 C 
ATOM     24  N   UNL     1       5.741   5.394  18.906  0.00  0.00    +0.000 NA
ENDBRANCH  22  23
ENDBRANCH   7  17
BRANCH   1  25
ATOM     25  C   UNL     1       1.013  10.149  21.179  0.00  0.00    +0.000 C 
BRANCH  25  31
ATOM     26  C   UNL     1      -2.971  12.574  22.793  0.00  0.00    +0.000 C 
ATOM     27  O   UNL     1      -3.083  12.867  23.984  0.00  0.00    +0.000 OA
ATOM     28  N   UNL     1      -1.969  11.741  22.320  0.00  0.00    +0.000 N 
ATOM     29  C   UNL     1      -1.083  11.064  23.270  0.00  0.00    +0.000 C 
ATOM     30  C   UNL     1      -0.749   9.626  22.814  0.00  0.00    +0.000 C 
ATOM     31  N   UNL     1      -0.296   9.520  21.407  0.00  0.00    +0.000 NA
ATOM     32  C   UNL     1      -1.331  10.138  20.546  0.00  0.00    +0.000 C 
ATOM     33  C   UNL     1      -1.614  11.605  20.903  0.00  0.00    +0.000 C 
BRANCH  26  34
ATOM     34  C   UNL     1      -3.997  13.073  21.764  0.00  0.00    +0.000 C 
BRANCH  34  36
ATOM     35  C   UNL     1      -5.716  12.213  20.386  0.00  0.00    +0.000 C 
ATOM     36  O   UNL     1      -5.195  12.300  21.708  0.00  0.00    +0.000 OA
ENDBRANCH  34  36
ENDBRANCH  26  34
ENDBRANCH  25  31
ENDBRANCH   1  25
TORSDOF 7
ENDMDL
MODEL 2
REMARK VINA RESULT:      -6.9      3.934      8.990
REMARK  Name = 
REMARK  8 active torsions:
REMARK  status: ('A' for Active; 'I' for Inactive)
REMARK    1  A    between atoms: C_1  and  O_2
REMARK    2  A    between atoms: O_2  and  C_3
REMARK    3  A    between atoms: C_3  and  C_4
REMARK    4  A    between atoms: N_9  and  C_10
REMARK    5  A    between atoms: C_10  and  C_11
REMARK    6  A    between atoms: C_12  and  C_13
REMARK    7  A    between atoms: C_24  and  C_25
REMARK    8  A    between atoms: C_30  and  C_31
REMARK                            x       y       z     vdW  Elec       q    Type
REMARK                         _______ _______ _______ _____ _____    ______ ____
ROOT
ATOM      1  C   UNL     1       0.560  12.035  21.191  0.00  0.00    +0.000 A 
ATOM      2  C   UNL     1       0.244  10.695  21.007  0.00  0.00    +0.000 A 
ATOM      3  N   UNL     1      -0.911  10.367  21.685  0.00  0.00    +0.000 NA
ATOM      4  C   UNL     1      -1.286  11.463  22.306  0.00  0.00    +0.000 A 
ATOM      5  C   UNL     1      -2.375  11.710  23.187  0.00  0.00    +0.000 A 
ATOM      6  C   UNL     1      -2.547  12.934  23.723  0.00  0.00    +0.000 A 
ATOM      7  C   UNL     1      -1.637  14.038  23.425  0.00  0.00    +0.000 A 
ATOM      8  C   UNL     1      -0.624  13.805  22.566  0.00  0.00    +0.000 A 
ATOM      9  N   UNL     1      -0.436  12.526  22.025  0.00  0.00    +0.000 N 
ENDROOT
BRANCH   2  10
ATOM     10  C   UNL     1       0.948   9.716  20.182  0.00  0.00    +0.000 A 
ATOM     11  C   UNL     1       1.170   9.894  18.810  0.00  0.00    +0.000 A 
ATOM     12  C   UNL     1       1.803   8.908  18.046  0.00  0.00    +0.000 A 
ATOM     13  C   UNL     1       2.251   7.743  18.658  0.00  0.00    +0.000 A 
ATOM     14 CL   UNL     1       3.025   6.529  17.717  0.00  0.00    +0.000 Cl
ATOM     15  C   UNL     1       2.081   7.562  20.027  0.00  0.00    +0.000 A 
ATOM     16  C   UNL     1       1.434   8.545  20.784  0.00  0.00    +0.000 A 
ENDBRANCH   2  10
BRANCH   7  17
ATOM     17  C   UNL     1      -1.696  15.357  24.090  0.00  0.00    +0.000 A 
ATOM     18  C   UNL     1      -1.203  15.503  25.395  0.00  0.00    +0.000 A 
ATOM     19  C   UNL     1      -1.267  16.742  26.043  0.00  0.00    +0.000 A 
ATOM     20  C   UNL     1      -1.813  17.848  25.395  0.00  0.00    +0.000 A 
ATOM     21  C   UNL     1      -2.310  17.717  24.100  0.00  0.00    +0.000 A 
ATOM     22  C   UNL     1      -2.261  16.478  23.447  0.00  0.00    +0.000 A 
BRANCH  22  23
ATOM     23  C   UNL     1      -2.828  16.379  22.133  0.00  0.00    +0.000 C 
ATOM     24  N   UNL     1      -3.320  16.298  21.082  0.00  0.00    +0.000 NA
ENDBRANCH  22  23
ENDBRANCH   7  17
BRANCH   1  25
ATOM     25  C   UNL     1       1.678  12.881  20.688  0.00  0.00    +0.000 C 
BRANCH  25  31
ATOM     26  C   UNL     1       0.182  17.184  18.792  0.00  0.00    +0.000 C 
ATOM     27  O   UNL     1      -1.016  17.471  18.765  0.00  0.00    +0.000 OA
ATOM     28  N   UNL     1       0.639  15.924  19.143  0.00  0.00    +0.000 N 
ATOM     29  C   UNL     1      -0.322  14.840  19.360  0.00  0.00    +0.000 C 
ATOM     30  C   UNL     1       0.204  13.493  18.816  0.00  0.00    +0.000 C 
ATOM     31  N   UNL     1       1.582  13.155  19.247  0.00  0.00    +0.000 NA
ATOM     32  C   UNL     1       2.468  14.279  18.867  0.00  0.00    +0.000 C 
ATOM     33  C   UNL     1       2.035  15.620  19.479  0.00  0.00    +0.000 C 
BRANCH  26  34
ATOM     34  C   UNL     1       1.242  18.209  18.365  0.00  0.00    +0.000 C 
BRANCH  34  36
ATOM     35  C   UNL     1       0.742  18.487  16.069  0.00  0.00    +0.000 C 
ATOM     36  O   UNL     1       1.705  18.051  17.025  0.00  0.00    +0.000 OA
ENDBRANCH  34  36
ENDBRANCH  26  34
ENDBRANCH  25  31
ENDBRANCH   1  25
TORSDOF 7
ENDMDL
MODEL 3
REMARK VINA RESULT:      -6.7      3.279      8.478
REMARK  Name = 
REMARK  8 active torsions:
REMARK  status: ('A' for Active; 'I' for Inactive)
REMARK    1  A    between atoms: C_1  and  O_2
REMARK    2  A    between atoms: O_2  and  C_3
REMARK    3  A    between atoms: C_3  and  C_4
REMARK    4  A    between atoms: N_9  and  C_10
REMARK    5  A    between atoms: C_10  and  C_11
REMARK    6  A    between atoms: C_12  and  C_13
REMARK    7  A    between atoms: C_24  and  C_25
REMARK    8  A    between atoms: C_30  and  C_31
REMARK                            x       y       z     vdW  Elec       q    Type
REMARK                         _______ _______ _______ _____ _____    ______ ____
ROOT
ATOM      1  C   UNL     1      -0.592  13.638  20.972  0.00  0.00    +0.000 A 
ATOM      2  C   UNL     1       0.093  14.656  20.321  0.00  0.00    +0.000 A 
ATOM      3  N   UNL     1      -0.723  15.753  20.135  0.00  0.00    +0.000 NA
ATOM      4  C   UNL     1      -1.895  15.414  20.622  0.00  0.00    +0.000 A 
ATOM      5  C   UNL     1      -3.128  16.124  20.665  0.00  0.00    +0.000 A 
ATOM      6  C   UNL     1      -4.219  15.551  21.211  0.00  0.00    +0.000 A 
ATOM      7  C   UNL     1      -4.178  14.202  21.773  0.00  0.00    +0.000 A 
ATOM      8  C   UNL     1      -3.000  13.548  21.756  0.00  0.00    +0.000 A 
ATOM      9  N   UNL     1      -1.872  14.138  21.170  0.00  0.00    +0.000 N 
ENDROOT
BRANCH   2  10
ATOM     10  C   UNL     1       1.494  14.670  19.908  0.00  0.00    +0.000 A 
ATOM     11  C   UNL     1       2.548  14.924  20.796  0.00  0.00    +0.000 A 
ATOM     12  C   UNL     1       3.873  14.980  20.350  0.00  0.00    +0.000 A 
ATOM     13  C   UNL     1       4.158  14.748  19.009  0.00  0.00    +0.000 A 
ATOM     14 CL   UNL     1       5.787  14.821  18.461  0.00  0.00    +0.000 Cl
ATOM     15  C   UNL     1       3.134  14.451  18.116  0.00  0.00    +0.000 A 
ATOM     16  C   UNL     1       1.809  14.411  18.565  0.00  0.00    +0.000 A 
ENDBRANCH   2  10
BRANCH   7  17
ATOM     17  C   UNL     1      -5.372  13.476  22.256  0.00  0.00    +0.000 A 
ATOM     18  C   UNL     1      -5.695  13.492  23.621  0.00  0.00    +0.000 A 
ATOM     19  C   UNL     1      -6.813  12.797  24.094  0.00  0.00    +0.000 A 
ATOM     20  C   UNL     1      -7.626  12.087  23.212  0.00  0.00    +0.000 A 
ATOM     21  C   UNL     1      -7.316  12.059  21.854  0.00  0.00    +0.000 A 
ATOM     22  C   UNL     1      -6.192  12.742  21.372  0.00  0.00    +0.000 A 
BRANCH  22  23
ATOM     23  C   UNL     1      -5.885  12.646  19.975  0.00  0.00    +0.000 C 
ATOM     24  N   UNL     1      -5.602  12.579  18.847  0.00  0.00    +0.000 NA
ENDBRANCH  22  23
ENDBRANCH   7  17
BRANCH   1  25
ATOM     25  C   UNL     1      -0.183  12.274  21.407  0.00  0.00    +0.000 C 
BRANCH  25  31
ATOM     26  C   UNL     1       1.875   8.831  18.532  0.00  0.00    +0.000 C 
ATOM     27  O   UNL     1       2.216   9.104  17.380  0.00  0.00    +0.000 OA
ATOM     28  N   UNL     1       1.133   9.701  19.316  0.00  0.00    +0.000 N 
ATOM     29  C   UNL     1       0.607  10.936  18.727  0.00  0.00    +0.000 C 
ATOM     30  C   UNL     1      -0.808  11.262  19.254  0.00  0.00    +0.000 C 
ATOM     31  N   UNL     1      -0.939  11.210  20.730  0.00  0.00    +0.000 NA
ATOM     32  C   UNL     1      -0.483   9.875  21.182  0.00  0.00    +0.000 C 
ATOM     33  C   UNL     1       0.961   9.558  20.766  0.00  0.00    +0.000 C 
BRANCH  26  34
ATOM     34  C   UNL     1       2.204   7.462  19.143  0.00  0.00    +0.000 C 
BRANCH  34  36
ATOM     35  C   UNL     1       2.671   5.420  18.042  0.00  0.00    +0.000 C 
ATOM     36  O   UNL     1       3.164   6.706  18.407  0.00  0.00    +0.000 OA
ENDBRANCH  34  36
ENDBRANCH  26  34
ENDBRANCH  25  31
ENDBRANCH   1  25
TORSDOF 7
ENDMDL
MODEL 4
REMARK VINA RESULT:      -6.7      3.866      9.061
REMARK  Name = 
REMARK  8 active torsions:
REMARK  status: ('A' for Active; 'I' for Inactive)
REMARK    1  A    between atoms: C_1  and  O_2
REMARK    2  A    between atoms: O_2  and  C_3
REMARK    3  A    between atoms: C_3  and  C_4
REMARK    4  A    between atoms: N_9  and  C_10
REMARK    5  A    between atoms: C_10  and  C_11
REMARK    6  A    between atoms: C_12  and  C_13
REMARK    7  A    between atoms: C_24  and  C_25
REMARK    8  A    between atoms: C_30  and  C_31
REMARK                            x       y       z     vdW  Elec       q    Type
REMARK                         _______ _______ _______ _____ _____    ______ ____
ROOT
ATOM      1  C   UNL     1       0.385  11.410  20.238  0.00  0.00    +0.000 A 
ATOM      2  C   UNL     1       0.528  10.056  20.516  0.00  0.00    +0.000 A 
ATOM      3  N   UNL     1      -0.214   9.704  21.624  0.00  0.00    +0.000 NA
ATOM      4  C   UNL     1      -0.775  10.813  22.048  0.00  0.00    +0.000 A 
ATOM      5  C   UNL     1      -1.608  11.067  23.173  0.00  0.00    +0.000 A 
ATOM      6  C   UNL     1      -2.055  12.315  23.416  0.00  0.00    +0.000 A 
ATOM      7  C   UNL     1      -1.708  13.437  22.547  0.00  0.00    +0.000 A 
ATOM      8  C   UNL     1      -0.943  13.185  21.466  0.00  0.00    +0.000 A 
ATOM      9  N   UNL     1      -0.464  11.890  21.226  0.00  0.00    +0.000 N 
ENDROOT
BRANCH   2  10
ATOM     10  C   UNL     1       1.290   9.064  19.762  0.00  0.00    +0.000 A 
ATOM     11  C   UNL     1       1.657   9.244  18.421  0.00  0.00    +0.000 A 
ATOM     12  C   UNL     1       2.341   8.246  17.718  0.00  0.00    +0.000 A 
ATOM     13  C   UNL     1       2.696   7.068  18.365  0.00  0.00    +0.000 A 
ATOM     14 CL   UNL     1       3.533   5.840  17.499  0.00  0.00    +0.000 Cl
ATOM     15  C   UNL     1       2.381   6.883  19.708  0.00  0.00    +0.000 A 
ATOM     16  C   UNL     1       1.683   7.879  20.401  0.00  0.00    +0.000 A 
ENDBRANCH   2  10
BRANCH   7  17
ATOM     17  C   UNL     1      -2.054  14.844  22.842  0.00  0.00    +0.000 A 
ATOM     18  C   UNL     1      -1.114  15.679  23.465  0.00  0.00    +0.000 A 
ATOM     19  C   UNL     1      -1.432  17.008  23.764  0.00  0.00    +0.000 A 
ATOM     20  C   UNL     1      -2.687  17.522  23.438  0.00  0.00    +0.000 A 
ATOM     21  C   UNL     1      -3.632  16.703  22.823  0.00  0.00    +0.000 A 
ATOM     22  C   UNL     1      -3.326  15.368  22.530  0.00  0.00    +0.000 A 
BRANCH  22  23
ATOM     23  C   UNL     1      -4.346  14.551  21.940  0.00  0.00    +0.000 C 
ATOM     24  N   UNL     1      -5.166  13.861  21.484  0.00  0.00    +0.000 NA
ENDBRANCH  22  23
ENDBRANCH   7  17
BRANCH   1  25
ATOM     25  C   UNL     1       0.956  12.281  19.174  0.00  0.00    +0.000 C 
BRANCH  25  31
ATOM     26  C   UNL     1       2.800  16.853  18.959  0.00  0.00    +0.000 C 
ATOM     27  O   UNL     1       3.018  17.387  17.871  0.00  0.00    +0.000 OA
ATOM     28  N   UNL     1       2.457  15.515  19.078  0.00  0.00    +0.000 N 
ATOM     29  C   UNL     1       2.483  14.653  17.894  0.00  0.00    +0.000 C 
ATOM     30  C   UNL     1       3.013  13.241  18.227  0.00  0.00    +0.000 C 
ATOM     31  N   UNL     1       2.371  12.608  19.404  0.00  0.00    +0.000 NA
ATOM     32  C   UNL     1       2.515  13.530  20.554  0.00  0.00    +0.000 C 
ATOM     33  C   UNL     1       1.903  14.915  20.297  0.00  0.00    +0.000 C 
BRANCH  26  34
ATOM     34  C   UNL     1       2.967  17.642  20.266  0.00  0.00    +0.000 C 
BRANCH  34  36
ATOM     35  C   UNL     1       4.553  18.630  21.716  0.00  0.00    +0.000 C 
ATOM     36  O   UNL     1       4.195  18.361  20.364  0.00  0.00    +0.000 OA
ENDBRANCH  34  36
ENDBRANCH  26  34
ENDBRANCH  25  31
ENDBRANCH   1  25
TORSDOF 7
ENDMDL
MODEL 5
REMARK VINA RESULT:      -6.7      4.052      8.102
REMARK  Name = 
REMARK  8 active torsions:
REMARK  status: ('A' for Active; 'I' for Inactive)
REMARK    1  A    between atoms: C_1  and  O_2
REMARK    2  A    between atoms: O_2  and  C_3
REMARK    3  A    between atoms: C_3  and  C_4
REMARK    4  A    between atoms: N_9  and  C_10
REMARK    5  A    between atoms: C_10  and  C_11
REMARK    6  A    between atoms: C_12  and  C_13
REMARK    7  A    between atoms: C_24  and  C_25
REMARK    8  A    between atoms: C_30  and  C_31
REMARK                            x       y       z     vdW  Elec       q    Type
REMARK                         _______ _______ _______ _____ _____    ______ ____
ROOT
ATOM      1  C   UNL     1       0.933  12.747  19.288  0.00  0.00    +0.000 A 
ATOM      2  C   UNL     1      -0.278  13.303  18.897  0.00  0.00    +0.000 A 
ATOM      3  N   UNL     1      -0.122  14.635  18.572  0.00  0.00    +0.000 NA
ATOM      4  C   UNL     1       1.144  14.911  18.791  0.00  0.00    +0.000 A 
ATOM      5  C   UNL     1       1.866  16.132  18.674  0.00  0.00    +0.000 A 
ATOM      6  C   UNL     1       3.179  16.172  18.976  0.00  0.00    +0.000 A 
ATOM      7  C   UNL     1       3.900  14.983  19.426  0.00  0.00    +0.000 A 
ATOM      8  C   UNL     1       3.217  13.824  19.505  0.00  0.00    +0.000 A 
ATOM      9  N   UNL     1       1.848  13.788  19.209  0.00  0.00    +0.000 N 
ENDROOT
BRANCH   2  10
ATOM     10  C   UNL     1      -1.569  12.633  18.765  0.00  0.00    +0.000 A 
ATOM     11  C   UNL     1      -1.927  11.885  17.635  0.00  0.00    +0.000 A 
ATOM     12  C   UNL     1      -3.194  11.302  17.525  0.00  0.00    +0.000 A 
ATOM     13  C   UNL     1      -4.106  11.435  18.566  0.00  0.00    +0.000 A 
ATOM     14 CL   UNL     1      -5.665  10.722  18.428  0.00  0.00    +0.000 Cl
ATOM     15  C   UNL     1      -3.759  12.136  19.717  0.00  0.00    +0.000 A 
ATOM     16  C   UNL     1      -2.495  12.730  19.815  0.00  0.00    +0.000 A 
ENDBRANCH   2  10
BRANCH   7  17
ATOM     17  C   UNL     1       5.300  15.001  19.901  0.00  0.00    +0.000 A 
ATOM     18  C   UNL     1       6.353  14.996  18.975  0.00  0.00    +0.000 A 
ATOM     19  C   UNL     1       7.683  14.998  19.410  0.00  0.00    +0.000 A 
ATOM     20  C   UNL     1       7.977  15.014  20.772  0.00  0.00    +0.000 A 
ATOM     21  C   UNL     1       6.941  15.015  21.705  0.00  0.00    +0.000 A 
ATOM     22  C   UNL     1       5.607  15.002  21.278  0.00  0.00    +0.000 A 
BRANCH  22  23
ATOM     23  C   UNL     1       4.575  14.955  22.274  0.00  0.00    +0.000 C 
ATOM     24  N   UNL     1       3.745  14.951  23.090  0.00  0.00    +0.000 NA
ENDBRANCH  22  23
ENDBRANCH   7  17
BRANCH   1  25
ATOM     25  C   UNL     1       1.311  11.375  19.728  0.00  0.00    +0.000 C 
BRANCH  25  31
ATOM     26  C   UNL     1       2.446   6.578  19.485  0.00  0.00    +0.000 C 
ATOM     27  O   UNL     1       3.179   6.155  18.590  0.00  0.00    +0.000 OA
ATOM     28  N   UNL     1       1.952   7.874  19.495  0.00  0.00    +0.000 N 
ATOM     29  C   UNL     1       2.183   8.745  18.341  0.00  0.00    +0.000 C 
ATOM     30  C   UNL     1       0.951   9.627  18.035  0.00  0.00    +0.000 C 
ATOM     31  N   UNL     1       0.402  10.341  19.213  0.00  0.00    +0.000 NA
ATOM     32  C   UNL     1       0.106   9.335  20.259  0.00  0.00    +0.000 C 
ATOM     33  C   UNL     1       1.336   8.509  20.666  0.00  0.00    +0.000 C 
BRANCH  26  34
ATOM     34  C   UNL     1       1.982   5.653  20.620  0.00  0.00    +0.000 C 
BRANCH  34  36
ATOM     35  C   UNL     1       1.343   3.418  21.057  0.00  0.00    +0.000 C 
ATOM     36  O   UNL     1       1.206   4.538  20.187  0.00  0.00    +0.000 OA
ENDBRANCH  34  36
ENDBRANCH  26  34
ENDBRANCH  25  31
ENDBRANCH   1  25
TORSDOF 7
ENDMDL
MODEL 6
REMARK VINA RESULT:      -6.7      4.170      9.341
REMARK  Name = 
REMARK  8 active torsions:
REMARK  status: ('A' for Active; 'I' for Inactive)
REMARK    1  A    between atoms: C_1  and  O_2
REMARK    2  A    between atoms: O_2  and  C_3
REMARK    3  A    between atoms: C_3  and  C_4
REMARK    4  A    between atoms: N_9  and  C_10
REMARK    5  A    between atoms: C_10  and  C_11
REMARK    6  A    between atoms: C_12  and  C_13
REMARK    7  A    between atoms: C_24  and  C_25
REMARK    8  A    between atoms: C_30  and  C_31
REMARK                            x       y       z     vdW  Elec       q    Type
REMARK                         _______ _______ _______ _____ _____    ______ ____
ROOT
ATOM      1  C   UNL     1       0.627  11.799  21.189  0.00  0.00    +0.000 A 
ATOM      2  C   UNL     1       0.279  10.464  21.019  0.00  0.00    +0.000 A 
ATOM      3  N   UNL     1      -0.909  10.184  21.662  0.00  0.00    +0.000 NA
ATOM      4  C   UNL     1      -1.272  11.301  22.249  0.00  0.00    +0.000 A 
ATOM      5  C   UNL     1      -2.384  11.597  23.086  0.00  0.00    +0.000 A 
ATOM      6  C   UNL     1      -2.538  12.836  23.593  0.00  0.00    +0.000 A 
ATOM      7  C   UNL     1      -1.587  13.907  23.306  0.00  0.00    +0.000 A 
ATOM      8  C   UNL     1      -0.552  13.628  22.488  0.00  0.00    +0.000 A 
ATOM      9  N   UNL     1      -0.383  12.334  21.978  0.00  0.00    +0.000 N 
ENDROOT
BRANCH   2  10
ATOM     10  C   UNL     1       0.982   9.449  20.239  0.00  0.00    +0.000 A 
ATOM     11  C   UNL     1       1.275   9.603  18.877  0.00  0.00    +0.000 A 
ATOM     12  C   UNL     1       1.904   8.585  18.153  0.00  0.00    +0.000 A 
ATOM     13  C   UNL     1       2.277   7.411  18.798  0.00  0.00    +0.000 A 
ATOM     14 CL   UNL     1       3.046   6.157  17.906  0.00  0.00    +0.000 Cl
ATOM     15  C   UNL     1       2.036   7.252  20.159  0.00  0.00    +0.000 A 
ATOM     16  C   UNL     1       1.393   8.268  20.875  0.00  0.00    +0.000 A 
ENDBRANCH   2  10
BRANCH   7  17
ATOM     17  C   UNL     1      -1.631  15.240  23.944  0.00  0.00    +0.000 A 
ATOM     18  C   UNL     1      -1.096  15.417  25.229  0.00  0.00    +0.000 A 
ATOM     19  C   UNL     1      -1.144  16.670  25.851  0.00  0.00    +0.000 A 
ATOM     20  C   UNL     1      -1.717  17.759  25.197  0.00  0.00    +0.000 A 
ATOM     21  C   UNL     1      -2.255  17.597  23.922  0.00  0.00    +0.000 A 
ATOM     22  C   UNL     1      -2.222  16.344  23.295  0.00  0.00    +0.000 A 
BRANCH  22  23
ATOM     23  C   UNL     1      -2.831  16.214  22.004  0.00  0.00    +0.000 C 
ATOM     24  N   UNL     1      -3.357  16.106  20.970  0.00  0.00    +0.000 NA
ENDBRANCH  22  23
ENDBRANCH   7  17
BRANCH   1  25
ATOM     25  C   UNL     1       1.785  12.602  20.711  0.00  0.00    +0.000 C 
BRANCH  25  31
ATOM     26  C   UNL     1       3.585  16.987  19.338  0.00  0.00    +0.000 C 
ATOM     27  O   UNL     1       3.061  18.028  19.735  0.00  0.00    +0.000 OA
ATOM     28  N   UNL     1       3.016  15.740  19.543  0.00  0.00    +0.000 N 
ATOM     29  C   UNL     1       1.676  15.643  20.128  0.00  0.00    +0.000 C 
ATOM     30  C   UNL     1       0.849  14.513  19.476  0.00  0.00    +0.000 C 
ATOM     31  N   UNL     1       1.552  13.210  19.392  0.00  0.00    +0.000 NA
ATOM     32  C   UNL     1       2.833  13.427  18.681  0.00  0.00    +0.000 C 
ATOM     33  C   UNL     1       3.731  14.471  19.362  0.00  0.00    +0.000 C 
BRANCH  26  34
ATOM     34  C   UNL     1       4.886  17.027  18.523  0.00  0.00    +0.000 C 
BRANCH  34  36
ATOM     35  C   UNL     1       6.397  17.075  20.343  0.00  0.00    +0.000 C 
ATOM     36  O   UNL     1       5.954  17.728  19.157  0.00  0.00    +0.000 OA
ENDBRANCH  34  36
ENDBRANCH  26  34
ENDBRANCH  25  31
ENDBRANCH   1  25
TORSDOF 7
ENDMDL
MODEL 7
REMARK VINA RESULT:      -6.7      2.812      4.891
REMARK  Name = 
REMARK  8 active torsions:
REMARK  status: ('A' for Active; 'I' for Inactive)
REMARK    1  A    between atoms: C_1  and  O_2
REMARK    2  A    between atoms: O_2  and  C_3
REMARK    3  A    between atoms: C_3  and  C_4
REMARK    4  A    between atoms: N_9  and  C_10
REMARK    5  A    between atoms: C_10  and  C_11
REMARK    6  A    between atoms: C_12  and  C_13
REMARK    7  A    between atoms: C_24  and  C_25
REMARK    8  A    between atoms: C_30  and  C_31
REMARK                            x       y       z     vdW  Elec       q    Type
REMARK                         _______ _______ _______ _____ _____    ______ ____
ROOT
ATOM      1  C   UNL     1       0.665  10.149  19.866  0.00  0.00    +0.000 A 
ATOM      2  C   UNL     1      -0.212  10.147  20.944  0.00  0.00    +0.000 A 
ATOM      3  N   UNL     1      -0.168   8.937  21.606  0.00  0.00    +0.000 NA
ATOM      4  C   UNL     1       0.683   8.192  20.938  0.00  0.00    +0.000 A 
ATOM      5  C   UNL     1       1.091   6.843  21.128  0.00  0.00    +0.000 A 
ATOM      6  C   UNL     1       1.981   6.281  20.286  0.00  0.00    +0.000 A 
ATOM      7  C   UNL     1       2.553   7.023  19.165  0.00  0.00    +0.000 A 
ATOM      8  C   UNL     1       2.184   8.311  19.008  0.00  0.00    +0.000 A 
ATOM      9  N   UNL     1       1.244   8.887  19.873  0.00  0.00    +0.000 N 
ENDROOT
BRANCH   2  10
ATOM     10  C   UNL     1      -1.053  11.244  21.414  0.00  0.00    +0.000 A 
ATOM     11  C   UNL     1      -1.952  11.926  20.582  0.00  0.00    +0.000 A 
ATOM     12  C   UNL     1      -2.701  13.006  21.058  0.00  0.00    +0.000 A 
ATOM     13  C   UNL     1      -2.583  13.394  22.388  0.00  0.00    +0.000 A 
ATOM     14 CL   UNL     1      -3.502  14.725  22.972  0.00  0.00    +0.000 Cl
ATOM     15  C   UNL     1      -1.730  12.705  23.245  0.00  0.00    +0.000 A 
ATOM     16  C   UNL     1      -0.971  11.634  22.759  0.00  0.00    +0.000 A 
ENDBRANCH   2  10
BRANCH   7  17
ATOM     17  C   UNL     1       3.422   6.417  18.134  0.00  0.00    +0.000 A 
ATOM     18  C   UNL     1       4.472   7.163  17.578  0.00  0.00    +0.000 A 
ATOM     19  C   UNL     1       5.293   6.608  16.591  0.00  0.00    +0.000 A 
ATOM     20  C   UNL     1       5.083   5.301  16.155  0.00  0.00    +0.000 A 
ATOM     21  C   UNL     1       4.042   4.548  16.695  0.00  0.00    +0.000 A 
ATOM     22  C   UNL     1       3.207   5.100  17.676  0.00  0.00    +0.000 A 
BRANCH  22  23
ATOM     23  C   UNL     1       2.120   4.306  18.168  0.00  0.00    +0.000 C 
ATOM     24  N   UNL     1       1.252   3.632  18.554  0.00  0.00    +0.000 NA
ENDBRANCH  22  23
ENDBRANCH   7  17
BRANCH   1  25
ATOM     25  C   UNL     1       1.000  11.182  18.848  0.00  0.00    +0.000 C 
BRANCH  25  31
ATOM     26  C   UNL     1       1.271  16.101  19.154  0.00  0.00    +0.000 C 
ATOM     27  O   UNL     1       1.313  16.788  18.132  0.00  0.00    +0.000 OA
ATOM     28  N   UNL     1       1.377  14.719  19.128  0.00  0.00    +0.000 N 
ATOM     29  C   UNL     1       1.690  14.040  17.868  0.00  0.00    +0.000 C 
ATOM     30  C   UNL     1       2.645  12.845  18.085  0.00  0.00    +0.000 C 
ATOM     31  N   UNL     1       2.231  11.919  19.167  0.00  0.00    +0.000 NA
ATOM     32  C   UNL     1       2.061  12.713  20.406  0.00  0.00    +0.000 C 
ATOM     33  C   UNL     1       1.036  13.848  20.259  0.00  0.00    +0.000 C 
BRANCH  26  34
ATOM     34  C   UNL     1       1.163  16.760  20.536  0.00  0.00    +0.000 C 
BRANCH  34  36
ATOM     35  C   UNL     1      -1.178  16.803  20.873  0.00  0.00    +0.000 C 
ATOM     36  O   UNL     1       0.007  17.577  20.709  0.00  0.00    +0.000 OA
ENDBRANCH  34  36
ENDBRANCH  26  34
ENDBRANCH  25  31
ENDBRANCH   1  25
TORSDOF 7
ENDMDL
MODEL 8
REMARK VINA RESULT:      -6.6      3.829      8.316
REMARK  Name = 
REMARK  8 active torsions:
REMARK  status: ('A' for Active; 'I' for Inactive)
REMARK    1  A    between atoms: C_1  and  O_2
REMARK    2  A    between atoms: O_2  and  C_3
REMARK    3  A    between atoms: C_3  and  C_4
REMARK    4  A    between atoms: N_9  and  C_10
REMARK    5  A    between atoms: C_10  and  C_11
REMARK    6  A    between atoms: C_12  and  C_13
REMARK    7  A    between atoms: C_24  and  C_25
REMARK    8  A    between atoms: C_30  and  C_31
REMARK                            x       y       z     vdW  Elec       q    Type
REMARK                         _______ _______ _______ _____ _____    ______ ____
ROOT
ATOM      1  C   UNL     1      -0.194  13.542  20.878  0.00  0.00    +0.000 A 
ATOM      2  C   UNL     1      -1.384  14.252  20.978  0.00  0.00    +0.000 A 
ATOM      3  N   UNL     1      -1.248  15.511  20.431  0.00  0.00    +0.000 NA
ATOM      4  C   UNL     1       0.001  15.598  20.037  0.00  0.00    +0.000 A 
ATOM      5  C   UNL     1       0.721  16.675  19.446  0.00  0.00    +0.000 A 
ATOM      6  C   UNL     1       2.025  16.528  19.139  0.00  0.00    +0.000 A 
ATOM      7  C   UNL     1       2.738  15.279  19.395  0.00  0.00    +0.000 A 
ATOM      8  C   UNL     1       2.044  14.254  19.927  0.00  0.00    +0.000 A 
ATOM      9  N   UNL     1       0.693  14.414  20.263  0.00  0.00    +0.000 N 
ENDROOT
BRANCH   2  10
ATOM     10  C   UNL     1      -2.660  13.788  21.517  0.00  0.00    +0.000 A 
ATOM     11  C   UNL     1      -3.635  13.157  20.731  0.00  0.00    +0.000 A 
ATOM     12  C   UNL     1      -4.866  12.775  21.275  0.00  0.00    +0.000 A 
ATOM     13  C   UNL     1      -5.120  12.992  22.624  0.00  0.00    +0.000 A 
ATOM     14 CL   UNL     1      -6.636  12.526  23.290  0.00  0.00    +0.000 Cl
ATOM     15  C   UNL     1      -4.152  13.578  23.434  0.00  0.00    +0.000 A 
ATOM     16  C   UNL     1      -2.928  13.972  22.881  0.00  0.00    +0.000 A 
ENDBRANCH   2  10
BRANCH   7  17
ATOM     17  C   UNL     1       4.195  15.111  19.207  0.00  0.00    +0.000 A 
ATOM     18  C   UNL     1       4.699  14.725  17.956  0.00  0.00    +0.000 A 
ATOM     19  C   UNL     1       6.074  14.547  17.768  0.00  0.00    +0.000 A 
ATOM     20  C   UNL     1       6.962  14.761  18.821  0.00  0.00    +0.000 A 
ATOM     21  C   UNL     1       6.476  15.141  20.070  0.00  0.00    +0.000 A 
ATOM     22  C   UNL     1       5.100  15.310  20.271  0.00  0.00    +0.000 A 
BRANCH  22  23
ATOM     23  C   UNL     1       4.642  15.656  21.586  0.00  0.00    +0.000 C 
ATOM     24  N   UNL     1       4.301  15.923  22.666  0.00  0.00    +0.000 NA
ENDBRANCH  22  23
ENDBRANCH   7  17
BRANCH   1  25
ATOM     25  C   UNL     1       0.191  12.167  21.301  0.00  0.00    +0.000 C 
BRANCH  25  31
ATOM     26  C   UNL     1       2.005   8.558  18.466  0.00  0.00    +0.000 C 
ATOM     27  O   UNL     1       2.330   8.785  17.299  0.00  0.00    +0.000 OA
ATOM     28  N   UNL     1       1.327   9.482  19.244  0.00  0.00    +0.000 N 
ATOM     29  C   UNL     1       0.846  10.726  18.637  0.00  0.00    +0.000 C 
ATOM     30  C   UNL     1      -0.537  11.134  19.190  0.00  0.00    +0.000 C 
ATOM     31  N   UNL     1      -0.632  11.125  20.670  0.00  0.00    +0.000 NA
ATOM     32  C   UNL     1      -0.231   9.780  21.144  0.00  0.00    +0.000 C 
ATOM     33  C   UNL     1       1.185   9.384  20.701  0.00  0.00    +0.000 C 
BRANCH  26  34
ATOM     34  C   UNL     1       2.283   7.189  19.103  0.00  0.00    +0.000 C 
BRANCH  34  36
ATOM     35  C   UNL     1       3.091   5.166  18.180  0.00  0.00    +0.000 C 
ATOM     36  O   UNL     1       3.407   6.503  18.555  0.00  0.00    +0.000 OA
ENDBRANCH  34  36
ENDBRANCH  26  34
ENDBRANCH  25  31
ENDBRANCH   1  25
TORSDOF 7
ENDMDL
MODEL 9
REMARK VINA RESULT:      -6.5      3.593      8.515
REMARK  Name = 
REMARK  8 active torsions:
REMARK  status: ('A' for Active; 'I' for Inactive)
REMARK    1  A    between atoms: C_1  and  O_2
REMARK    2  A    between atoms: O_2  and  C_3
REMARK    3  A    between atoms: C_3  and  C_4
REMARK    4  A    between atoms: N_9  and  C_10
REMARK    5  A    between atoms: C_10  and  C_11
REMARK    6  A    between atoms: C_12  and  C_13
REMARK    7  A    between atoms: C_24  and  C_25
REMARK    8  A    between atoms: C_30  and  C_31
REMARK                            x       y       z     vdW  Elec       q    Type
REMARK                         _______ _______ _______ _____ _____    ______ ____
ROOT
ATOM      1  C   UNL     1       0.589  10.814  20.164  0.00  0.00    +0.000 A 
ATOM      2  C   UNL     1       0.891   9.476  20.382  0.00  0.00    +0.000 A 
ATOM      3  N   UNL     1       0.251   9.008  21.511  0.00  0.00    +0.000 NA
ATOM      4  C   UNL     1      -0.402  10.036  22.005  0.00  0.00    +0.000 A 
ATOM      5  C   UNL     1      -1.197  10.160  23.178  0.00  0.00    +0.000 A 
ATOM      6  C   UNL     1      -1.761  11.343  23.490  0.00  0.00    +0.000 A 
ATOM      7  C   UNL     1      -1.583  12.525  22.649  0.00  0.00    +0.000 A 
ATOM      8  C   UNL     1      -0.854  12.393  21.523  0.00  0.00    +0.000 A 
ATOM      9  N   UNL     1      -0.252  11.166  21.211  0.00  0.00    +0.000 N 
ENDROOT
BRANCH   2  10
ATOM     10  C   UNL     1       1.714   8.598  19.554  0.00  0.00    +0.000 A 
ATOM     11  C   UNL     1       2.109   8.930  18.251  0.00  0.00    +0.000 A 
ATOM     12  C   UNL     1       2.853   8.039  17.471  0.00  0.00    +0.000 A 
ATOM     13  C   UNL     1       3.239   6.814  18.004  0.00  0.00    +0.000 A 
ATOM     14 CL   UNL     1       4.150   5.717  17.042  0.00  0.00    +0.000 Cl
ATOM     15  C   UNL     1       2.896   6.479  19.310  0.00  0.00    +0.000 A 
ATOM     16  C   UNL     1       2.139   7.369  20.080  0.00  0.00    +0.000 A 
ENDBRANCH   2  10
BRANCH   7  17
ATOM     17  C   UNL     1      -2.062  13.875  23.015  0.00  0.00    +0.000 A 
ATOM     18  C   UNL     1      -1.161  14.820  23.528  0.00  0.00    +0.000 A 
ATOM     19  C   UNL     1      -1.602  16.097  23.893  0.00  0.00    +0.000 A 
ATOM     20  C   UNL     1      -2.943  16.448  23.742  0.00  0.00    +0.000 A 
ATOM     21  C   UNL     1      -3.850  15.518  23.237  0.00  0.00    +0.000 A 
ATOM     22  C   UNL     1      -3.420  14.234  22.880  0.00  0.00    +0.000 A 
BRANCH  22  23
ATOM     23  C   UNL     1      -4.397  13.295  22.410  0.00  0.00    +0.000 C 
ATOM     24  N   UNL     1      -5.216  12.557  22.036  0.00  0.00    +0.000 NA
ENDBRANCH  22  23
ENDBRANCH   7  17
BRANCH   1  25
ATOM     25  C   UNL     1       1.006  11.777  19.107  0.00  0.00    +0.000 C 
BRANCH  25  31
ATOM     26  C   UNL     1       2.184  16.552  18.699  0.00  0.00    +0.000 C 
ATOM     27  O   UNL     1       2.333  17.065  17.589  0.00  0.00    +0.000 OA
ATOM     28  N   UNL     1       2.034  15.185  18.875  0.00  0.00    +0.000 N 
ATOM     29  C   UNL     1       2.192  14.286  17.729  0.00  0.00    +0.000 C 
ATOM     30  C   UNL     1       2.914  12.979  18.124  0.00  0.00    +0.000 C 
ATOM     31  N   UNL     1       2.359  12.311  19.326  0.00  0.00    +0.000 NA
ATOM     32  C   UNL     1       2.362  13.292  20.435  0.00  0.00    +0.000 C 
ATOM     33  C   UNL     1       1.561  14.564  20.117  0.00  0.00    +0.000 C 
BRANCH  26  34
ATOM     34  C   UNL     1       2.227  17.411  19.971  0.00  0.00    +0.000 C 
BRANCH  34  36
ATOM     35  C   UNL     1       0.046  18.273  20.282  0.00  0.00    +0.000 C 
ATOM     36  O   UNL     1       1.394  18.568  19.926  0.00  0.00    +0.000 OA
ENDBRANCH  34  36
ENDBRANCH  26  34
ENDBRANCH  25  31
ENDBRANCH   1  25
TORSDOF 7
ENDMDL
