MODEL 1
REMARK VINA RESULT:      -6.5      0.000      0.000
REMARK  Name = 
REMARK  7 active torsions:
REMARK  status: ('A' for Active; 'I' for Inactive)
REMARK    1  A    between atoms: N_1  and  C_2
REMARK    2  A    between atoms: C_2  and  C_3
REMARK    3  A    between atoms: C_3  and  O_5
REMARK    4  A    between atoms: C_7  and  C_8
REMARK    5  A    between atoms: C_8  and  O_10
REMARK    6  A    between atoms: C_11  and  C_12
REMARK    7  A    between atoms: C_12  and  O_14
REMARK                            x       y       z     vdW  Elec       q    Type
REMARK                         _______ _______ _______ _____ _____    ______ ____
ROOT
ATOM      1  C   UNL     1       7.051   5.893  17.711  0.00  0.00    +0.000 C 
ATOM      2  C   UNL     1       5.526   5.797  17.808  0.00  0.00    +0.000 C 
ATOM      3  C   UNL     1       5.083   4.854  16.675  0.00  0.00    +0.000 C 
ATOM      4  C   UNL     1       6.349   4.135  16.175  0.00  0.00    +0.000 C 
ATOM      5  C   UNL     1       7.469   4.537  17.132  0.00  0.00    +0.000 C 
ENDROOT
BRANCH   1   6
ATOM      6  N   UNL     1       7.489   6.997  16.811  0.00  0.00    +0.000 NA
ATOM      7  H   UNL     1       7.367   7.891  17.302  0.00  0.00    +0.000 HD
ATOM      8  H   UNL     1       6.854   7.077  16.004  0.00  0.00    +0.000 HD
ENDBRANCH   1   6
BRANCH   1   9
ATOM      9  C   UNL     1       7.731   6.091  19.086  0.00  0.00    +0.000 C 
ATOM     10  O   UNL     1       7.601   5.373  20.060  0.00  0.00    +0.000 OA
BRANCH   9  11
ATOM     11  O   UNL     1       8.558   7.171  19.059  0.00  0.00    +0.000 OA
ATOM     12  H   UNL     1       8.576   7.532  19.980  0.00  0.00    +0.000 HD
ENDBRANCH   9  11
ENDBRANCH   1   9
BRANCH   3  13
ATOM     13  C   UNL     1       4.096   3.806  17.139  0.00  0.00    +0.000 C 
ATOM     14  O   UNL     1       2.887   3.889  17.001  0.00  0.00    +0.000 OA
BRANCH  13  15
ATOM     15  O   UNL     1       4.673   2.801  17.833  0.00  0.00    +0.000 OA
ATOM     16  H   UNL     1       5.036   2.068  17.299  0.00  0.00    +0.000 HD
ENDBRANCH  13  15
ENDBRANCH   3  13
BRANCH   4  17
ATOM     17  C   UNL     1       6.670   4.556  14.759  0.00  0.00    +0.000 C 
ATOM     18  O   UNL     1       7.616   5.275  14.468  0.00  0.00    +0.000 OA
BRANCH  17  19
ATOM     19  O   UNL     1       5.829   4.055  13.834  0.00  0.00    +0.000 OA
ATOM     20  H   UNL     1       5.504   4.694  13.169  0.00  0.00    +0.000 HD
ENDBRANCH  17  19
ENDBRANCH   4  17
TORSDOF 7
ENDMDL
MODEL 2
REMARK VINA RESULT:      -6.3      2.064      3.702
REMARK  Name = 
REMARK  7 active torsions:
REMARK  status: ('A' for Active; 'I' for Inactive)
REMARK    1  A    between atoms: N_1  and  C_2
REMARK    2  A    between atoms: C_2  and  C_3
REMARK    3  A    between atoms: C_3  and  O_5
REMARK    4  A    between atoms: C_7  and  C_8
REMARK    5  A    between atoms: C_8  and  O_10
REMARK    6  A    between atoms: C_11  and  C_12
REMARK    7  A    between atoms: C_12  and  O_14
REMARK                            x       y       z     vdW  Elec       q    Type
REMARK                         _______ _______ _______ _____ _____    ______ ____
ROOT
ATOM      1  C   UNL     1       5.687   5.036  17.441  0.00  0.00    +0.000 C 
ATOM      2  C   UNL     1       5.760   4.361  18.813  0.00  0.00    +0.000 C 
ATOM      3  C   UNL     1       4.392   3.691  19.035  0.00  0.00    +0.000 C 
ATOM      4  C   UNL     1       3.683   3.667  17.668  0.00  0.00    +0.000 C 
ATOM      5  C   UNL     1       4.709   4.159  16.651  0.00  0.00    +0.000 C 
ENDROOT
BRANCH   1   6
ATOM      6  N   UNL     1       5.174   6.433  17.527  0.00  0.00    +0.000 NA
ATOM      7  H   UNL     1       5.892   7.021  17.968  0.00  0.00    +0.000 HD
ATOM      8  H   UNL     1       4.382   6.486  18.184  0.00  0.00    +0.000 HD
ENDBRANCH   1   6
BRANCH   1   9
ATOM      9  C   UNL     1       7.050   5.066  16.710  0.00  0.00    +0.000 C 
ATOM     10  O   UNL     1       7.379   5.852  15.840  0.00  0.00    +0.000 OA
BRANCH   9  11
ATOM     11  O   UNL     1       7.880   4.110  17.206  0.00  0.00    +0.000 OA
ATOM     12  H   UNL     1       8.449   3.814  16.453  0.00  0.00    +0.000 HD
ENDBRANCH   9  11
ENDBRANCH   1   9
BRANCH   3  13
ATOM     13  C   UNL     1       4.512   2.267  19.530  0.00  0.00    +0.000 C 
ATOM     14  O   UNL     1       5.076   1.943  20.562  0.00  0.00    +0.000 OA
BRANCH  13  15
ATOM     15  O   UNL     1       4.027   1.357  18.659  0.00  0.00    +0.000 OA
ATOM     16  H   UNL     1       4.693   0.804  18.206  0.00  0.00    +0.000 HD
ENDBRANCH  13  15
ENDBRANCH   3  13
BRANCH   4  17
ATOM     17  C   UNL     1       2.467   4.565  17.688  0.00  0.00    +0.000 C 
ATOM     18  O   UNL     1       2.507   5.744  18.010  0.00  0.00    +0.000 OA
BRANCH  17  19
ATOM     19  O   UNL     1       1.330   3.956  17.303  0.00  0.00    +0.000 OA
ATOM     20  H   UNL     1       0.858   3.461  18.003  0.00  0.00    +0.000 HD
ENDBRANCH  17  19
ENDBRANCH   4  17
TORSDOF 7
ENDMDL
MODEL 3
REMARK VINA RESULT:      -6.3      0.355      1.164
REMARK  Name = 
REMARK  7 active torsions:
REMARK  status: ('A' for Active; 'I' for Inactive)
REMARK    1  A    between atoms: N_1  and  C_2
REMARK    2  A    between atoms: C_2  and  C_3
REMARK    3  A    between atoms: C_3  and  O_5
REMARK    4  A    between atoms: C_7  and  C_8
REMARK    5  A    between atoms: C_8  and  O_10
REMARK    6  A    between atoms: C_11  and  C_12
REMARK    7  A    between atoms: C_12  and  O_14
REMARK                            x       y       z     vdW  Elec       q    Type
REMARK                         _______ _______ _______ _____ _____    ______ ____
ROOT
ATOM      1  C   UNL     1       7.014   5.939  17.715  0.00  0.00    +0.000 C 
ATOM      2  C   UNL     1       5.489   5.954  17.847  0.00  0.00    +0.000 C 
ATOM      3  C   UNL     1       4.955   5.007  16.758  0.00  0.00    +0.000 C 
ATOM      4  C   UNL     1       6.156   4.185  16.257  0.00  0.00    +0.000 C 
ATOM      5  C   UNL     1       7.324   4.539  17.174  0.00  0.00    +0.000 C 
ENDROOT
BRANCH   1   6
ATOM      6  N   UNL     1       7.507   6.979  16.767  0.00  0.00    +0.000 NA
ATOM      7  H   UNL     1       7.176   7.898  17.085  0.00  0.00    +0.000 HD
ATOM      8  H   UNL     1       7.059   6.867  15.846  0.00  0.00    +0.000 HD
ENDBRANCH   1   6
BRANCH   1   9
ATOM      9  C   UNL     1       7.740   6.136  19.067  0.00  0.00    +0.000 C 
ATOM     10  O   UNL     1       7.646   5.413  20.042  0.00  0.00    +0.000 OA
BRANCH   9  11
ATOM     11  O   UNL     1       8.560   7.220  19.016  0.00  0.00    +0.000 OA
ATOM     12  H   UNL     1       9.448   6.914  19.327  0.00  0.00    +0.000 HD
ENDBRANCH   9  11
ENDBRANCH   1   9
BRANCH   3  13
ATOM     13  C   UNL     1       3.909   4.047  17.281  0.00  0.00    +0.000 C 
ATOM     14  O   UNL     1       4.068   2.841  17.375  0.00  0.00    +0.000 OA
BRANCH  13  15
ATOM     15  O   UNL     1       2.722   4.639  17.535  0.00  0.00    +0.000 OA
ATOM     16  H   UNL     1       2.639   5.568  17.246  0.00  0.00    +0.000 HD
ENDBRANCH  13  15
ENDBRANCH   3  13
BRANCH   4  17
ATOM     17  C   UNL     1       6.472   4.533  14.820  0.00  0.00    +0.000 C 
ATOM     18  O   UNL     1       5.717   4.294  13.888  0.00  0.00    +0.000 OA
BRANCH  17  19
ATOM     19  O   UNL     1       7.658   5.148  14.653  0.00  0.00    +0.000 OA
ATOM     20  H   UNL     1       7.982   5.198  13.732  0.00  0.00    +0.000 HD
ENDBRANCH  17  19
ENDBRANCH   4  17
TORSDOF 7
ENDMDL
MODEL 4
REMARK VINA RESULT:      -6.1      2.394      4.456
REMARK  Name = 
REMARK  7 active torsions:
REMARK  status: ('A' for Active; 'I' for Inactive)
REMARK    1  A    between atoms: N_1  and  C_2
REMARK    2  A    between atoms: C_2  and  C_3
REMARK    3  A    between atoms: C_3  and  O_5
REMARK    4  A    between atoms: C_7  and  C_8
REMARK    5  A    between atoms: C_8  and  O_10
REMARK    6  A    between atoms: C_11  and  C_12
REMARK    7  A    between atoms: C_12  and  O_14
REMARK                            x       y       z     vdW  Elec       q    Type
REMARK                         _______ _______ _______ _____ _____    ______ ____
ROOT
ATOM      1  C   UNL     1       4.167   3.437  18.207  0.00  0.00    +0.000 C 
ATOM      2  C   UNL     1       3.795   4.893  18.499  0.00  0.00    +0.000 C 
ATOM      3  C   UNL     1       4.945   5.750  17.943  0.00  0.00    +0.000 C 
ATOM      4  C   UNL     1       5.777   4.835  17.026  0.00  0.00    +0.000 C 
ATOM      5  C   UNL     1       5.005   3.522  16.926  0.00  0.00    +0.000 C 
ENDROOT
BRANCH   1   6
ATOM      6  N   UNL     1       4.966   2.828  19.308  0.00  0.00    +0.000 NA
ATOM      7  H   UNL     1       4.329   2.555  20.065  0.00  0.00    +0.000 HD
ATOM      8  H   UNL     1       5.572   3.537  19.747  0.00  0.00    +0.000 HD
ENDBRANCH   1   6
BRANCH   1   9
ATOM      9  C   UNL     1       2.935   2.538  17.950  0.00  0.00    +0.000 C 
ATOM     10  O   UNL     1       1.893   2.884  17.423  0.00  0.00    +0.000 OA
BRANCH   9  11
ATOM     11  O   UNL     1       3.181   1.263  18.353  0.00  0.00    +0.000 OA
ATOM     12  H   UNL     1       3.540   0.785  17.565  0.00  0.00    +0.000 HD
ENDBRANCH   9  11
ENDBRANCH   1   9
BRANCH   3  13
ATOM     13  C   UNL     1       4.456   6.923  17.123  0.00  0.00    +0.000 C 
ATOM     14  O   UNL     1       3.551   7.669  17.459  0.00  0.00    +0.000 OA
BRANCH  13  15
ATOM     15  O   UNL     1       5.047   7.009  15.911  0.00  0.00    +0.000 OA
ATOM     16  H   UNL     1       4.449   6.954  15.141  0.00  0.00    +0.000 HD
ENDBRANCH  13  15
ENDBRANCH   3  13
BRANCH   4  17
ATOM     17  C   UNL     1       7.153   4.611  17.611  0.00  0.00    +0.000 C 
ATOM     18  O   UNL     1       8.106   4.213  16.956  0.00  0.00    +0.000 OA
BRANCH  17  19
ATOM     19  O   UNL     1       7.246   4.904  18.922  0.00  0.00    +0.000 OA
ATOM     20  H   UNL     1       6.434   5.264  19.333  0.00  0.00    +0.000 HD
ENDBRANCH  17  19
ENDBRANCH   4  17
TORSDOF 7
ENDMDL
MODEL 5
REMARK VINA RESULT:      -6.1      1.114      3.297
REMARK  Name = 
REMARK  7 active torsions:
REMARK  status: ('A' for Active; 'I' for Inactive)
REMARK    1  A    between atoms: N_1  and  C_2
REMARK    2  A    between atoms: C_2  and  C_3
REMARK    3  A    between atoms: C_3  and  O_5
REMARK    4  A    between atoms: C_7  and  C_8
REMARK    5  A    between atoms: C_8  and  O_10
REMARK    6  A    between atoms: C_11  and  C_12
REMARK    7  A    between atoms: C_12  and  O_14
REMARK                            x       y       z     vdW  Elec       q    Type
REMARK                         _______ _______ _______ _____ _____    ______ ____
ROOT
ATOM      1  C   UNL     1       6.803   5.385  17.913  0.00  0.00    +0.000 C 
ATOM      2  C   UNL     1       7.404   4.589  16.751  0.00  0.00    +0.000 C 
ATOM      3  C   UNL     1       6.214   4.089  15.913  0.00  0.00    +0.000 C 
ATOM      4  C   UNL     1       4.981   4.889  16.372  0.00  0.00    +0.000 C 
ATOM      5  C   UNL     1       5.501   5.952  17.337  0.00  0.00    +0.000 C 
ENDROOT
BRANCH   1   6
ATOM      6  N   UNL     1       6.513   4.523  19.095  0.00  0.00    +0.000 NA
ATOM      7  H   UNL     1       6.079   5.100  19.824  0.00  0.00    +0.000 HD
ATOM      8  H   UNL     1       7.391   4.204  19.530  0.00  0.00    +0.000 HD
ENDBRANCH   1   6
BRANCH   1   9
ATOM      9  C   UNL     1       7.706   6.552  18.376  0.00  0.00    +0.000 C 
ATOM     10  O   UNL     1       7.804   7.639  17.838  0.00  0.00    +0.000 OA
BRANCH   9  11
ATOM     11  O   UNL     1       8.362   6.224  19.522  0.00  0.00    +0.000 OA
ATOM     12  H   UNL     1       8.595   5.266  19.447  0.00  0.00    +0.000 HD
ENDBRANCH   9  11
ENDBRANCH   1   9
BRANCH   3  13
ATOM     13  C   UNL     1       6.404   4.324  14.431  0.00  0.00    +0.000 C 
ATOM     14  O   UNL     1       5.930   3.618  13.556  0.00  0.00    +0.000 OA
BRANCH  13  15
ATOM     15  O   UNL     1       7.252   5.338  14.156  0.00  0.00    +0.000 OA
ATOM     16  H   UNL     1       8.190   5.183  14.383  0.00  0.00    +0.000 HD
ENDBRANCH  13  15
ENDBRANCH   3  13
BRANCH   4  17
ATOM     17  C   UNL     1       3.986   3.978  17.055  0.00  0.00    +0.000 C 
ATOM     18  O   UNL     1       2.821   4.289  17.261  0.00  0.00    +0.000 OA
BRANCH  17  19
ATOM     19  O   UNL     1       4.491   2.781  17.408  0.00  0.00    +0.000 OA
ATOM     20  H   UNL     1       3.832   2.082  17.592  0.00  0.00    +0.000 HD
ENDBRANCH  17  19
ENDBRANCH   4  17
TORSDOF 7
ENDMDL
MODEL 6
REMARK VINA RESULT:      -6.1      1.576      3.954
REMARK  Name = 
REMARK  7 active torsions:
REMARK  status: ('A' for Active; 'I' for Inactive)
REMARK    1  A    between atoms: N_1  and  C_2
REMARK    2  A    between atoms: C_2  and  C_3
REMARK    3  A    between atoms: C_3  and  O_5
REMARK    4  A    between atoms: C_7  and  C_8
REMARK    5  A    between atoms: C_8  and  O_10
REMARK    6  A    between atoms: C_11  and  C_12
REMARK    7  A    between atoms: C_12  and  O_14
REMARK                            x       y       z     vdW  Elec       q    Type
REMARK                         _______ _______ _______ _____ _____    ______ ____
ROOT
ATOM      1  C   UNL     1       5.031   4.598  17.857  0.00  0.00    +0.000 C 
ATOM      2  C   UNL     1       4.950   4.715  16.333  0.00  0.00    +0.000 C 
ATOM      3  C   UNL     1       6.221   5.464  15.893  0.00  0.00    +0.000 C 
ATOM      4  C   UNL     1       7.184   5.449  17.094  0.00  0.00    +0.000 C 
ATOM      5  C   UNL     1       6.536   4.549  18.144  0.00  0.00    +0.000 C 
ENDROOT
BRANCH   1   6
ATOM      6  N   UNL     1       4.411   5.765  18.545  0.00  0.00    +0.000 NA
ATOM      7  H   UNL     1       4.633   5.714  19.546  0.00  0.00    +0.000 HD
ATOM      8  H   UNL     1       3.383   5.692  18.522  0.00  0.00    +0.000 HD
ENDBRANCH   1   6
BRANCH   1   9
ATOM      9  C   UNL     1       4.367   3.309  18.399  0.00  0.00    +0.000 C 
ATOM     10  O   UNL     1       3.357   2.787  17.965  0.00  0.00    +0.000 OA
BRANCH   9  11
ATOM     11  O   UNL     1       5.100   2.787  19.420  0.00  0.00    +0.000 OA
ATOM     12  H   UNL     1       4.787   1.857  19.541  0.00  0.00    +0.000 HD
ENDBRANCH   9  11
ENDBRANCH   1   9
BRANCH   3  13
ATOM     13  C   UNL     1       6.914   4.802  14.723  0.00  0.00    +0.000 C 
ATOM     14  O   UNL     1       7.788   5.328  14.053  0.00  0.00    +0.000 OA
BRANCH  13  15
ATOM     15  O   UNL     1       6.395   3.596  14.409  0.00  0.00    +0.000 OA
ATOM     16  H   UNL     1       5.459   3.458  14.654  0.00  0.00    +0.000 HD
ENDBRANCH  13  15
ENDBRANCH   3  13
BRANCH   4  17
ATOM     17  C   UNL     1       7.382   6.849  17.630  0.00  0.00    +0.000 C 
ATOM     18  O   UNL     1       8.170   7.122  18.525  0.00  0.00    +0.000 OA
BRANCH  17  19
ATOM     19  O   UNL     1       6.624   7.781  17.022  0.00  0.00    +0.000 OA
ATOM     20  H   UNL     1       5.968   8.230  17.593  0.00  0.00    +0.000 HD
ENDBRANCH  17  19
ENDBRANCH   4  17
TORSDOF 7
ENDMDL
MODEL 7
REMARK VINA RESULT:      -6.1      2.547      4.133
REMARK  Name = 
REMARK  7 active torsions:
REMARK  status: ('A' for Active; 'I' for Inactive)
REMARK    1  A    between atoms: N_1  and  C_2
REMARK    2  A    between atoms: C_2  and  C_3
REMARK    3  A    between atoms: C_3  and  O_5
REMARK    4  A    between atoms: C_7  and  C_8
REMARK    5  A    between atoms: C_8  and  O_10
REMARK    6  A    between atoms: C_11  and  C_12
REMARK    7  A    between atoms: C_12  and  O_14
REMARK                            x       y       z     vdW  Elec       q    Type
REMARK                         _______ _______ _______ _____ _____    ______ ____
ROOT
ATOM      1  C   UNL     1       5.715   4.850  17.244  0.00  0.00    +0.000 C 
ATOM      2  C   UNL     1       4.424   5.639  17.009  0.00  0.00    +0.000 C 
ATOM      3  C   UNL     1       3.526   5.366  18.229  0.00  0.00    +0.000 C 
ATOM      4  C   UNL     1       4.425   4.736  19.309  0.00  0.00    +0.000 C 
ATOM      5  C   UNL     1       5.851   4.814  18.770  0.00  0.00    +0.000 C 
ENDROOT
BRANCH   1   6
ATOM      6  N   UNL     1       5.635   3.466  16.698  0.00  0.00    +0.000 NA
ATOM      7  H   UNL     1       4.901   3.436  15.981  0.00  0.00    +0.000 HD
ATOM      8  H   UNL     1       5.295   2.814  17.419  0.00  0.00    +0.000 HD
ENDBRANCH   1   6
BRANCH   1   9
ATOM      9  C   UNL     1       6.961   5.538  16.637  0.00  0.00    +0.000 C 
ATOM     10  O   UNL     1       7.155   6.738  16.569  0.00  0.00    +0.000 OA
BRANCH   9  11
ATOM     11  O   UNL     1       7.864   4.610  16.220  0.00  0.00    +0.000 OA
ATOM     12  H   UNL     1       7.837   4.617  15.232  0.00  0.00    +0.000 HD
ENDBRANCH   9  11
ENDBRANCH   1   9
BRANCH   3  13
ATOM     13  C   UNL     1       2.915   6.627  18.799  0.00  0.00    +0.000 C 
ATOM     14  O   UNL     1       2.720   7.647  18.159  0.00  0.00    +0.000 OA
BRANCH  13  15
ATOM     15  O   UNL     1       2.700   6.560  20.130  0.00  0.00    +0.000 OA
ATOM     16  H   UNL     1       2.936   7.358  20.640  0.00  0.00    +0.000 HD
ENDBRANCH  13  15
ENDBRANCH   3  13
BRANCH   4  17
ATOM     17  C   UNL     1       4.019   3.302  19.563  0.00  0.00    +0.000 C 
ATOM     18  O   UNL     1       2.856   2.940  19.667  0.00  0.00    +0.000 OA
BRANCH  17  19
ATOM     19  O   UNL     1       5.056   2.447  19.650  0.00  0.00    +0.000 OA
ATOM     20  H   UNL     1       5.448   2.348  20.541  0.00  0.00    +0.000 HD
ENDBRANCH  17  19
ENDBRANCH   4  17
TORSDOF 7
ENDMDL
MODEL 8
REMARK VINA RESULT:      -6.1      2.096      3.923
REMARK  Name = 
REMARK  7 active torsions:
REMARK  status: ('A' for Active; 'I' for Inactive)
REMARK    1  A    between atoms: N_1  and  C_2
REMARK    2  A    between atoms: C_2  and  C_3
REMARK    3  A    between atoms: C_3  and  O_5
REMARK    4  A    between atoms: C_7  and  C_8
REMARK    5  A    between atoms: C_8  and  O_10
REMARK    6  A    between atoms: C_11  and  C_12
REMARK    7  A    between atoms: C_12  and  O_14
REMARK                            x       y       z     vdW  Elec       q    Type
REMARK                         _______ _______ _______ _____ _____    ______ ____
ROOT
ATOM      1  C   UNL     1       5.462   4.718  17.307  0.00  0.00    +0.000 C 
ATOM      2  C   UNL     1       5.556   4.391  18.800  0.00  0.00    +0.000 C 
ATOM      3  C   UNL     1       4.142   3.970  19.237  0.00  0.00    +0.000 C 
ATOM      4  C   UNL     1       3.340   3.704  17.950  0.00  0.00    +0.000 C 
ATOM      5  C   UNL     1       4.340   3.804  16.801  0.00  0.00    +0.000 C 
ENDROOT
BRANCH   1   6
ATOM      6  N   UNL     1       5.114   6.146  17.065  0.00  0.00    +0.000 NA
ATOM      7  H   UNL     1       4.820   6.253  16.087  0.00  0.00    +0.000 HD
ATOM      8  H   UNL     1       5.955   6.737  17.130  0.00  0.00    +0.000 HD
ENDBRANCH   1   6
BRANCH   1   9
ATOM      9  C   UNL     1       6.765   4.400  16.536  0.00  0.00    +0.000 C 
ATOM     10  O   UNL     1       7.892   4.429  16.994  0.00  0.00    +0.000 OA
BRANCH   9  11
ATOM     11  O   UNL     1       6.485   4.026  15.259  0.00  0.00    +0.000 OA
ATOM     12  H   UNL     1       5.718   4.577  14.967  0.00  0.00    +0.000 HD
ENDBRANCH   9  11
ENDBRANCH   1   9
BRANCH   3  13
ATOM     13  C   UNL     1       4.139   2.704  20.066  0.00  0.00    +0.000 C 
ATOM     14  O   UNL     1       3.336   2.464  20.952  0.00  0.00    +0.000 OA
BRANCH  13  15
ATOM     15  O   UNL     1       5.189   1.896  19.808  0.00  0.00    +0.000 OA
ATOM     16  H   UNL     1       5.002   1.122  19.243  0.00  0.00    +0.000 HD
ENDBRANCH  13  15
ENDBRANCH   3  13
BRANCH   4  17
ATOM     17  C   UNL     1       2.235   4.725  17.796  0.00  0.00    +0.000 C 
ATOM     18  O   UNL     1       2.354   5.899  18.116  0.00  0.00    +0.000 OA
BRANCH  17  19
ATOM     19  O   UNL     1       1.103   4.231  17.259  0.00  0.00    +0.000 OA
ATOM     20  H   UNL     1       0.536   4.880  16.798  0.00  0.00    +0.000 HD
ENDBRANCH  17  19
ENDBRANCH   4  17
TORSDOF 7
ENDMDL
MODEL 9
REMARK VINA RESULT:      -6.0      2.305      3.774
REMARK  Name = 
REMARK  7 active torsions:
REMARK  status: ('A' for Active; 'I' for Inactive)
REMARK    1  A    between atoms: N_1  and  C_2
REMARK    2  A    between atoms: C_2  and  C_3
REMARK    3  A    between atoms: C_3  and  O_5
REMARK    4  A    between atoms: C_7  and  C_8
REMARK    5  A    between atoms: C_8  and  O_10
REMARK    6  A    between atoms: C_11  and  C_12
REMARK    7  A    between atoms: C_12  and  O_14
REMARK                            x       y       z     vdW  Elec       q    Type
REMARK                         _______ _______ _______ _____ _____    ______ ____
ROOT
ATOM      1  C   UNL     1       6.207   5.570  17.837  0.00  0.00    +0.000 C 
ATOM      2  C   UNL     1       4.929   6.247  17.333  0.00  0.00    +0.000 C 
ATOM      3  C   UNL     1       3.776   5.662  18.168  0.00  0.00    +0.000 C 
ATOM      4  C   UNL     1       4.417   4.945  19.370  0.00  0.00    +0.000 C 
ATOM      5  C   UNL     1       5.908   5.270  19.311  0.00  0.00    +0.000 C 
ENDROOT
BRANCH   1   6
ATOM      6  N   UNL     1       6.503   4.308  17.102  0.00  0.00    +0.000 NA
ATOM      7  H   UNL     1       5.658   3.725  17.095  0.00  0.00    +0.000 HD
ATOM      8  H   UNL     1       7.184   3.739  17.625  0.00  0.00    +0.000 HD
ENDBRANCH   1   6
BRANCH   1   9
ATOM      9  C   UNL     1       7.451   6.485  17.746  0.00  0.00    +0.000 C 
ATOM     10  O   UNL     1       7.798   7.127  16.772  0.00  0.00    +0.000 OA
BRANCH   9  11
ATOM     11  O   UNL     1       8.104   6.525  18.939  0.00  0.00    +0.000 OA
ATOM     12  H   UNL     1       8.975   6.959  18.766  0.00  0.00    +0.000 HD
ENDBRANCH   9  11
ENDBRANCH   1   9
BRANCH   3  13
ATOM     13  C   UNL     1       2.839   6.725  18.696  0.00  0.00    +0.000 C 
ATOM     14  O   UNL     1       2.353   7.614  18.017  0.00  0.00    +0.000 OA
BRANCH  13  15
ATOM     15  O   UNL     1       2.671   6.670  20.035  0.00  0.00    +0.000 OA
ATOM     16  H   UNL     1       3.449   6.918  20.573  0.00  0.00    +0.000 HD
ENDBRANCH  13  15
ENDBRANCH   3  13
BRANCH   4  17
ATOM     17  C   UNL     1       4.185   3.453  19.280  0.00  0.00    +0.000 C 
ATOM     18  O   UNL     1       3.116   2.957  18.953  0.00  0.00    +0.000 OA
BRANCH  17  19
ATOM     19  O   UNL     1       5.268   2.711  19.580  0.00  0.00    +0.000 OA
ATOM     20  H   UNL     1       6.130   3.098  19.325  0.00  0.00    +0.000 HD
ENDBRANCH  17  19
ENDBRANCH   4  17
TORSDOF 7
ENDMDL
