MODEL 1
REMARK VINA RESULT:      -7.3      0.000      0.000
REMARK  Name = 
REMARK  3 active torsions:
REMARK  status: ('A' for Active; 'I' for Inactive)
REMARK    1  A    between atoms: C_1  and  O_2
REMARK    2  A    between atoms: O_2  and  C_3
REMARK    3  A    between atoms: C_6  and  C_7
REMARK                            x       y       z     vdW  Elec       q    Type
REMARK                         _______ _______ _______ _____ _____    ______ ____
ROOT
ATOM      1  C   UNL     1       2.527   4.952  19.060  0.00  0.00    +0.000 C 
ATOM      2  N   UNL     1       2.235   5.161  20.307  0.00  0.00    +0.000 NA
ATOM      3  N   UNL     1       1.324   4.309  20.874  0.00  0.00    +0.000 N 
ATOM      4  C   UNL     1       1.889   3.048  21.055  0.00  0.00    +0.000 C 
ATOM      5  O   UNL     1       2.578   2.737  22.024  0.00  0.00    +0.000 OA
ATOM      6  C   UNL     1       1.767   2.136  19.849  0.00  0.00    +0.000 C 
ATOM      7  C   UNL     1       1.131   2.756  18.609  0.00  0.00    +0.000 C 
ATOM      8  C   UNL     1       1.741   4.065  18.091  0.00  0.00    +0.000 C 
ATOM      9  H   UNL     1       0.453   4.306  20.350  0.00  0.00    +0.000 HD
ENDROOT
BRANCH   1  13
ATOM     10  C   UNL     1       6.225   6.467  17.553  0.00  0.00    +0.000 A 
ATOM     11  C   UNL     1       6.202   5.574  18.626  0.00  0.00    +0.000 A 
ATOM     12  C   UNL     1       4.982   5.126  19.132  0.00  0.00    +0.000 A 
ATOM     13  C   UNL     1       3.782   5.555  18.544  0.00  0.00    +0.000 A 
ATOM     14  C   UNL     1       3.796   6.421  17.455  0.00  0.00    +0.000 A 
ATOM     15  C   UNL     1       5.024   6.874  16.964  0.00  0.00    +0.000 A 
BRANCH  10  17
ATOM     16  C   UNL     1       7.896   8.153  17.633  0.00  0.00    +0.000 C 
ATOM     17  O   UNL     1       7.350   7.005  16.993  0.00  0.00    +0.000 OA
ENDBRANCH  10  17
ENDBRANCH   1  13
TORSDOF 2
ENDMDL
MODEL 2
REMARK VINA RESULT:      -7.3      1.533      1.733
REMARK  Name = 
REMARK  3 active torsions:
REMARK  status: ('A' for Active; 'I' for Inactive)
REMARK    1  A    between atoms: C_1  and  O_2
REMARK    2  A    between atoms: O_2  and  C_3
REMARK    3  A    between atoms: C_6  and  C_7
REMARK                            x       y       z     vdW  Elec       q    Type
REMARK                         _______ _______ _______ _____ _____    ______ ____
ROOT
ATOM      1  C   UNL     1       2.395   4.719  18.731  0.00  0.00    +0.000 C 
ATOM      2  N   UNL     1       2.434   5.128  19.962  0.00  0.00    +0.000 NA
ATOM      3  N   UNL     1       1.552   4.542  20.831  0.00  0.00    +0.000 N 
ATOM      4  C   UNL     1       1.931   3.226  21.091  0.00  0.00    +0.000 C 
ATOM      5  O   UNL     1       2.764   2.907  21.936  0.00  0.00    +0.000 OA
ATOM      6  C   UNL     1       1.390   2.217  20.097  0.00  0.00    +0.000 C 
ATOM      7  C   UNL     1       0.596   2.795  18.929  0.00  0.00    +0.000 C 
ATOM      8  C   UNL     1       1.274   3.891  18.096  0.00  0.00    +0.000 C 
ATOM      9  H   UNL     1       0.595   4.645  20.502  0.00  0.00    +0.000 HD
ENDROOT
BRANCH   1  13
ATOM     10  C   UNL     1       5.699   5.404  16.112  0.00  0.00    +0.000 A 
ATOM     11  C   UNL     1       5.244   4.109  16.366  0.00  0.00    +0.000 A 
ATOM     12  C   UNL     1       4.191   3.903  17.259  0.00  0.00    +0.000 A 
ATOM     13  C   UNL     1       3.578   5.002  17.880  0.00  0.00    +0.000 A 
ATOM     14  C   UNL     1       4.006   6.298  17.612  0.00  0.00    +0.000 A 
ATOM     15  C   UNL     1       5.069   6.492  16.725  0.00  0.00    +0.000 A 
BRANCH  10  17
ATOM     16  C   UNL     1       7.016   4.836  14.220  0.00  0.00    +0.000 C 
ATOM     17  O   UNL     1       6.741   5.732  15.291  0.00  0.00    +0.000 OA
ENDBRANCH  10  17
ENDBRANCH   1  13
TORSDOF 2
ENDMDL
MODEL 3
REMARK VINA RESULT:      -7.2      1.584      1.746
REMARK  Name = 
REMARK  3 active torsions:
REMARK  status: ('A' for Active; 'I' for Inactive)
REMARK    1  A    between atoms: C_1  and  O_2
REMARK    2  A    between atoms: O_2  and  C_3
REMARK    3  A    between atoms: C_6  and  C_7
REMARK                            x       y       z     vdW  Elec       q    Type
REMARK                         _______ _______ _______ _____ _____    ______ ____
ROOT
ATOM      1  C   UNL     1       2.835   4.597  19.015  0.00  0.00    +0.000 C 
ATOM      2  N   UNL     1       2.975   4.897  20.270  0.00  0.00    +0.000 NA
ATOM      3  N   UNL     1       1.997   4.452  21.119  0.00  0.00    +0.000 N 
ATOM      4  C   UNL     1       2.085   3.070  21.277  0.00  0.00    +0.000 C 
ATOM      5  O   UNL     1       2.838   2.518  22.076  0.00  0.00    +0.000 OA
ATOM      6  C   UNL     1       1.327   2.277  20.231  0.00  0.00    +0.000 C 
ATOM      7  C   UNL     1       0.664   3.096  19.128  0.00  0.00    +0.000 C 
ATOM      8  C   UNL     1       1.554   4.078  18.355  0.00  0.00    +0.000 C 
ATOM      9  H   UNL     1       1.082   4.782  20.824  0.00  0.00    +0.000 HD
ENDROOT
BRANCH   1  13
ATOM     10  C   UNL     1       6.421   4.699  16.698  0.00  0.00    +0.000 A 
ATOM     11  C   UNL     1       6.435   5.036  18.053  0.00  0.00    +0.000 A 
ATOM     12  C   UNL     1       5.245   5.039  18.781  0.00  0.00    +0.000 A 
ATOM     13  C   UNL     1       4.042   4.680  18.154  0.00  0.00    +0.000 A 
ATOM     14  C   UNL     1       4.022   4.315  16.812  0.00  0.00    +0.000 A 
ATOM     15  C   UNL     1       5.218   4.327  16.089  0.00  0.00    +0.000 A 
BRANCH  10  17
ATOM     16  C   UNL     1       7.252   4.813  14.476  0.00  0.00    +0.000 C 
ATOM     17  O   UNL     1       7.509   4.695  15.871  0.00  0.00    +0.000 OA
ENDBRANCH  10  17
ENDBRANCH   1  13
TORSDOF 2
ENDMDL
MODEL 4
REMARK VINA RESULT:      -7.2      0.158      1.221
REMARK  Name = 
REMARK  3 active torsions:
REMARK  status: ('A' for Active; 'I' for Inactive)
REMARK    1  A    between atoms: C_1  and  O_2
REMARK    2  A    between atoms: O_2  and  C_3
REMARK    3  A    between atoms: C_6  and  C_7
REMARK                            x       y       z     vdW  Elec       q    Type
REMARK                         _______ _______ _______ _____ _____    ______ ____
ROOT
ATOM      1  C   UNL     1       2.573   4.905  19.008  0.00  0.00    +0.000 C 
ATOM      2  N   UNL     1       2.269   5.227  20.228  0.00  0.00    +0.000 NA
ATOM      3  N   UNL     1       1.287   4.485  20.831  0.00  0.00    +0.000 N 
ATOM      4  C   UNL     1       1.757   3.205  21.118  0.00  0.00    +0.000 C 
ATOM      5  O   UNL     1       2.400   2.921  22.126  0.00  0.00    +0.000 OA
ATOM      6  C   UNL     1       1.597   2.215  19.981  0.00  0.00    +0.000 C 
ATOM      7  C   UNL     1       1.035   2.783  18.681  0.00  0.00    +0.000 C 
ATOM      8  C   UNL     1       1.747   4.005  18.085  0.00  0.00    +0.000 C 
ATOM      9  H   UNL     1       0.431   4.503  20.284  0.00  0.00    +0.000 HD
ENDROOT
BRANCH   1  13
ATOM     10  C   UNL     1       6.249   6.490  17.518  0.00  0.00    +0.000 A 
ATOM     11  C   UNL     1       5.028   6.856  16.948  0.00  0.00    +0.000 A 
ATOM     12  C   UNL     1       3.842   6.293  17.420  0.00  0.00    +0.000 A 
ATOM     13  C   UNL     1       3.879   5.379  18.484  0.00  0.00    +0.000 A 
ATOM     14  C   UNL     1       5.088   5.030  19.078  0.00  0.00    +0.000 A 
ATOM     15  C   UNL     1       6.271   5.591  18.589  0.00  0.00    +0.000 A 
BRANCH  10  17
ATOM     16  C   UNL     1       7.847   8.248  17.548  0.00  0.00    +0.000 C 
ATOM     17  O   UNL     1       7.477   6.941  17.122  0.00  0.00    +0.000 OA
ENDBRANCH  10  17
ENDBRANCH   1  13
TORSDOF 2
ENDMDL
MODEL 5
REMARK VINA RESULT:      -7.1      1.636      1.999
REMARK  Name = 
REMARK  3 active torsions:
REMARK  status: ('A' for Active; 'I' for Inactive)
REMARK    1  A    between atoms: C_1  and  O_2
REMARK    2  A    between atoms: O_2  and  C_3
REMARK    3  A    between atoms: C_6  and  C_7
REMARK                            x       y       z     vdW  Elec       q    Type
REMARK                         _______ _______ _______ _____ _____    ______ ____
ROOT
ATOM      1  C   UNL     1       2.590   4.668  18.616  0.00  0.00    +0.000 C 
ATOM      2  N   UNL     1       2.853   4.957  19.853  0.00  0.00    +0.000 NA
ATOM      3  N   UNL     1       2.077   4.348  20.803  0.00  0.00    +0.000 N 
ATOM      4  C   UNL     1       2.392   2.993  20.889  0.00  0.00    +0.000 C 
ATOM      5  O   UNL     1       3.321   2.546  21.558  0.00  0.00    +0.000 OA
ATOM      6  C   UNL     1       1.626   2.116  19.917  0.00  0.00    +0.000 C 
ATOM      7  C   UNL     1       0.705   2.848  18.946  0.00  0.00    +0.000 C 
ATOM      8  C   UNL     1       1.324   3.972  18.107  0.00  0.00    +0.000 C 
ATOM      9  H   UNL     1       1.091   4.539  20.645  0.00  0.00    +0.000 HD
ENDROOT
BRANCH   1  13
ATOM     10  C   UNL     1       5.744   5.603  15.892  0.00  0.00    +0.000 A 
ATOM     11  C   UNL     1       5.163   6.597  16.683  0.00  0.00    +0.000 A 
ATOM     12  C   UNL     1       4.105   6.279  17.534  0.00  0.00    +0.000 A 
ATOM     13  C   UNL     1       3.643   4.956  17.609  0.00  0.00    +0.000 A 
ATOM     14  C   UNL     1       4.234   3.953  16.847  0.00  0.00    +0.000 A 
ATOM     15  C   UNL     1       5.287   4.285  15.989  0.00  0.00    +0.000 A 
BRANCH  10  17
ATOM     16  C   UNL     1       6.995   4.745  14.065  0.00  0.00    +0.000 C 
ATOM     17  O   UNL     1       6.758   5.795  14.996  0.00  0.00    +0.000 OA
ENDBRANCH  10  17
ENDBRANCH   1  13
TORSDOF 2
ENDMDL
MODEL 6
REMARK VINA RESULT:      -7.1      2.124      2.637
REMARK  Name = 
REMARK  3 active torsions:
REMARK  status: ('A' for Active; 'I' for Inactive)
REMARK    1  A    between atoms: C_1  and  O_2
REMARK    2  A    between atoms: O_2  and  C_3
REMARK    3  A    between atoms: C_6  and  C_7
REMARK                            x       y       z     vdW  Elec       q    Type
REMARK                         _______ _______ _______ _____ _____    ______ ____
ROOT
ATOM      1  C   UNL     1       3.915   2.910  18.881  0.00  0.00    +0.000 C 
ATOM      2  N   UNL     1       3.196   2.194  18.072  0.00  0.00    +0.000 NA
ATOM      3  N   UNL     1       2.143   1.514  18.626  0.00  0.00    +0.000 N 
ATOM      4  C   UNL     1       1.132   2.402  18.989  0.00  0.00    +0.000 C 
ATOM      5  O   UNL     1       0.276   2.821  18.213  0.00  0.00    +0.000 OA
ATOM      6  C   UNL     1       1.291   2.987  20.379  0.00  0.00    +0.000 C 
ATOM      7  C   UNL     1       2.560   2.590  21.126  0.00  0.00    +0.000 C 
ATOM      8  C   UNL     1       3.896   2.827  20.410  0.00  0.00    +0.000 C 
ATOM      9  H   UNL     1       2.458   0.907  19.378  0.00  0.00    +0.000 HD
ENDROOT
BRANCH   1  13
ATOM     10  C   UNL     1       6.174   6.049  17.068  0.00  0.00    +0.000 A 
ATOM     11  C   UNL     1       5.257   5.305  16.323  0.00  0.00    +0.000 A 
ATOM     12  C   UNL     1       4.561   4.255  16.924  0.00  0.00    +0.000 A 
ATOM     13  C   UNL     1       4.769   3.966  18.281  0.00  0.00    +0.000 A 
ATOM     14  C   UNL     1       5.659   4.720  19.039  0.00  0.00    +0.000 A 
ATOM     15  C   UNL     1       6.360   5.761  18.425  0.00  0.00    +0.000 A 
BRANCH  10  17
ATOM     16  C   UNL     1       7.670   7.830  17.548  0.00  0.00    +0.000 C 
ATOM     17  O   UNL     1       6.942   7.073  16.588  0.00  0.00    +0.000 OA
ENDBRANCH  10  17
ENDBRANCH   1  13
TORSDOF 2
ENDMDL
MODEL 7
REMARK VINA RESULT:      -7.0      2.084      2.366
REMARK  Name = 
REMARK  3 active torsions:
REMARK  status: ('A' for Active; 'I' for Inactive)
REMARK    1  A    between atoms: C_1  and  O_2
REMARK    2  A    between atoms: O_2  and  C_3
REMARK    3  A    between atoms: C_6  and  C_7
REMARK                            x       y       z     vdW  Elec       q    Type
REMARK                         _______ _______ _______ _____ _____    ______ ____
ROOT
ATOM      1  C   UNL     1       3.938   3.062  18.906  0.00  0.00    +0.000 C 
ATOM      2  N   UNL     1       3.299   2.292  18.080  0.00  0.00    +0.000 NA
ATOM      3  N   UNL     1       2.302   1.517  18.611  0.00  0.00    +0.000 N 
ATOM      4  C   UNL     1       1.210   2.309  18.963  0.00  0.00    +0.000 C 
ATOM      5  O   UNL     1       0.333   2.658  18.176  0.00  0.00    +0.000 OA
ATOM      6  C   UNL     1       1.294   2.893  20.360  0.00  0.00    +0.000 C 
ATOM      7  C   UNL     1       2.581   2.603  21.126  0.00  0.00    +0.000 C 
ATOM      8  C   UNL     1       3.902   2.963  20.434  0.00  0.00    +0.000 C 
ATOM      9  H   UNL     1       2.656   0.933  19.364  0.00  0.00    +0.000 HD
ENDROOT
BRANCH   1  13
ATOM     10  C   UNL     1       6.344   6.204  17.300  0.00  0.00    +0.000 A 
ATOM     11  C   UNL     1       6.556   5.732  18.597  0.00  0.00    +0.000 A 
ATOM     12  C   UNL     1       5.730   4.735  19.119  0.00  0.00    +0.000 A 
ATOM     13  C   UNL     1       4.705   4.194  18.328  0.00  0.00    +0.000 A 
ATOM     14  C   UNL     1       4.505   4.637  17.025  0.00  0.00    +0.000 A 
ATOM     15  C   UNL     1       5.330   5.644  16.517  0.00  0.00    +0.000 A 
BRANCH  10  17
ATOM     16  C   UNL     1       7.758   8.097  17.544  0.00  0.00    +0.000 C 
ATOM     17  O   UNL     1       7.058   7.197  16.691  0.00  0.00    +0.000 OA
ENDBRANCH  10  17
ENDBRANCH   1  13
TORSDOF 2
ENDMDL
MODEL 8
REMARK VINA RESULT:      -6.9      2.432      6.015
REMARK  Name = 
REMARK  3 active torsions:
REMARK  status: ('A' for Active; 'I' for Inactive)
REMARK    1  A    between atoms: C_1  and  O_2
REMARK    2  A    between atoms: O_2  and  C_3
REMARK    3  A    between atoms: C_6  and  C_7
REMARK                            x       y       z     vdW  Elec       q    Type
REMARK                         _______ _______ _______ _____ _____    ______ ____
ROOT
ATOM      1  C   UNL     1       4.613   5.264  17.089  0.00  0.00    +0.000 C 
ATOM      2  N   UNL     1       5.300   4.422  16.380  0.00  0.00    +0.000 NA
ATOM      3  N   UNL     1       6.476   4.882  15.850  0.00  0.00    +0.000 N 
ATOM      4  C   UNL     1       7.426   5.051  16.856  0.00  0.00    +0.000 C 
ATOM      5  O   UNL     1       8.134   4.145  17.290  0.00  0.00    +0.000 OA
ATOM      6  C   UNL     1       7.376   6.406  17.535  0.00  0.00    +0.000 C 
ATOM      7  C   UNL     1       6.253   7.335  17.082  0.00  0.00    +0.000 C 
ATOM      8  C   UNL     1       4.824   6.781  17.132  0.00  0.00    +0.000 C 
ATOM      9  H   UNL     1       6.320   5.709  15.280  0.00  0.00    +0.000 HD
ENDROOT
BRANCH   1  13
ATOM     10  C   UNL     1       1.707   3.445  19.636  0.00  0.00    +0.000 A 
ATOM     11  C   UNL     1       1.672   3.247  18.254  0.00  0.00    +0.000 A 
ATOM     12  C   UNL     1       2.604   3.885  17.435  0.00  0.00    +0.000 A 
ATOM     13  C   UNL     1       3.588   4.706  18.006  0.00  0.00    +0.000 A 
ATOM     14  C   UNL     1       3.649   4.888  19.384  0.00  0.00    +0.000 A 
ATOM     15  C   UNL     1       2.703   4.253  20.194  0.00  0.00    +0.000 A 
BRANCH  10  17
ATOM     16  C   UNL     1       1.352   2.588  21.822  0.00  0.00    +0.000 C 
ATOM     17  O   UNL     1       0.831   2.908  20.537  0.00  0.00    +0.000 OA
ENDBRANCH  10  17
ENDBRANCH   1  13
TORSDOF 2
ENDMDL
MODEL 9
REMARK VINA RESULT:      -6.9      2.252      2.843
REMARK  Name = 
REMARK  3 active torsions:
REMARK  status: ('A' for Active; 'I' for Inactive)
REMARK    1  A    between atoms: C_1  and  O_2
REMARK    2  A    between atoms: O_2  and  C_3
REMARK    3  A    between atoms: C_6  and  C_7
REMARK                            x       y       z     vdW  Elec       q    Type
REMARK                         _______ _______ _______ _____ _____    ______ ____
ROOT
ATOM      1  C   UNL     1       4.254   4.181  19.353  0.00  0.00    +0.000 C 
ATOM      2  N   UNL     1       4.170   2.976  19.829  0.00  0.00    +0.000 NA
ATOM      3  N   UNL     1       3.080   2.700  20.611  0.00  0.00    +0.000 N 
ATOM      4  C   UNL     1       1.927   2.641  19.830  0.00  0.00    +0.000 C 
ATOM      5  O   UNL     1       1.567   1.640  19.214  0.00  0.00    +0.000 OA
ATOM      6  C   UNL     1       1.250   3.981  19.621  0.00  0.00    +0.000 C 
ATOM      7  C   UNL     1       1.969   5.189  20.214  0.00  0.00    +0.000 C 
ATOM      8  C   UNL     1       3.439   5.389  19.823  0.00  0.00    +0.000 C 
ATOM      9  H   UNL     1       3.021   3.346  21.394  0.00  0.00    +0.000 HD
ENDROOT
BRANCH   1  13
ATOM     10  C   UNL     1       6.688   4.951  15.929  0.00  0.00    +0.000 A 
ATOM     11  C   UNL     1       5.343   4.601  15.788  0.00  0.00    +0.000 A 
ATOM     12  C   UNL     1       4.577   4.311  16.917  0.00  0.00    +0.000 A 
ATOM     13  C   UNL     1       5.155   4.394  18.192  0.00  0.00    +0.000 A 
ATOM     14  C   UNL     1       6.485   4.769  18.346  0.00  0.00    +0.000 A 
ATOM     15  C   UNL     1       7.247   5.047  17.207  0.00  0.00    +0.000 A 
BRANCH  10  17
ATOM     16  C   UNL     1       7.159   4.781  13.608  0.00  0.00    +0.000 C 
ATOM     17  O   UNL     1       7.549   5.221  14.903  0.00  0.00    +0.000 OA
ENDBRANCH  10  17
ENDBRANCH   1  13
TORSDOF 2
ENDMDL
