MODEL 1
REMARK VINA RESULT:      -6.5      0.000      0.000
REMARK  Name = 
REMARK  6 active torsions:
REMARK  status: ('A' for Active; 'I' for Inactive)
REMARK    1  A    between atoms: C_1  and  C_2
REMARK    2  A    between atoms: C_4  and  C_5
REMARK    3  A    between atoms: N_7  and  C_8
REMARK    4  A    between atoms: C_8  and  C_9
REMARK    5  A    between atoms: C_8  and  C_10
REMARK    6  A    between atoms: C_10  and  C_11
REMARK                            x       y       z     vdW  Elec       q    Type
REMARK                         _______ _______ _______ _____ _____    ______ ____
ROOT
ATOM      1  C   UNL     1       5.067   4.352  18.248  0.00  0.00    +0.000 C 
ATOM      2  O   UNL     1       5.557   3.824  19.244  0.00  0.00    +0.000 OA
ATOM      3  N   UNL     1       3.764   4.794  18.203  0.00  0.00    +0.000 N 
ATOM      4  H   UNL     1       3.426   5.102  17.294  0.00  0.00    +0.000 HD
ENDROOT
BRANCH   1   8
ATOM      5  C   UNL     1       6.518   4.066  13.493  0.00  0.00    +0.000 C 
ATOM      6  C   UNL     1       6.403   4.395  14.934  0.00  0.00    +0.000 A 
ATOM      7  N   UNL     1       5.531   3.919  15.803  0.00  0.00    +0.000 NA
ATOM      8  C   UNL     1       5.813   4.555  17.007  0.00  0.00    +0.000 A 
ATOM      9  C   UNL     1       6.888   5.404  16.844  0.00  0.00    +0.000 A 
ATOM     10  N   UNL     1       7.247   5.299  15.533  0.00  0.00    +0.000 N 
ATOM     11  H   UNL     1       7.996   5.800  15.074  0.00  0.00    +0.000 HD
ENDBRANCH   1   8
BRANCH   3  12
ATOM     12  C   UNL     1       2.848   4.623  19.333  0.00  0.00    +0.000 C 
ATOM     13  C   UNL     1       2.459   5.997  19.882  0.00  0.00    +0.000 C 
BRANCH  12  14
ATOM     14  C   UNL     1       1.580   3.796  19.013  0.00  0.00    +0.000 C 
ATOM     15  C   UNL     1       1.765   2.293  18.999  0.00  0.00    +0.000 C 
ATOM     16  F   UNL     1       0.617   4.086  19.936  0.00  0.00    +0.000 F 
ATOM     17  F   UNL     1       1.073   4.184  17.810  0.00  0.00    +0.000 F 
ENDBRANCH  12  14
ENDBRANCH   3  12
TORSDOF 3
ENDMDL
MODEL 2
REMARK VINA RESULT:      -6.5      0.989      1.123
REMARK  Name = 
REMARK  6 active torsions:
REMARK  status: ('A' for Active; 'I' for Inactive)
REMARK    1  A    between atoms: C_1  and  C_2
REMARK    2  A    between atoms: C_4  and  C_5
REMARK    3  A    between atoms: N_7  and  C_8
REMARK    4  A    between atoms: C_8  and  C_9
REMARK    5  A    between atoms: C_8  and  C_10
REMARK    6  A    between atoms: C_10  and  C_11
REMARK                            x       y       z     vdW  Elec       q    Type
REMARK                         _______ _______ _______ _____ _____    ______ ____
ROOT
ATOM      1  C   UNL     1       4.941   4.108  18.763  0.00  0.00    +0.000 C 
ATOM      2  O   UNL     1       5.208   3.321  19.668  0.00  0.00    +0.000 OA
ATOM      3  N   UNL     1       3.828   4.917  18.783  0.00  0.00    +0.000 N 
ATOM      4  H   UNL     1       3.638   5.439  17.930  0.00  0.00    +0.000 HD
ENDROOT
BRANCH   1   8
ATOM      5  C   UNL     1       6.436   4.208  14.014  0.00  0.00    +0.000 C 
ATOM      6  C   UNL     1       6.371   4.285  15.493  0.00  0.00    +0.000 A 
ATOM      7  N   UNL     1       5.346   3.998  16.272  0.00  0.00    +0.000 NA
ATOM      8  C   UNL     1       5.772   4.258  17.569  0.00  0.00    +0.000 A 
ATOM      9  C   UNL     1       7.084   4.685  17.550  0.00  0.00    +0.000 A 
ATOM     10  N   UNL     1       7.449   4.703  16.237  0.00  0.00    +0.000 N 
ATOM     11  H   UNL     1       8.348   4.982  15.868  0.00  0.00    +0.000 HD
ENDBRANCH   1   8
BRANCH   3  12
ATOM     12  C   UNL     1       2.849   4.863  19.871  0.00  0.00    +0.000 C 
ATOM     13  C   UNL     1       2.246   6.254  20.078  0.00  0.00    +0.000 C 
BRANCH  12  14
ATOM     14  C   UNL     1       1.726   3.818  19.673  0.00  0.00    +0.000 C 
ATOM     15  C   UNL     1       1.336   3.540  18.236  0.00  0.00    +0.000 C 
ATOM     16  F   UNL     1       2.118   2.635  20.231  0.00  0.00    +0.000 F 
ATOM     17  F   UNL     1       0.615   4.204  20.360  0.00  0.00    +0.000 F 
ENDBRANCH  12  14
ENDBRANCH   3  12
TORSDOF 3
ENDMDL
MODEL 3
REMARK VINA RESULT:      -6.5      0.754      1.001
REMARK  Name = 
REMARK  6 active torsions:
REMARK  status: ('A' for Active; 'I' for Inactive)
REMARK    1  A    between atoms: C_1  and  C_2
REMARK    2  A    between atoms: C_4  and  C_5
REMARK    3  A    between atoms: N_7  and  C_8
REMARK    4  A    between atoms: C_8  and  C_9
REMARK    5  A    between atoms: C_8  and  C_10
REMARK    6  A    between atoms: C_10  and  C_11
REMARK                            x       y       z     vdW  Elec       q    Type
REMARK                         _______ _______ _______ _____ _____    ______ ____
ROOT
ATOM      1  C   UNL     1       5.245   4.511  18.129  0.00  0.00    +0.000 C 
ATOM      2  O   UNL     1       5.787   4.079  19.144  0.00  0.00    +0.000 OA
ATOM      3  N   UNL     1       3.936   4.933  18.105  0.00  0.00    +0.000 N 
ATOM      4  H   UNL     1       3.553   5.155  17.188  0.00  0.00    +0.000 HD
ENDROOT
BRANCH   1   8
ATOM      5  C   UNL     1       6.426   3.900  13.330  0.00  0.00    +0.000 C 
ATOM      6  C   UNL     1       6.403   4.312  14.754  0.00  0.00    +0.000 A 
ATOM      7  N   UNL     1       5.558   3.926  15.692  0.00  0.00    +0.000 NA
ATOM      8  C   UNL     1       5.933   4.610  16.842  0.00  0.00    +0.000 A 
ATOM      9  C   UNL     1       7.035   5.396  16.577  0.00  0.00    +0.000 A 
ATOM     10  N   UNL     1       7.319   5.204  15.258  0.00  0.00    +0.000 N 
ATOM     11  H   UNL     1       8.064   5.643  14.735  0.00  0.00    +0.000 HD
ENDBRANCH   1   8
BRANCH   3  12
ATOM     12  C   UNL     1       3.073   4.853  19.286  0.00  0.00    +0.000 C 
ATOM     13  C   UNL     1       2.563   6.253  19.635  0.00  0.00    +0.000 C 
BRANCH  12  14
ATOM     14  C   UNL     1       1.886   3.870  19.150  0.00  0.00    +0.000 C 
ATOM     15  C   UNL     1       0.934   3.827  20.327  0.00  0.00    +0.000 C 
ATOM     16  F   UNL     1       1.160   4.204  18.043  0.00  0.00    +0.000 F 
ATOM     17  F   UNL     1       2.357   2.613  18.922  0.00  0.00    +0.000 F 
ENDBRANCH  12  14
ENDBRANCH   3  12
TORSDOF 3
ENDMDL
MODEL 4
REMARK VINA RESULT:      -6.5      1.310      1.348
REMARK  Name = 
REMARK  6 active torsions:
REMARK  status: ('A' for Active; 'I' for Inactive)
REMARK    1  A    between atoms: C_1  and  C_2
REMARK    2  A    between atoms: C_4  and  C_5
REMARK    3  A    between atoms: N_7  and  C_8
REMARK    4  A    between atoms: C_8  and  C_9
REMARK    5  A    between atoms: C_8  and  C_10
REMARK    6  A    between atoms: C_10  and  C_11
REMARK                            x       y       z     vdW  Elec       q    Type
REMARK                         _______ _______ _______ _____ _____    ______ ____
ROOT
ATOM      1  C   UNL     1       5.139   4.749  18.791  0.00  0.00    +0.000 C 
ATOM      2  O   UNL     1       5.631   5.326  19.757  0.00  0.00    +0.000 OA
ATOM      3  N   UNL     1       3.871   4.215  18.806  0.00  0.00    +0.000 N 
ATOM      4  H   UNL     1       3.610   3.654  17.998  0.00  0.00    +0.000 HD
ENDROOT
BRANCH   1   8
ATOM      5  C   UNL     1       6.118   3.924  13.978  0.00  0.00    +0.000 C 
ATOM      6  C   UNL     1       6.226   4.196  15.431  0.00  0.00    +0.000 A 
ATOM      7  N   UNL     1       5.250   4.244  16.318  0.00  0.00    +0.000 NA
ATOM      8  C   UNL     1       5.855   4.561  17.529  0.00  0.00    +0.000 A 
ATOM      9  C   UNL     1       7.217   4.678  17.351  0.00  0.00    +0.000 A 
ATOM     10  N   UNL     1       7.439   4.452  16.025  0.00  0.00    +0.000 N 
ATOM     11  H   UNL     1       8.333   4.475  15.554  0.00  0.00    +0.000 HD
ENDBRANCH   1   8
BRANCH   3  12
ATOM     12  C   UNL     1       3.027   4.257  20.003  0.00  0.00    +0.000 C 
ATOM     13  C   UNL     1       2.258   5.580  20.034  0.00  0.00    +0.000 C 
BRANCH  12  14
ATOM     14  C   UNL     1       2.049   3.066  20.141  0.00  0.00    +0.000 C 
ATOM     15  C   UNL     1       1.701   2.667  21.560  0.00  0.00    +0.000 C 
ATOM     16  F   UNL     1       0.883   3.374  19.500  0.00  0.00    +0.000 F 
ATOM     17  F   UNL     1       2.556   1.981  19.494  0.00  0.00    +0.000 F 
ENDBRANCH  12  14
ENDBRANCH   3  12
TORSDOF 3
ENDMDL
MODEL 5
REMARK VINA RESULT:      -6.4      1.246      1.485
REMARK  Name = 
REMARK  6 active torsions:
REMARK  status: ('A' for Active; 'I' for Inactive)
REMARK    1  A    between atoms: C_1  and  C_2
REMARK    2  A    between atoms: C_4  and  C_5
REMARK    3  A    between atoms: N_7  and  C_8
REMARK    4  A    between atoms: C_8  and  C_9
REMARK    5  A    between atoms: C_8  and  C_10
REMARK    6  A    between atoms: C_10  and  C_11
REMARK                            x       y       z     vdW  Elec       q    Type
REMARK                         _______ _______ _______ _____ _____    ______ ____
ROOT
ATOM      1  C   UNL     1       5.453   4.324  18.309  0.00  0.00    +0.000 C 
ATOM      2  O   UNL     1       6.115   4.394  19.341  0.00  0.00    +0.000 OA
ATOM      3  N   UNL     1       4.105   4.048  18.304  0.00  0.00    +0.000 N 
ATOM      4  H   UNL     1       3.681   3.892  17.392  0.00  0.00    +0.000 HD
ENDROOT
BRANCH   1   8
ATOM      5  C   UNL     1       6.367   3.890  13.433  0.00  0.00    +0.000 C 
ATOM      6  C   UNL     1       6.390   4.289  14.860  0.00  0.00    +0.000 A 
ATOM      7  N   UNL     1       5.668   3.794  15.848  0.00  0.00    +0.000 NA
ATOM      8  C   UNL     1       6.031   4.516  16.979  0.00  0.00    +0.000 A 
ATOM      9  C   UNL     1       7.003   5.438  16.650  0.00  0.00    +0.000 A 
ATOM     10  N   UNL     1       7.217   5.289  15.312  0.00  0.00    +0.000 N 
ATOM     11  H   UNL     1       7.861   5.823  14.745  0.00  0.00    +0.000 HD
ENDBRANCH   1   8
BRANCH   3  12
ATOM     12  C   UNL     1       3.366   3.769  19.538  0.00  0.00    +0.000 C 
ATOM     13  C   UNL     1       2.645   5.039  19.994  0.00  0.00    +0.000 C 
BRANCH  12  14
ATOM     14  C   UNL     1       2.366   2.593  19.436  0.00  0.00    +0.000 C 
ATOM     15  C   UNL     1       1.150   2.841  18.567  0.00  0.00    +0.000 C 
ATOM     16  F   UNL     1       3.015   1.501  18.937  0.00  0.00    +0.000 F 
ATOM     17  F   UNL     1       1.947   2.240  20.683  0.00  0.00    +0.000 F 
ENDBRANCH  12  14
ENDBRANCH   3  12
TORSDOF 3
ENDMDL
MODEL 6
REMARK VINA RESULT:      -6.3      1.603      1.744
REMARK  Name = 
REMARK  6 active torsions:
REMARK  status: ('A' for Active; 'I' for Inactive)
REMARK    1  A    between atoms: C_1  and  C_2
REMARK    2  A    between atoms: C_4  and  C_5
REMARK    3  A    between atoms: N_7  and  C_8
REMARK    4  A    between atoms: C_8  and  C_9
REMARK    5  A    between atoms: C_8  and  C_10
REMARK    6  A    between atoms: C_10  and  C_11
REMARK                            x       y       z     vdW  Elec       q    Type
REMARK                         _______ _______ _______ _____ _____    ______ ____
ROOT
ATOM      1  C   UNL     1       4.915   4.555  18.470  0.00  0.00    +0.000 C 
ATOM      2  O   UNL     1       5.754   4.180  19.286  0.00  0.00    +0.000 OA
ATOM      3  N   UNL     1       3.593   4.753  18.797  0.00  0.00    +0.000 N 
ATOM      4  H   UNL     1       2.962   4.944  18.021  0.00  0.00    +0.000 HD
ENDROOT
BRANCH   1   8
ATOM      5  C   UNL     1       6.067   3.904  13.669  0.00  0.00    +0.000 C 
ATOM      6  C   UNL     1       5.735   4.484  14.992  0.00  0.00    +0.000 A 
ATOM      7  N   UNL     1       5.550   3.843  16.131  0.00  0.00    +0.000 NA
ATOM      8  C   UNL     1       5.233   4.820  17.067  0.00  0.00    +0.000 A 
ATOM      9  C   UNL     1       5.256   6.062  16.468  0.00  0.00    +0.000 A 
ATOM     10  N   UNL     1       5.568   5.838  15.160  0.00  0.00    +0.000 N 
ATOM     11  H   UNL     1       5.654   6.537  14.435  0.00  0.00    +0.000 HD
ENDBRANCH   1   8
BRANCH   3  12
ATOM     12  C   UNL     1       3.077   4.482  20.141  0.00  0.00    +0.000 C 
ATOM     13  C   UNL     1       1.906   5.422  20.432  0.00  0.00    +0.000 C 
BRANCH  12  14
ATOM     14  C   UNL     1       2.658   3.013  20.385  0.00  0.00    +0.000 C 
ATOM     15  C   UNL     1       1.465   2.816  21.297  0.00  0.00    +0.000 C 
ATOM     16  F   UNL     1       2.362   2.432  19.185  0.00  0.00    +0.000 F 
ATOM     17  F   UNL     1       3.713   2.314  20.888  0.00  0.00    +0.000 F 
ENDBRANCH  12  14
ENDBRANCH   3  12
TORSDOF 3
ENDMDL
MODEL 7
REMARK VINA RESULT:      -6.3      1.309      1.463
REMARK  Name = 
REMARK  6 active torsions:
REMARK  status: ('A' for Active; 'I' for Inactive)
REMARK    1  A    between atoms: C_1  and  C_2
REMARK    2  A    between atoms: C_4  and  C_5
REMARK    3  A    between atoms: N_7  and  C_8
REMARK    4  A    between atoms: C_8  and  C_9
REMARK    5  A    between atoms: C_8  and  C_10
REMARK    6  A    between atoms: C_10  and  C_11
REMARK                            x       y       z     vdW  Elec       q    Type
REMARK                         _______ _______ _______ _____ _____    ______ ____
ROOT
ATOM      1  C   UNL     1       4.601   4.371  18.495  0.00  0.00    +0.000 C 
ATOM      2  O   UNL     1       5.278   3.706  19.275  0.00  0.00    +0.000 OA
ATOM      3  N   UNL     1       3.339   4.825  18.802  0.00  0.00    +0.000 N 
ATOM      4  H   UNL     1       2.820   5.259  18.041  0.00  0.00    +0.000 HD
ENDROOT
BRANCH   1   8
ATOM      5  C   UNL     1       6.264   4.077  13.810  0.00  0.00    +0.000 C 
ATOM      6  C   UNL     1       5.786   4.557  15.128  0.00  0.00    +0.000 A 
ATOM      7  N   UNL     1       5.490   3.834  16.192  0.00  0.00    +0.000 NA
ATOM      8  C   UNL     1       5.062   4.739  17.157  0.00  0.00    +0.000 A 
ATOM      9  C   UNL     1       5.132   6.021  16.654  0.00  0.00    +0.000 A 
ATOM     10  N   UNL     1       5.584   5.894  15.374  0.00  0.00    +0.000 N 
ATOM     11  H   UNL     1       5.737   6.645  14.714  0.00  0.00    +0.000 HD
ENDBRANCH   1   8
BRANCH   3  12
ATOM     12  C   UNL     1       2.688   4.505  20.075  0.00  0.00    +0.000 C 
ATOM     13  C   UNL     1       1.846   5.699  20.527  0.00  0.00    +0.000 C 
BRANCH  12  14
ATOM     14  C   UNL     1       1.826   3.220  20.051  0.00  0.00    +0.000 C 
ATOM     15  C   UNL     1       1.115   2.935  18.744  0.00  0.00    +0.000 C 
ATOM     16  F   UNL     1       2.622   2.147  20.332  0.00  0.00    +0.000 F 
ATOM     17  F   UNL     1       0.902   3.271  21.050  0.00  0.00    +0.000 F 
ENDBRANCH  12  14
ENDBRANCH   3  12
TORSDOF 3
ENDMDL
MODEL 8
REMARK VINA RESULT:      -6.3      1.751      2.416
REMARK  Name = 
REMARK  6 active torsions:
REMARK  status: ('A' for Active; 'I' for Inactive)
REMARK    1  A    between atoms: C_1  and  C_2
REMARK    2  A    between atoms: C_4  and  C_5
REMARK    3  A    between atoms: N_7  and  C_8
REMARK    4  A    between atoms: C_8  and  C_9
REMARK    5  A    between atoms: C_8  and  C_10
REMARK    6  A    between atoms: C_10  and  C_11
REMARK                            x       y       z     vdW  Elec       q    Type
REMARK                         _______ _______ _______ _____ _____    ______ ____
ROOT
ATOM      1  C   UNL     1       4.955   4.128  19.136  0.00  0.00    +0.000 C 
ATOM      2  O   UNL     1       5.194   3.001  19.562  0.00  0.00    +0.000 OA
ATOM      3  N   UNL     1       3.746   4.757  19.327  0.00  0.00    +0.000 N 
ATOM      4  H   UNL     1       3.613   5.635  18.828  0.00  0.00    +0.000 HD
ENDROOT
BRANCH   1   8
ATOM      5  C   UNL     1       7.798   7.893  17.542  0.00  0.00    +0.000 C 
ATOM      6  C   UNL     1       7.137   6.578  17.719  0.00  0.00    +0.000 A 
ATOM      7  N   UNL     1       6.185   6.262  18.577  0.00  0.00    +0.000 NA
ATOM      8  C   UNL     1       5.926   4.912  18.373  0.00  0.00    +0.000 A 
ATOM      9  C   UNL     1       6.728   4.433  17.358  0.00  0.00    +0.000 A 
ATOM     10  N   UNL     1       7.490   5.490  16.957  0.00  0.00    +0.000 N 
ATOM     11  H   UNL     1       8.197   5.480  16.235  0.00  0.00    +0.000 HD
ENDBRANCH   1   8
BRANCH   3  12
ATOM     12  C   UNL     1       2.632   4.103  20.018  0.00  0.00    +0.000 C 
ATOM     13  C   UNL     1       1.868   5.142  20.842  0.00  0.00    +0.000 C 
BRANCH  12  14
ATOM     14  C   UNL     1       1.661   3.337  19.089  0.00  0.00    +0.000 C 
ATOM     15  C   UNL     1       1.447   3.948  17.720  0.00  0.00    +0.000 C 
ATOM     16  F   UNL     1       2.130   2.068  18.907  0.00  0.00    +0.000 F 
ATOM     17  F   UNL     1       0.452   3.204  19.702  0.00  0.00    +0.000 F 
ENDBRANCH  12  14
ENDBRANCH   3  12
TORSDOF 3
ENDMDL
MODEL 9
REMARK VINA RESULT:      -6.2      2.055      3.067
REMARK  Name = 
REMARK  6 active torsions:
REMARK  status: ('A' for Active; 'I' for Inactive)
REMARK    1  A    between atoms: C_1  and  C_2
REMARK    2  A    between atoms: C_4  and  C_5
REMARK    3  A    between atoms: N_7  and  C_8
REMARK    4  A    between atoms: C_8  and  C_9
REMARK    5  A    between atoms: C_8  and  C_10
REMARK    6  A    between atoms: C_10  and  C_11
REMARK                            x       y       z     vdW  Elec       q    Type
REMARK                         _______ _______ _______ _____ _____    ______ ____
ROOT
ATOM      1  C   UNL     1       5.084   4.659  16.883  0.00  0.00    +0.000 C 
ATOM      2  O   UNL     1       4.949   4.410  15.688  0.00  0.00    +0.000 OA
ATOM      3  N   UNL     1       4.240   4.161  17.849  0.00  0.00    +0.000 N 
ATOM      4  H   UNL     1       4.369   4.527  18.791  0.00  0.00    +0.000 HD
ENDROOT
BRANCH   1   8
ATOM      5  C   UNL     1       8.026   8.596  17.686  0.00  0.00    +0.000 C 
ATOM      6  C   UNL     1       7.397   7.254  17.713  0.00  0.00    +0.000 A 
ATOM      7  N   UNL     1       6.380   6.824  16.989  0.00  0.00    +0.000 NA
ATOM      8  C   UNL     1       6.149   5.517  17.401  0.00  0.00    +0.000 A 
ATOM      9  C   UNL     1       7.065   5.167  18.370  0.00  0.00    +0.000 A 
ATOM     10  N   UNL     1       7.843   6.270  18.562  0.00  0.00    +0.000 N 
ATOM     11  H   UNL     1       8.607   6.359  19.218  0.00  0.00    +0.000 HD
ENDBRANCH   1   8
BRANCH   3  12
ATOM     12  C   UNL     1       3.082   3.329  17.513  0.00  0.00    +0.000 C 
ATOM     13  C   UNL     1       3.355   1.885  17.939  0.00  0.00    +0.000 C 
BRANCH  12  14
ATOM     14  C   UNL     1       1.743   3.820  18.113  0.00  0.00    +0.000 C 
ATOM     15  C   UNL     1       1.852   4.585  19.416  0.00  0.00    +0.000 C 
ATOM     16  F   UNL     1       1.122   4.632  17.208  0.00  0.00    +0.000 F 
ATOM     17  F   UNL     1       0.908   2.760  18.297  0.00  0.00    +0.000 F 
ENDBRANCH  12  14
ENDBRANCH   3  12
TORSDOF 3
ENDMDL
