MODEL 1
REMARK VINA RESULT:      -6.8      0.000      0.000
REMARK  Name = 
REMARK  4 active torsions:
REMARK  status: ('A' for Active; 'I' for Inactive)
REMARK    1  A    between atoms: N_1  and  C_2
REMARK    2  A    between atoms: C_5  and  O_6
REMARK    3  A    between atoms: C_7  and  C_8
REMARK    4  A    between atoms: C_8  and  N_9
REMARK                            x       y       z     vdW  Elec       q    Type
REMARK                         _______ _______ _______ _____ _____    ______ ____
ROOT
ATOM      1  C   UNL     1       7.426   5.776  19.242  0.00  0.00    +0.000 A 
ATOM      2  C   UNL     1       7.903   6.749  18.369  0.00  0.00    +0.000 A 
ATOM      3  C   UNL     1       7.151   7.116  17.255  0.00  0.00    +0.000 A 
ATOM      4  C   UNL     1       5.914   6.500  16.993  0.00  0.00    +0.000 A 
ATOM      5  C   UNL     1       5.420   5.496  17.853  0.00  0.00    +0.000 A 
ATOM      6  C   UNL     1       6.194   5.167  18.996  0.00  0.00    +0.000 A 
ENDROOT
BRANCH   1   7
ATOM      7  N   UNL     1       8.189   5.382  20.371  0.00  0.00    +0.000 N 
ATOM      8  H   UNL     1       7.966   4.513  20.878  0.00  0.00    +0.000 HD
ATOM      9  H   UNL     1       8.951   5.978  20.730  0.00  0.00    +0.000 HD
ENDBRANCH   1   7
BRANCH   4  10
ATOM     10  O   UNL     1       5.204   6.866  15.904  0.00  0.00    +0.000 OA
ATOM     11  H   UNL     1       4.336   7.291  15.969  0.00  0.00    +0.000 HD
ENDBRANCH   4  10
BRANCH   5  12
ATOM     12  C   UNL     1       4.082   4.828  17.474  0.00  0.00    +0.000 C 
BRANCH  12  13
ATOM     13  N   UNL     1       3.339   4.119  18.544  0.00  0.00    +0.000 NA
ATOM     14  C   UNL     1       2.420   5.018  19.299  0.00  0.00    +0.000 C 
ATOM     15  C   UNL     1       1.523   4.262  20.284  0.00  0.00    +0.000 C 
ATOM     16  C   UNL     1       0.847   3.078  19.597  0.00  0.00    +0.000 C 
ATOM     17  C   UNL     1       1.941   2.126  19.122  0.00  0.00    +0.000 C 
ATOM     18  C   UNL     1       2.807   2.817  18.071  0.00  0.00    +0.000 C 
ENDBRANCH  12  13
ENDBRANCH   5  12
TORSDOF 4
ENDMDL
MODEL 2
REMARK VINA RESULT:      -6.6      2.005      2.862
REMARK  Name = 
REMARK  4 active torsions:
REMARK  status: ('A' for Active; 'I' for Inactive)
REMARK    1  A    between atoms: N_1  and  C_2
REMARK    2  A    between atoms: C_5  and  O_6
REMARK    3  A    between atoms: C_7  and  C_8
REMARK    4  A    between atoms: C_8  and  N_9
REMARK                            x       y       z     vdW  Elec       q    Type
REMARK                         _______ _______ _______ _____ _____    ______ ____
ROOT
ATOM      1  C   UNL     1       5.862   6.364  16.512  0.00  0.00    +0.000 A 
ATOM      2  C   UNL     1       7.010   6.952  17.033  0.00  0.00    +0.000 A 
ATOM      3  C   UNL     1       7.511   6.537  18.264  0.00  0.00    +0.000 A 
ATOM      4  C   UNL     1       6.857   5.532  19.000  0.00  0.00    +0.000 A 
ATOM      5  C   UNL     1       5.678   4.935  18.502  0.00  0.00    +0.000 A 
ATOM      6  C   UNL     1       5.212   5.358  17.230  0.00  0.00    +0.000 A 
ENDROOT
BRANCH   1   7
ATOM      7  N   UNL     1       5.333   6.788  15.266  0.00  0.00    +0.000 N 
ATOM      8  H   UNL     1       5.554   6.276  14.400  0.00  0.00    +0.000 HD
ATOM      9  H   UNL     1       4.753   7.638  15.198  0.00  0.00    +0.000 HD
ENDBRANCH   1   7
BRANCH   4  10
ATOM     10  O   UNL     1       7.355   5.148  20.195  0.00  0.00    +0.000 OA
ATOM     11  H   UNL     1       7.618   4.235  20.378  0.00  0.00    +0.000 HD
ENDBRANCH   4  10
BRANCH   5  12
ATOM     12  C   UNL     1       4.986   3.878  19.387  0.00  0.00    +0.000 C 
BRANCH  12  13
ATOM     13  N   UNL     1       3.506   3.806  19.342  0.00  0.00    +0.000 NA
ATOM     14  C   UNL     1       3.001   2.407  19.245  0.00  0.00    +0.000 C 
ATOM     15  C   UNL     1       1.478   2.312  19.376  0.00  0.00    +0.000 C 
ATOM     16  C   UNL     1       0.993   3.090  20.597  0.00  0.00    +0.000 C 
ATOM     17  C   UNL     1       1.363   4.556  20.396  0.00  0.00    +0.000 C 
ATOM     18  C   UNL     1       2.883   4.703  20.347  0.00  0.00    +0.000 C 
ENDBRANCH  12  13
ENDBRANCH   5  12
TORSDOF 4
ENDMDL
MODEL 3
REMARK VINA RESULT:      -6.6      2.003      5.695
REMARK  Name = 
REMARK  4 active torsions:
REMARK  status: ('A' for Active; 'I' for Inactive)
REMARK    1  A    between atoms: N_1  and  C_2
REMARK    2  A    between atoms: C_5  and  O_6
REMARK    3  A    between atoms: C_7  and  C_8
REMARK    4  A    between atoms: C_8  and  N_9
REMARK                            x       y       z     vdW  Elec       q    Type
REMARK                         _______ _______ _______ _____ _____    ______ ____
ROOT
ATOM      1  C   UNL     1       1.558   2.995  18.947  0.00  0.00    +0.000 A 
ATOM      2  C   UNL     1       1.056   3.408  20.177  0.00  0.00    +0.000 A 
ATOM      3  C   UNL     1       1.327   4.690  20.648  0.00  0.00    +0.000 A 
ATOM      4  C   UNL     1       2.120   5.575  19.895  0.00  0.00    +0.000 A 
ATOM      5  C   UNL     1       2.658   5.172  18.653  0.00  0.00    +0.000 A 
ATOM      6  C   UNL     1       2.337   3.870  18.188  0.00  0.00    +0.000 A 
ENDROOT
BRANCH   1   7
ATOM      7  N   UNL     1       1.301   1.687  18.463  0.00  0.00    +0.000 N 
ATOM      8  H   UNL     1       1.990   1.202  17.870  0.00  0.00    +0.000 HD
ATOM      9  H   UNL     1       0.406   1.214  18.662  0.00  0.00    +0.000 HD
ENDBRANCH   1   7
BRANCH   4  10
ATOM     10  O   UNL     1       2.377   6.812  20.372  0.00  0.00    +0.000 OA
ATOM     11  H   UNL     1       1.777   7.558  20.228  0.00  0.00    +0.000 HD
ENDBRANCH   4  10
BRANCH   5  12
ATOM     12  C   UNL     1       3.562   6.175  17.908  0.00  0.00    +0.000 C 
BRANCH  12  13
ATOM     13  N   UNL     1       5.010   5.867  17.825  0.00  0.00    +0.000 NA
ATOM     14  C   UNL     1       5.769   6.880  17.037  0.00  0.00    +0.000 C 
ATOM     15  C   UNL     1       7.284   6.666  17.094  0.00  0.00    +0.000 C 
ATOM     16  C   UNL     1       7.750   6.490  18.538  0.00  0.00    +0.000 C 
ATOM     17  C   UNL     1       7.071   5.244  19.100  0.00  0.00    +0.000 C 
ATOM     18  C   UNL     1       5.558   5.454  19.140  0.00  0.00    +0.000 C 
ENDBRANCH  12  13
ENDBRANCH   5  12
TORSDOF 4
ENDMDL
MODEL 4
REMARK VINA RESULT:      -6.5      1.932      5.693
REMARK  Name = 
REMARK  4 active torsions:
REMARK  status: ('A' for Active; 'I' for Inactive)
REMARK    1  A    between atoms: N_1  and  C_2
REMARK    2  A    between atoms: C_5  and  O_6
REMARK    3  A    between atoms: C_7  and  C_8
REMARK    4  A    between atoms: C_8  and  N_9
REMARK                            x       y       z     vdW  Elec       q    Type
REMARK                         _______ _______ _______ _____ _____    ______ ____
ROOT
ATOM      1  C   UNL     1       1.325   3.043  19.042  0.00  0.00    +0.000 A 
ATOM      2  C   UNL     1       0.999   3.601  20.274  0.00  0.00    +0.000 A 
ATOM      3  C   UNL     1       1.462   4.872  20.608  0.00  0.00    +0.000 A 
ATOM      4  C   UNL     1       2.271   5.596  19.714  0.00  0.00    +0.000 A 
ATOM      5  C   UNL     1       2.632   5.041  18.467  0.00  0.00    +0.000 A 
ATOM      6  C   UNL     1       2.119   3.758  18.144  0.00  0.00    +0.000 A 
ENDROOT
BRANCH   1   7
ATOM      7  N   UNL     1       0.873   1.743  18.695  0.00  0.00    +0.000 N 
ATOM      8  H   UNL     1       1.502   0.931  18.770  0.00  0.00    +0.000 HD
ATOM      9  H   UNL     1      -0.078   1.595  18.323  0.00  0.00    +0.000 HD
ENDBRANCH   1   7
BRANCH   4  10
ATOM     10  O   UNL     1       2.715   6.824  20.060  0.00  0.00    +0.000 OA
ATOM     11  H   UNL     1       3.652   7.067  20.021  0.00  0.00    +0.000 HD
ENDBRANCH   4  10
BRANCH   5  12
ATOM     12  C   UNL     1       3.565   5.870  17.561  0.00  0.00    +0.000 C 
BRANCH  12  13
ATOM     13  N   UNL     1       4.899   6.235  18.097  0.00  0.00    +0.000 NA
ATOM     14  C   UNL     1       5.510   5.146  18.911  0.00  0.00    +0.000 C 
ATOM     15  C   UNL     1       6.955   5.445  19.318  0.00  0.00    +0.000 C 
ATOM     16  C   UNL     1       7.777   5.884  18.108  0.00  0.00    +0.000 C 
ATOM     17  C   UNL     1       7.159   7.170  17.565  0.00  0.00    +0.000 C 
ATOM     18  C   UNL     1       5.742   6.891  17.067  0.00  0.00    +0.000 C 
ENDBRANCH  12  13
ENDBRANCH   5  12
TORSDOF 4
ENDMDL
MODEL 5
REMARK VINA RESULT:      -6.5      1.746      2.111
REMARK  Name = 
REMARK  4 active torsions:
REMARK  status: ('A' for Active; 'I' for Inactive)
REMARK    1  A    between atoms: N_1  and  C_2
REMARK    2  A    between atoms: C_5  and  O_6
REMARK    3  A    between atoms: C_7  and  C_8
REMARK    4  A    between atoms: C_8  and  N_9
REMARK                            x       y       z     vdW  Elec       q    Type
REMARK                         _______ _______ _______ _____ _____    ______ ____
ROOT
ATOM      1  C   UNL     1       7.075   7.338  17.645  0.00  0.00    +0.000 A 
ATOM      2  C   UNL     1       7.950   6.479  18.302  0.00  0.00    +0.000 A 
ATOM      3  C   UNL     1       7.535   5.198  18.658  0.00  0.00    +0.000 A 
ATOM      4  C   UNL     1       6.228   4.765  18.371  0.00  0.00    +0.000 A 
ATOM      5  C   UNL     1       5.316   5.626  17.724  0.00  0.00    +0.000 A 
ATOM      6  C   UNL     1       5.779   6.913  17.347  0.00  0.00    +0.000 A 
ENDROOT
BRANCH   1   7
ATOM      7  N   UNL     1       7.481   8.651  17.291  0.00  0.00    +0.000 N 
ATOM      8  H   UNL     1       8.442   8.971  17.475  0.00  0.00    +0.000 HD
ATOM      9  H   UNL     1       6.811   9.319  16.881  0.00  0.00    +0.000 HD
ENDBRANCH   1   7
BRANCH   4  10
ATOM     10  O   UNL     1       5.843   3.521  18.731  0.00  0.00    +0.000 OA
ATOM     11  H   UNL     1       4.943   3.322  19.028  0.00  0.00    +0.000 HD
ENDBRANCH   4  10
BRANCH   5  12
ATOM     12  C   UNL     1       3.884   5.102  17.490  0.00  0.00    +0.000 C 
BRANCH  12  13
ATOM     13  N   UNL     1       3.204   4.428  18.622  0.00  0.00    +0.000 NA
ATOM     14  C   UNL     1       2.876   5.362  19.735  0.00  0.00    +0.000 C 
ATOM     15  C   UNL     1       2.020   4.712  20.826  0.00  0.00    +0.000 C 
ATOM     16  C   UNL     1       0.821   3.993  20.213  0.00  0.00    +0.000 C 
ATOM     17  C   UNL     1       1.352   2.889  19.304  0.00  0.00    +0.000 C 
ATOM     18  C   UNL     1       2.142   3.505  18.150  0.00  0.00    +0.000 C 
ENDBRANCH  12  13
ENDBRANCH   5  12
TORSDOF 4
ENDMDL
MODEL 6
REMARK VINA RESULT:      -6.5      0.748      1.560
REMARK  Name = 
REMARK  4 active torsions:
REMARK  status: ('A' for Active; 'I' for Inactive)
REMARK    1  A    between atoms: N_1  and  C_2
REMARK    2  A    between atoms: C_5  and  O_6
REMARK    3  A    between atoms: C_7  and  C_8
REMARK    4  A    between atoms: C_8  and  N_9
REMARK                            x       y       z     vdW  Elec       q    Type
REMARK                         _______ _______ _______ _____ _____    ______ ____
ROOT
ATOM      1  C   UNL     1       7.487   5.761  19.204  0.00  0.00    +0.000 A 
ATOM      2  C   UNL     1       7.921   6.802  18.390  0.00  0.00    +0.000 A 
ATOM      3  C   UNL     1       7.162   7.187  17.287  0.00  0.00    +0.000 A 
ATOM      4  C   UNL     1       5.962   6.523  16.977  0.00  0.00    +0.000 A 
ATOM      5  C   UNL     1       5.512   5.450  17.777  0.00  0.00    +0.000 A 
ATOM      6  C   UNL     1       6.291   5.102  18.911  0.00  0.00    +0.000 A 
ENDROOT
BRANCH   1   7
ATOM      7  N   UNL     1       8.257   5.348  20.322  0.00  0.00    +0.000 N 
ATOM      8  H   UNL     1       9.171   5.781  20.518  0.00  0.00    +0.000 HD
ATOM      9  H   UNL     1       7.936   4.581  20.932  0.00  0.00    +0.000 HD
ENDBRANCH   1   7
BRANCH   4  10
ATOM     10  O   UNL     1       5.245   6.908  15.899  0.00  0.00    +0.000 OA
ATOM     11  H   UNL     1       5.178   6.366  15.100  0.00  0.00    +0.000 HD
ENDBRANCH   4  10
BRANCH   5  12
ATOM     12  C   UNL     1       4.215   4.735  17.346  0.00  0.00    +0.000 C 
BRANCH  12  13
ATOM     13  N   UNL     1       3.110   4.661  18.333  0.00  0.00    +0.000 NA
ATOM     14  C   UNL     1       3.049   3.345  19.030  0.00  0.00    +0.000 C 
ATOM     15  C   UNL     1       2.027   3.321  20.170  0.00  0.00    +0.000 C 
ATOM     16  C   UNL     1       2.214   4.529  21.087  0.00  0.00    +0.000 C 
ATOM     17  C   UNL     1       1.974   5.787  20.257  0.00  0.00    +0.000 C 
ATOM     18  C   UNL     1       3.031   5.891  19.159  0.00  0.00    +0.000 C 
ENDBRANCH  12  13
ENDBRANCH   5  12
TORSDOF 4
ENDMDL
MODEL 7
REMARK VINA RESULT:      -6.5      2.249      3.066
REMARK  Name = 
REMARK  4 active torsions:
REMARK  status: ('A' for Active; 'I' for Inactive)
REMARK    1  A    between atoms: N_1  and  C_2
REMARK    2  A    between atoms: C_5  and  O_6
REMARK    3  A    between atoms: C_7  and  C_8
REMARK    4  A    between atoms: C_8  and  N_9
REMARK                            x       y       z     vdW  Elec       q    Type
REMARK                         _______ _______ _______ _____ _____    ______ ____
ROOT
ATOM      1  C   UNL     1       5.903   4.598  15.843  0.00  0.00    +0.000 A 
ATOM      2  C   UNL     1       7.238   4.561  16.232  0.00  0.00    +0.000 A 
ATOM      3  C   UNL     1       7.582   4.772  17.565  0.00  0.00    +0.000 A 
ATOM      4  C   UNL     1       6.591   5.040  18.526  0.00  0.00    +0.000 A 
ATOM      5  C   UNL     1       5.232   5.103  18.151  0.00  0.00    +0.000 A 
ATOM      6  C   UNL     1       4.911   4.852  16.792  0.00  0.00    +0.000 A 
ENDROOT
BRANCH   1   7
ATOM      7  N   UNL     1       5.539   4.399  14.486  0.00  0.00    +0.000 N 
ATOM      8  H   UNL     1       5.689   5.142  13.788  0.00  0.00    +0.000 HD
ATOM      9  H   UNL     1       5.082   3.526  14.183  0.00  0.00    +0.000 HD
ENDBRANCH   1   7
BRANCH   4  10
ATOM     10  O   UNL     1       6.947   5.248  19.812  0.00  0.00    +0.000 OA
ATOM     11  H   UNL     1       6.380   5.726  20.436  0.00  0.00    +0.000 HD
ENDBRANCH   4  10
BRANCH   5  12
ATOM     12  C   UNL     1       4.205   5.453  19.248  0.00  0.00    +0.000 C 
BRANCH  12  13
ATOM     13  N   UNL     1       3.030   4.562  19.400  0.00  0.00    +0.000 NA
ATOM     14  C   UNL     1       3.410   3.154  19.705  0.00  0.00    +0.000 C 
ATOM     15  C   UNL     1       2.205   2.269  20.036  0.00  0.00    +0.000 C 
ATOM     16  C   UNL     1       1.318   2.937  21.083  0.00  0.00    +0.000 C 
ATOM     17  C   UNL     1       0.800   4.245  20.492  0.00  0.00    +0.000 C 
ATOM     18  C   UNL     1       1.970   5.191  20.227  0.00  0.00    +0.000 C 
ENDBRANCH  12  13
ENDBRANCH   5  12
TORSDOF 4
ENDMDL
MODEL 8
REMARK VINA RESULT:      -6.5      2.169      2.648
REMARK  Name = 
REMARK  4 active torsions:
REMARK  status: ('A' for Active; 'I' for Inactive)
REMARK    1  A    between atoms: N_1  and  C_2
REMARK    2  A    between atoms: C_5  and  O_6
REMARK    3  A    between atoms: C_7  and  C_8
REMARK    4  A    between atoms: C_8  and  N_9
REMARK                            x       y       z     vdW  Elec       q    Type
REMARK                         _______ _______ _______ _____ _____    ______ ____
ROOT
ATOM      1  C   UNL     1       6.521   5.040  15.598  0.00  0.00    +0.000 A 
ATOM      2  C   UNL     1       7.583   4.743  16.447  0.00  0.00    +0.000 A 
ATOM      3  C   UNL     1       7.377   4.673  17.823  0.00  0.00    +0.000 A 
ATOM      4  C   UNL     1       6.105   4.915  18.369  0.00  0.00    +0.000 A 
ATOM      5  C   UNL     1       5.017   5.239  17.529  0.00  0.00    +0.000 A 
ATOM      6  C   UNL     1       5.251   5.271  16.130  0.00  0.00    +0.000 A 
ENDROOT
BRANCH   1   7
ATOM      7  N   UNL     1       6.719   5.129  14.196  0.00  0.00    +0.000 N 
ATOM      8  H   UNL     1       5.923   5.290  13.562  0.00  0.00    +0.000 HD
ATOM      9  H   UNL     1       7.654   4.993  13.783  0.00  0.00    +0.000 HD
ENDBRANCH   1   7
BRANCH   4  10
ATOM     10  O   UNL     1       5.928   4.849  19.706  0.00  0.00    +0.000 OA
ATOM     11  H   UNL     1       5.052   4.773  20.111  0.00  0.00    +0.000 HD
ENDBRANCH   4  10
BRANCH   5  12
ATOM     12  C   UNL     1       3.663   5.544  18.203  0.00  0.00    +0.000 C 
BRANCH  12  13
ATOM     13  N   UNL     1       3.008   4.448  18.958  0.00  0.00    +0.000 NA
ATOM     14  C   UNL     1       1.951   4.941  19.886  0.00  0.00    +0.000 C 
ATOM     15  C   UNL     1       1.153   3.808  20.537  0.00  0.00    +0.000 C 
ATOM     16  C   UNL     1       0.673   2.813  19.482  0.00  0.00    +0.000 C 
ATOM     17  C   UNL     1       1.904   2.207  18.816  0.00  0.00    +0.000 C 
ATOM     18  C   UNL     1       2.683   3.297  18.081  0.00  0.00    +0.000 C 
ENDBRANCH  12  13
ENDBRANCH   5  12
TORSDOF 4
ENDMDL
MODEL 9
REMARK VINA RESULT:      -6.4      1.903      2.150
REMARK  Name = 
REMARK  4 active torsions:
REMARK  status: ('A' for Active; 'I' for Inactive)
REMARK    1  A    between atoms: N_1  and  C_2
REMARK    2  A    between atoms: C_5  and  O_6
REMARK    3  A    between atoms: C_7  and  C_8
REMARK    4  A    between atoms: C_8  and  N_9
REMARK                            x       y       z     vdW  Elec       q    Type
REMARK                         _______ _______ _______ _____ _____    ______ ____
ROOT
ATOM      1  C   UNL     1       6.733   6.846  17.248  0.00  0.00    +0.000 A 
ATOM      2  C   UNL     1       7.470   5.688  17.022  0.00  0.00    +0.000 A 
ATOM      3  C   UNL     1       6.830   4.451  16.973  0.00  0.00    +0.000 A 
ATOM      4  C   UNL     1       5.440   4.358  17.166  0.00  0.00    +0.000 A 
ATOM      5  C   UNL     1       4.674   5.517  17.417  0.00  0.00    +0.000 A 
ATOM      6  C   UNL     1       5.351   6.764  17.429  0.00  0.00    +0.000 A 
ENDROOT
BRANCH   1   7
ATOM      7  N   UNL     1       7.374   8.109  17.314  0.00  0.00    +0.000 N 
ATOM      8  H   UNL     1       6.839   8.978  17.171  0.00  0.00    +0.000 HD
ATOM      9  H   UNL     1       8.392   8.180  17.466  0.00  0.00    +0.000 HD
ENDBRANCH   1   7
BRANCH   4  10
ATOM     10  O   UNL     1       4.839   3.149  17.121  0.00  0.00    +0.000 OA
ATOM     11  H   UNL     1       3.877   3.046  17.158  0.00  0.00    +0.000 HD
ENDBRANCH   4  10
BRANCH   5  12
ATOM     12  C   UNL     1       3.164   5.333  17.670  0.00  0.00    +0.000 C 
BRANCH  12  13
ATOM     13  N   UNL     1       2.750   4.279  18.628  0.00  0.00    +0.000 NA
ATOM     14  C   UNL     1       2.937   4.688  20.049  0.00  0.00    +0.000 C 
ATOM     15  C   UNL     1       2.350   3.680  21.041  0.00  0.00    +0.000 C 
ATOM     16  C   UNL     1       0.917   3.317  20.658  0.00  0.00    +0.000 C 
ATOM     17  C   UNL     1       0.953   2.663  19.280  0.00  0.00    +0.000 C 
ATOM     18  C   UNL     1       1.453   3.668  18.243  0.00  0.00    +0.000 C 
ENDBRANCH  12  13
ENDBRANCH   5  12
TORSDOF 4
ENDMDL
