MODEL 1
REMARK VINA RESULT:      -7.9      0.000      0.000
REMARK  Name = 
REMARK  12 active torsions:
REMARK  status: ('A' for Active; 'I' for Inactive)
REMARK    1  A    between atoms: N_1  and  C_2
REMARK    2  A    between atoms: C_2  and  C_3
REMARK    3  A    between atoms: C_2  and  C_10
REMARK    4  A    between atoms: C_3  and  C_4
REMARK    5  A    between atoms: C_15  and  C_16
REMARK    6  A    between atoms: N_18  and  CA_19
REMARK    7  A    between atoms: CA_19  and  CB_20
REMARK    8  A    between atoms: CA_19  and  C_25
REMARK    9  A    between atoms: CB_20  and  CG_21
REMARK   10  A    between atoms: CG_21  and  CD_22
REMARK   11  A    between atoms: CD_22  and  OE2_24
REMARK   12  A    between atoms: C_25  and  OXT_27
REMARK                            x       y       z     vdW  Elec       q    Type
REMARK                         _______ _______ _______ _____ _____    ______ ____
ROOT
ATOM      1  C   UNK A   0       1.664   7.896  20.284  0.00  0.00    +0.000 C 
ATOM      2  O   UNK A   0       1.533   8.804  19.472  0.00  0.00    +0.000 OA
ATOM      3  N   UNK A   0       2.341   6.746  19.874  0.00  0.00    +0.000 N 
ATOM      4  C   UNK A   0       2.985   6.715  18.550  0.00  0.00    +0.000 C 
ATOM      5  C   UNK A   0       2.599   5.451  17.765  0.00  0.00    +0.000 C 
ATOM      6  C   UNK A   0       2.955   4.183  18.569  0.00  0.00    +0.000 C 
ATOM      7  C   UNK A   0       2.203   4.269  19.905  0.00  0.00    +0.000 C 
ATOM      8  C   UNK A   0       2.578   5.543  20.682  0.00  0.00    +0.000 C 
ENDROOT
BRANCH   6   9
ATOM      9  C   UNK A   0       4.462   3.996  18.750  0.00  0.00    +0.000 C 
ATOM     10  O   UNK A   0       4.888   3.195  19.570  0.00  0.00    +0.000 OA
ATOM     11  N   GLU A   1       5.339   4.694  17.974  0.00  0.00    +0.000 N 
ATOM     12  H   GLU A   1       4.967   5.338  17.261  0.00  0.00    +0.000 HD
BRANCH  11  13
ATOM     13  CA  GLU A   1       6.785   4.559  18.101  0.00  0.00    +0.000 C 
BRANCH  13  14
ATOM     14  C   GLU A   1       7.326   5.699  18.931  0.00  0.00    +0.000 C 
ATOM     15  O   GLU A   1       7.550   6.777  18.405  0.00  0.00    +0.000 OA
BRANCH  14  16
ATOM     16  OXT GLU A   1       7.576   5.547  20.251  0.00  0.00    +0.000 OA
ATOM     17  HXT GLU A   1       8.116   4.822  20.592  0.00  0.00    +0.000 HD
ENDBRANCH  14  16
ENDBRANCH  13  14
BRANCH  13  18
ATOM     18  CB  GLU A   1       7.450   4.536  16.710  0.00  0.00    +0.000 C 
BRANCH  18  19
ATOM     19  CG  GLU A   1       6.496   4.105  15.580  0.00  0.00    +0.000 C 
BRANCH  19  20
ATOM     20  CD  GLU A   1       6.941   4.573  14.217  0.00  0.00    +0.000 C 
ATOM     21  OE1 GLU A   1       7.746   5.487  14.123  0.00  0.00    +0.000 OA
BRANCH  20  22
ATOM     22  OE2 GLU A   1       6.482   3.981  13.093  0.00  0.00    +0.000 OA
ATOM     23  HE2 GLU A   1       5.607   3.572  13.054  0.00  0.00    +0.000 HD
ENDBRANCH  20  22
ENDBRANCH  19  20
ENDBRANCH  18  19
ENDBRANCH  13  18
ENDBRANCH  11  13
ENDBRANCH   6   9
BRANCH   1  24
ATOM     24  C   UNK A   0       1.110   8.266  21.688  0.00  0.00    +0.000 C 
BRANCH  24  25
ATOM     25  N   UNK A   0       2.000   9.258  22.299  0.00  0.00    +0.000 NA
ATOM     26  H   UNK A   0       1.505   9.770  23.066  0.00  0.00    +0.000 HD
ATOM     27  H   UNK A   0       2.326   9.940  21.578  0.00  0.00    +0.000 HD
ENDBRANCH  24  25
BRANCH  24  28
ATOM     28  C   UNK A   0      -0.361   8.696  21.846  0.00  0.00    +0.000 C 
BRANCH  28  29
ATOM     29  C   UNK A   0      -0.649  10.178  21.857  0.00  0.00    +0.000 A 
ATOM     30  C   UNK A   0      -0.616  10.899  20.651  0.00  0.00    +0.000 A 
ATOM     31  C   UNK A   0      -0.959  12.251  20.625  0.00  0.00    +0.000 A 
ATOM     32  C   UNK A   0      -1.339  12.898  21.801  0.00  0.00    +0.000 A 
ATOM     33  C   UNK A   0      -1.371  12.194  23.008  0.00  0.00    +0.000 A 
ATOM     34  C   UNK A   0      -1.028  10.837  23.041  0.00  0.00    +0.000 A 
ENDBRANCH  28  29
ENDBRANCH  24  28
ENDBRANCH   1  24
TORSDOF 12
ENDMDL
MODEL 2
REMARK VINA RESULT:      -7.1      1.093      1.732
REMARK  Name = 
REMARK  12 active torsions:
REMARK  status: ('A' for Active; 'I' for Inactive)
REMARK    1  A    between atoms: N_1  and  C_2
REMARK    2  A    between atoms: C_2  and  C_3
REMARK    3  A    between atoms: C_2  and  C_10
REMARK    4  A    between atoms: C_3  and  C_4
REMARK    5  A    between atoms: C_15  and  C_16
REMARK    6  A    between atoms: N_18  and  CA_19
REMARK    7  A    between atoms: CA_19  and  CB_20
REMARK    8  A    between atoms: CA_19  and  C_25
REMARK    9  A    between atoms: CB_20  and  CG_21
REMARK   10  A    between atoms: CG_21  and  CD_22
REMARK   11  A    between atoms: CD_22  and  OE2_24
REMARK   12  A    between atoms: C_25  and  OXT_27
REMARK                            x       y       z     vdW  Elec       q    Type
REMARK                         _______ _______ _______ _____ _____    ______ ____
ROOT
ATOM      1  C   UNK A   0       1.409   8.959  19.721  0.00  0.00    +0.000 C 
ATOM      2  O   UNK A   0       1.280   9.759  18.801  0.00  0.00    +0.000 OA
ATOM      3  N   UNK A   0       2.111   7.779  19.467  0.00  0.00    +0.000 N 
ATOM      4  C   UNK A   0       2.779   7.598  18.167  0.00  0.00    +0.000 C 
ATOM      5  C   UNK A   0       2.427   6.240  17.537  0.00  0.00    +0.000 C 
ATOM      6  C   UNK A   0       2.787   5.087  18.496  0.00  0.00    +0.000 C 
ATOM      7  C   UNK A   0       2.009   5.323  19.800  0.00  0.00    +0.000 C 
ATOM      8  C   UNK A   0       2.350   6.689  20.420  0.00  0.00    +0.000 C 
ENDROOT
BRANCH   6   9
ATOM      9  C   UNK A   0       4.294   4.949  18.724  0.00  0.00    +0.000 C 
ATOM     10  O   UNK A   0       4.715   4.341  19.699  0.00  0.00    +0.000 OA
ATOM     11  N   GLU A   1       5.174   5.472  17.825  0.00  0.00    +0.000 N 
ATOM     12  H   GLU A   1       4.807   5.949  16.990  0.00  0.00    +0.000 HD
BRANCH  11  13
ATOM     13  CA  GLU A   1       6.620   5.373  17.989  0.00  0.00    +0.000 C 
BRANCH  13  14
ATOM     14  C   GLU A   1       7.244   6.732  17.776  0.00  0.00    +0.000 C 
ATOM     15  O   GLU A   1       8.087   7.139  18.558  0.00  0.00    +0.000 OA
BRANCH  14  16
ATOM     16  OXT GLU A   1       6.880   7.515  16.735  0.00  0.00    +0.000 OA
ATOM     17  HXT GLU A   1       6.247   8.238  16.833  0.00  0.00    +0.000 HD
ENDBRANCH  14  16
ENDBRANCH  13  14
BRANCH  13  18
ATOM     18  CB  GLU A   1       7.207   4.344  17.002  0.00  0.00    +0.000 C 
BRANCH  18  19
ATOM     19  CG  GLU A   1       6.266   4.014  15.828  0.00  0.00    +0.000 C 
BRANCH  19  20
ATOM     20  CD  GLU A   1       6.774   4.521  14.501  0.00  0.00    +0.000 C 
ATOM     21  OE1 GLU A   1       6.325   4.058  13.464  0.00  0.00    +0.000 OA
BRANCH  20  22
ATOM     22  OE2 GLU A   1       7.702   5.500  14.438  0.00  0.00    +0.000 OA
ATOM     23  HE2 GLU A   1       7.625   6.310  14.961  0.00  0.00    +0.000 HD
ENDBRANCH  20  22
ENDBRANCH  19  20
ENDBRANCH  18  19
ENDBRANCH  13  18
ENDBRANCH  11  13
ENDBRANCH   6   9
BRANCH   1  24
ATOM     24  C   UNK A   0       0.823   9.489  21.059  0.00  0.00    +0.000 C 
BRANCH  24  25
ATOM     25  N   UNK A   0       1.582   8.905  22.169  0.00  0.00    +0.000 NA
ATOM     26  H   UNK A   0       1.667   7.869  22.050  0.00  0.00    +0.000 HD
ATOM     27  H   UNK A   0       1.107   9.112  23.077  0.00  0.00    +0.000 HD
ENDBRANCH  24  25
BRANCH  24  28
ATOM     28  C   UNK A   0       0.640  11.003  21.273  0.00  0.00    +0.000 C 
BRANCH  28  29
ATOM     29  C   UNK A   0      -0.748  11.488  21.616  0.00  0.00    +0.000 A 
ATOM     30  C   UNK A   0      -1.226  11.346  22.931  0.00  0.00    +0.000 A 
ATOM     31  C   UNK A   0      -2.472  11.860  23.291  0.00  0.00    +0.000 A 
ATOM     32  C   UNK A   0      -3.255  12.522  22.345  0.00  0.00    +0.000 A 
ATOM     33  C   UNK A   0      -2.793  12.666  21.032  0.00  0.00    +0.000 A 
ATOM     34  C   UNK A   0      -1.544  12.152  20.665  0.00  0.00    +0.000 A 
ENDBRANCH  28  29
ENDBRANCH  24  28
ENDBRANCH   1  24
TORSDOF 12
ENDMDL
MODEL 3
REMARK VINA RESULT:      -6.8      1.007      1.465
REMARK  Name = 
REMARK  12 active torsions:
REMARK  status: ('A' for Active; 'I' for Inactive)
REMARK    1  A    between atoms: N_1  and  C_2
REMARK    2  A    between atoms: C_2  and  C_3
REMARK    3  A    between atoms: C_2  and  C_10
REMARK    4  A    between atoms: C_3  and  C_4
REMARK    5  A    between atoms: C_15  and  C_16
REMARK    6  A    between atoms: N_18  and  CA_19
REMARK    7  A    between atoms: CA_19  and  CB_20
REMARK    8  A    between atoms: CA_19  and  C_25
REMARK    9  A    between atoms: CB_20  and  CG_21
REMARK   10  A    between atoms: CG_21  and  CD_22
REMARK   11  A    between atoms: CD_22  and  OE2_24
REMARK   12  A    between atoms: C_25  and  OXT_27
REMARK                            x       y       z     vdW  Elec       q    Type
REMARK                         _______ _______ _______ _____ _____    ______ ____
ROOT
ATOM      1  C   UNK A   0       1.844   8.238  18.716  0.00  0.00    +0.000 C 
ATOM      2  O   UNK A   0       1.611   8.642  17.583  0.00  0.00    +0.000 OA
ATOM      3  N   UNK A   0       2.481   7.004  18.852  0.00  0.00    +0.000 N 
ATOM      4  C   UNK A   0       2.968   6.303  17.651  0.00  0.00    +0.000 C 
ATOM      5  C   UNK A   0       2.508   4.836  17.629  0.00  0.00    +0.000 C 
ATOM      6  C   UNK A   0       2.967   4.104  18.907  0.00  0.00    +0.000 C 
ATOM      7  C   UNK A   0       2.373   4.864  20.103  0.00  0.00    +0.000 C 
ATOM      8  C   UNK A   0       2.821   6.335  20.113  0.00  0.00    +0.000 C 
ENDROOT
BRANCH   6   9
ATOM      9  C   UNK A   0       4.487   3.957  18.997  0.00  0.00    +0.000 C 
ATOM     10  O   UNK A   0       4.983   3.169  19.790  0.00  0.00    +0.000 OA
ATOM     11  N   GLU A   1       5.296   4.677  18.170  0.00  0.00    +0.000 N 
ATOM     12  H   GLU A   1       4.865   5.310  17.480  0.00  0.00    +0.000 HD
BRANCH  11  13
ATOM     13  CA  GLU A   1       6.750   4.581  18.209  0.00  0.00    +0.000 C 
BRANCH  13  14
ATOM     14  C   GLU A   1       7.309   5.735  19.007  0.00  0.00    +0.000 C 
ATOM     15  O   GLU A   1       7.493   6.813  18.465  0.00  0.00    +0.000 OA
BRANCH  14  16
ATOM     16  OXT GLU A   1       7.621   5.596  20.316  0.00  0.00    +0.000 OA
ATOM     17  HXT GLU A   1       6.947   5.444  20.992  0.00  0.00    +0.000 HD
ENDBRANCH  14  16
ENDBRANCH  13  14
BRANCH  13  18
ATOM     18  CB  GLU A   1       7.331   4.577  16.780  0.00  0.00    +0.000 C 
BRANCH  18  19
ATOM     19  CG  GLU A   1       6.376   3.977  15.732  0.00  0.00    +0.000 C 
BRANCH  19  20
ATOM     20  CD  GLU A   1       6.672   4.438  14.326  0.00  0.00    +0.000 C 
ATOM     21  OE1 GLU A   1       6.025   3.990  13.393  0.00  0.00    +0.000 OA
BRANCH  20  22
ATOM     22  OE2 GLU A   1       7.628   5.361  14.083  0.00  0.00    +0.000 OA
ATOM     23  HE2 GLU A   1       8.123   5.782  14.799  0.00  0.00    +0.000 HD
ENDBRANCH  20  22
ENDBRANCH  19  20
ENDBRANCH  18  19
ENDBRANCH  13  18
ENDBRANCH  11  13
ENDBRANCH   6   9
BRANCH   1  24
ATOM     24  C   UNK A   0       1.451   9.270  19.810  0.00  0.00    +0.000 C 
BRANCH  24  25
ATOM     25  N   UNK A   0       1.506  10.615  19.231  0.00  0.00    +0.000 NA
ATOM     26  H   UNK A   0       2.146  10.631  18.403  0.00  0.00    +0.000 HD
ATOM     27  H   UNK A   0       1.844  11.300  19.945  0.00  0.00    +0.000 HD
ENDBRANCH  24  25
BRANCH  24  28
ATOM     28  C   UNK A   0       0.148   9.084  20.610  0.00  0.00    +0.000 C 
BRANCH  28  29
ATOM     29  C   UNK A   0      -0.555  10.333  21.085  0.00  0.00    +0.000 A 
ATOM     30  C   UNK A   0      -0.508  10.678  22.447  0.00  0.00    +0.000 A 
ATOM     31  C   UNK A   0      -1.079  11.870  22.896  0.00  0.00    +0.000 A 
ATOM     32  C   UNK A   0      -1.702  12.730  21.991  0.00  0.00    +0.000 A 
ATOM     33  C   UNK A   0      -1.761  12.396  20.634  0.00  0.00    +0.000 A 
ATOM     34  C   UNK A   0      -1.189  11.202  20.179  0.00  0.00    +0.000 A 
ENDBRANCH  28  29
ENDBRANCH  24  28
ENDBRANCH   1  24
TORSDOF 12
ENDMDL
MODEL 4
REMARK VINA RESULT:      -6.8      1.623      1.957
REMARK  Name = 
REMARK  12 active torsions:
REMARK  status: ('A' for Active; 'I' for Inactive)
REMARK    1  A    between atoms: N_1  and  C_2
REMARK    2  A    between atoms: C_2  and  C_3
REMARK    3  A    between atoms: C_2  and  C_10
REMARK    4  A    between atoms: C_3  and  C_4
REMARK    5  A    between atoms: C_15  and  C_16
REMARK    6  A    between atoms: N_18  and  CA_19
REMARK    7  A    between atoms: CA_19  and  CB_20
REMARK    8  A    between atoms: CA_19  and  C_25
REMARK    9  A    between atoms: CB_20  and  CG_21
REMARK   10  A    between atoms: CG_21  and  CD_22
REMARK   11  A    between atoms: CD_22  and  OE2_24
REMARK   12  A    between atoms: C_25  and  OXT_27
REMARK                            x       y       z     vdW  Elec       q    Type
REMARK                         _______ _______ _______ _____ _____    ______ ____
ROOT
ATOM      1  C   UNK A   0       1.944   8.438  18.424  0.00  0.00    +0.000 C 
ATOM      2  O   UNK A   0       1.710   8.730  17.258  0.00  0.00    +0.000 OA
ATOM      3  N   UNK A   0       2.524   7.195  18.682  0.00  0.00    +0.000 N 
ATOM      4  C   UNK A   0       2.955   6.347  17.558  0.00  0.00    +0.000 C 
ATOM      5  C   UNK A   0       2.425   4.911  17.699  0.00  0.00    +0.000 C 
ATOM      6  C   UNK A   0       2.872   4.297  19.042  0.00  0.00    +0.000 C 
ATOM      7  C   UNK A   0       2.337   5.208  20.157  0.00  0.00    +0.000 C 
ATOM      8  C   UNK A   0       2.856   6.648  20.004  0.00  0.00    +0.000 C 
ENDROOT
BRANCH   6   9
ATOM      9  C   UNK A   0       4.385   4.085  19.126  0.00  0.00    +0.000 C 
ATOM     10  O   UNK A   0       4.853   3.325  19.962  0.00  0.00    +0.000 OA
ATOM     11  N   GLU A   1       5.216   4.715  18.249  0.00  0.00    +0.000 N 
ATOM     12  H   GLU A   1       4.805   5.324  17.526  0.00  0.00    +0.000 HD
BRANCH  11  13
ATOM     13  CA  GLU A   1       6.664   4.554  18.280  0.00  0.00    +0.000 C 
BRANCH  13  14
ATOM     14  C   GLU A   1       7.284   5.720  19.015  0.00  0.00    +0.000 C 
ATOM     15  O   GLU A   1       7.455   6.779  18.433  0.00  0.00    +0.000 OA
BRANCH  14  16
ATOM     16  OXT GLU A   1       7.664   5.611  20.308  0.00  0.00    +0.000 OA
ATOM     17  HXT GLU A   1       7.328   4.914  20.886  0.00  0.00    +0.000 HD
ENDBRANCH  14  16
ENDBRANCH  13  14
BRANCH  13  18
ATOM     18  CB  GLU A   1       7.229   4.451  16.849  0.00  0.00    +0.000 C 
BRANCH  18  19
ATOM     19  CG  GLU A   1       6.251   3.806  15.849  0.00  0.00    +0.000 C 
BRANCH  19  20
ATOM     20  CD  GLU A   1       5.955   4.684  14.658  0.00  0.00    +0.000 C 
ATOM     21  OE1 GLU A   1       5.845   5.891  14.808  0.00  0.00    +0.000 OA
BRANCH  20  22
ATOM     22  OE2 GLU A   1       5.832   4.159  13.420  0.00  0.00    +0.000 OA
ATOM     23  HE2 GLU A   1       6.266   3.331  13.172  0.00  0.00    +0.000 HD
ENDBRANCH  20  22
ENDBRANCH  19  20
ENDBRANCH  18  19
ENDBRANCH  13  18
ENDBRANCH  11  13
ENDBRANCH   6   9
BRANCH   1  24
ATOM     24  C   UNK A   0       1.621   9.598  19.406  0.00  0.00    +0.000 C 
BRANCH  24  25
ATOM     25  N   UNK A   0       1.835  10.874  18.716  0.00  0.00    +0.000 NA
ATOM     26  H   UNK A   0       1.029  11.519  18.881  0.00  0.00    +0.000 HD
ATOM     27  H   UNK A   0       1.946  10.712  17.689  0.00  0.00    +0.000 HD
ENDBRANCH  24  25
BRANCH  24  28
ATOM     28  C   UNK A   0       0.279   9.616  20.162  0.00  0.00    +0.000 C 
BRANCH  28  29
ATOM     29  C   UNK A   0      -0.850  10.405  19.544  0.00  0.00    +0.000 A 
ATOM     30  C   UNK A   0      -1.483   9.916  18.387  0.00  0.00    +0.000 A 
ATOM     31  C   UNK A   0      -2.582  10.585  17.847  0.00  0.00    +0.000 A 
ATOM     32  C   UNK A   0      -3.061  11.747  18.452  0.00  0.00    +0.000 A 
ATOM     33  C   UNK A   0      -2.436  12.247  19.599  0.00  0.00    +0.000 A 
ATOM     34  C   UNK A   0      -1.333  11.580  20.147  0.00  0.00    +0.000 A 
ENDBRANCH  28  29
ENDBRANCH  24  28
ENDBRANCH   1  24
TORSDOF 12
ENDMDL
MODEL 5
REMARK VINA RESULT:      -6.8      1.603      2.163
REMARK  Name = 
REMARK  12 active torsions:
REMARK  status: ('A' for Active; 'I' for Inactive)
REMARK    1  A    between atoms: N_1  and  C_2
REMARK    2  A    between atoms: C_2  and  C_3
REMARK    3  A    between atoms: C_2  and  C_10
REMARK    4  A    between atoms: C_3  and  C_4
REMARK    5  A    between atoms: C_15  and  C_16
REMARK    6  A    between atoms: N_18  and  CA_19
REMARK    7  A    between atoms: CA_19  and  CB_20
REMARK    8  A    between atoms: CA_19  and  C_25
REMARK    9  A    between atoms: CB_20  and  CG_21
REMARK   10  A    between atoms: CG_21  and  CD_22
REMARK   11  A    between atoms: CD_22  and  OE2_24
REMARK   12  A    between atoms: C_25  and  OXT_27
REMARK                            x       y       z     vdW  Elec       q    Type
REMARK                         _______ _______ _______ _____ _____    ______ ____
ROOT
ATOM      1  C   UNK A   0       1.956   8.480  18.386  0.00  0.00    +0.000 C 
ATOM      2  O   UNK A   0       1.718   8.792  17.225  0.00  0.00    +0.000 OA
ATOM      3  N   UNK A   0       2.571   7.249  18.618  0.00  0.00    +0.000 N 
ATOM      4  C   UNK A   0       3.032   6.441  17.477  0.00  0.00    +0.000 C 
ATOM      5  C   UNK A   0       2.545   4.987  17.582  0.00  0.00    +0.000 C 
ATOM      6  C   UNK A   0       3.004   4.355  18.913  0.00  0.00    +0.000 C 
ATOM      7  C   UNK A   0       2.436   5.223  20.046  0.00  0.00    +0.000 C 
ATOM      8  C   UNK A   0       2.912   6.682  19.929  0.00  0.00    +0.000 C 
ENDROOT
BRANCH   6   9
ATOM      9  C   UNK A   0       4.522   4.187  19.001  0.00  0.00    +0.000 C 
ATOM     10  O   UNK A   0       5.010   3.445  19.842  0.00  0.00    +0.000 OA
ATOM     11  N   GLU A   1       5.336   4.834  18.120  0.00  0.00    +0.000 N 
ATOM     12  H   GLU A   1       4.910   5.426  17.393  0.00  0.00    +0.000 HD
BRANCH  11  13
ATOM     13  CA  GLU A   1       6.788   4.714  18.155  0.00  0.00    +0.000 C 
BRANCH  13  14
ATOM     14  C   GLU A   1       7.390   6.021  18.615  0.00  0.00    +0.000 C 
ATOM     15  O   GLU A   1       7.196   7.037  17.968  0.00  0.00    +0.000 OA
BRANCH  14  16
ATOM     16  OXT GLU A   1       8.151   6.087  19.730  0.00  0.00    +0.000 OA
ATOM     17  HXT GLU A   1       8.853   5.449  19.913  0.00  0.00    +0.000 HD
ENDBRANCH  14  16
ENDBRANCH  13  14
BRANCH  13  18
ATOM     18  CB  GLU A   1       7.333   4.324  16.765  0.00  0.00    +0.000 C 
BRANCH  18  19
ATOM     19  CG  GLU A   1       6.244   4.253  15.678  0.00  0.00    +0.000 C 
BRANCH  19  20
ATOM     20  CD  GLU A   1       6.767   4.548  14.294  0.00  0.00    +0.000 C 
ATOM     21  OE1 GLU A   1       6.299   3.961  13.332  0.00  0.00    +0.000 OA
BRANCH  20  22
ATOM     22  OE2 GLU A   1       7.733   5.472  14.097  0.00  0.00    +0.000 OA
ATOM     23  HE2 GLU A   1       7.544   6.420  14.125  0.00  0.00    +0.000 HD
ENDBRANCH  20  22
ENDBRANCH  19  20
ENDBRANCH  18  19
ENDBRANCH  13  18
ENDBRANCH  11  13
ENDBRANCH   6   9
BRANCH   1  24
ATOM     24  C   UNK A   0       1.593   9.607  19.392  0.00  0.00    +0.000 C 
BRANCH  24  25
ATOM     25  N   UNK A   0       1.761  10.903  18.729  0.00  0.00    +0.000 NA
ATOM     26  H   UNK A   0       1.048  11.022  17.972  0.00  0.00    +0.000 HD
ATOM     27  H   UNK A   0       2.719  10.976  18.319  0.00  0.00    +0.000 HD
ENDBRANCH  24  25
BRANCH  24  28
ATOM     28  C   UNK A   0       0.252   9.561  20.149  0.00  0.00    +0.000 C 
BRANCH  28  29
ATOM     29  C   UNK A   0      -0.916  10.288  19.527  0.00  0.00    +0.000 A 
ATOM     30  C   UNK A   0      -1.388  11.473  20.119  0.00  0.00    +0.000 A 
ATOM     31  C   UNK A   0      -2.411  12.205  19.517  0.00  0.00    +0.000 A 
ATOM     32  C   UNK A   0      -2.975  11.765  18.320  0.00  0.00    +0.000 A 
ATOM     33  C   UNK A   0      -2.519  10.585  17.724  0.00  0.00    +0.000 A 
ATOM     34  C   UNK A   0      -1.492   9.846  18.323  0.00  0.00    +0.000 A 
ENDBRANCH  28  29
ENDBRANCH  24  28
ENDBRANCH   1  24
TORSDOF 12
ENDMDL
MODEL 6
REMARK VINA RESULT:      -6.7      1.366      1.871
REMARK  Name = 
REMARK  12 active torsions:
REMARK  status: ('A' for Active; 'I' for Inactive)
REMARK    1  A    between atoms: N_1  and  C_2
REMARK    2  A    between atoms: C_2  and  C_3
REMARK    3  A    between atoms: C_2  and  C_10
REMARK    4  A    between atoms: C_3  and  C_4
REMARK    5  A    between atoms: C_15  and  C_16
REMARK    6  A    between atoms: N_18  and  CA_19
REMARK    7  A    between atoms: CA_19  and  CB_20
REMARK    8  A    between atoms: CA_19  and  C_25
REMARK    9  A    between atoms: CB_20  and  CG_21
REMARK   10  A    between atoms: CG_21  and  CD_22
REMARK   11  A    between atoms: CD_22  and  OE2_24
REMARK   12  A    between atoms: C_25  and  OXT_27
REMARK                            x       y       z     vdW  Elec       q    Type
REMARK                         _______ _______ _______ _____ _____    ______ ____
ROOT
ATOM      1  C   UNK A   0       1.735   8.682  18.234  0.00  0.00    +0.000 C 
ATOM      2  O   UNK A   0       1.469   8.887  17.056  0.00  0.00    +0.000 OA
ATOM      3  N   UNK A   0       2.478   7.542  18.548  0.00  0.00    +0.000 N 
ATOM      4  C   UNK A   0       3.026   6.712  17.461  0.00  0.00    +0.000 C 
ATOM      5  C   UNK A   0       2.696   5.224  17.668  0.00  0.00    +0.000 C 
ATOM      6  C   UNK A   0       3.216   4.738  19.037  0.00  0.00    +0.000 C 
ATOM      7  C   UNK A   0       2.557   5.617  20.111  0.00  0.00    +0.000 C 
ATOM      8  C   UNK A   0       2.875   7.106  19.892  0.00  0.00    +0.000 C 
ENDROOT
BRANCH   6   9
ATOM      9  C   UNK A   0       4.743   4.739  19.129  0.00  0.00    +0.000 C 
ATOM     10  O   UNK A   0       5.303   4.191  20.068  0.00  0.00    +0.000 OA
ATOM     11  N   GLU A   1       5.489   5.319  18.147  0.00  0.00    +0.000 N 
ATOM     12  H   GLU A   1       5.007   5.744  17.342  0.00  0.00    +0.000 HD
BRANCH  11  13
ATOM     13  CA  GLU A   1       6.946   5.353  18.179  0.00  0.00    +0.000 C 
BRANCH  13  14
ATOM     14  C   GLU A   1       7.423   6.760  17.908  0.00  0.00    +0.000 C 
ATOM     15  O   GLU A   1       8.238   7.277  18.655  0.00  0.00    +0.000 OA
BRANCH  14  16
ATOM     16  OXT GLU A   1       6.958   7.467  16.854  0.00  0.00    +0.000 OA
ATOM     17  HXT GLU A   1       7.225   7.273  15.946  0.00  0.00    +0.000 HD
ENDBRANCH  14  16
ENDBRANCH  13  14
BRANCH  13  18
ATOM     18  CB  GLU A   1       7.534   4.371  17.145  0.00  0.00    +0.000 C 
BRANCH  18  19
ATOM     19  CG  GLU A   1       6.557   4.023  16.006  0.00  0.00    +0.000 C 
BRANCH  19  20
ATOM     20  CD  GLU A   1       7.009   4.534  14.660  0.00  0.00    +0.000 C 
ATOM     21  OE1 GLU A   1       6.692   3.931  13.647  0.00  0.00    +0.000 OA
BRANCH  20  22
ATOM     22  OE2 GLU A   1       7.742   5.663  14.554  0.00  0.00    +0.000 OA
ATOM     23  HE2 GLU A   1       7.782   6.169  13.731  0.00  0.00    +0.000 HD
ENDBRANCH  20  22
ENDBRANCH  19  20
ENDBRANCH  18  19
ENDBRANCH  13  18
ENDBRANCH  11  13
ENDBRANCH   6   9
BRANCH   1  24
ATOM     24  C   UNK A   0       1.253   9.830  19.164  0.00  0.00    +0.000 C 
BRANCH  24  25
ATOM     25  N   UNK A   0       1.841  11.090  18.701  0.00  0.00    +0.000 NA
ATOM     26  H   UNK A   0       1.114  11.689  18.246  0.00  0.00    +0.000 HD
ATOM     27  H   UNK A   0       2.610  10.898  18.019  0.00  0.00    +0.000 HD
ENDBRANCH  24  25
BRANCH  24  28
ATOM     28  C   UNK A   0      -0.251  10.012  19.445  0.00  0.00    +0.000 C 
BRANCH  28  29
ATOM     29  C   UNK A   0      -0.639  10.557  20.798  0.00  0.00    +0.000 A 
ATOM     30  C   UNK A   0      -1.328  11.780  20.880  0.00  0.00    +0.000 A 
ATOM     31  C   UNK A   0      -1.769  12.262  22.112  0.00  0.00    +0.000 A 
ATOM     32  C   UNK A   0      -1.528  11.532  23.276  0.00  0.00    +0.000 A 
ATOM     33  C   UNK A   0      -0.838  10.317  23.209  0.00  0.00    +0.000 A 
ATOM     34  C   UNK A   0      -0.394   9.827  21.975  0.00  0.00    +0.000 A 
ENDBRANCH  28  29
ENDBRANCH  24  28
ENDBRANCH   1  24
TORSDOF 12
ENDMDL
MODEL 7
REMARK VINA RESULT:      -6.7      1.158      1.648
REMARK  Name = 
REMARK  12 active torsions:
REMARK  status: ('A' for Active; 'I' for Inactive)
REMARK    1  A    between atoms: N_1  and  C_2
REMARK    2  A    between atoms: C_2  and  C_3
REMARK    3  A    between atoms: C_2  and  C_10
REMARK    4  A    between atoms: C_3  and  C_4
REMARK    5  A    between atoms: C_15  and  C_16
REMARK    6  A    between atoms: N_18  and  CA_19
REMARK    7  A    between atoms: CA_19  and  CB_20
REMARK    8  A    between atoms: CA_19  and  C_25
REMARK    9  A    between atoms: CB_20  and  CG_21
REMARK   10  A    between atoms: CG_21  and  CD_22
REMARK   11  A    between atoms: CD_22  and  OE2_24
REMARK   12  A    between atoms: C_25  and  OXT_27
REMARK                            x       y       z     vdW  Elec       q    Type
REMARK                         _______ _______ _______ _____ _____    ______ ____
ROOT
ATOM      1  C   UNK A   0       1.762   8.064  19.134  0.00  0.00    +0.000 C 
ATOM      2  O   UNK A   0       1.671   8.711  18.097  0.00  0.00    +0.000 OA
ATOM      3  N   UNK A   0       2.446   6.849  19.087  0.00  0.00    +0.000 N 
ATOM      4  C   UNK A   0       3.144   6.455  17.851  0.00  0.00    +0.000 C 
ATOM      5  C   UNK A   0       2.782   5.021  17.431  0.00  0.00    +0.000 C 
ATOM      6  C   UNK A   0       3.095   4.027  18.569  0.00  0.00    +0.000 C 
ATOM      7  C   UNK A   0       2.288   4.476  19.797  0.00  0.00    +0.000 C 
ATOM      8  C   UNK A   0       2.640   5.917  20.205  0.00  0.00    +0.000 C 
ENDROOT
BRANCH   6   9
ATOM      9  C   UNK A   0       4.592   3.904  18.858  0.00  0.00    +0.000 C 
ATOM     10  O   UNK A   0       4.985   3.192  19.772  0.00  0.00    +0.000 OA
ATOM     11  N   GLU A   1       5.497   4.557  18.077  0.00  0.00    +0.000 N 
ATOM     12  H   GLU A   1       5.155   5.123  17.288  0.00  0.00    +0.000 HD
BRANCH  11  13
ATOM     13  CA  GLU A   1       6.935   4.479  18.304  0.00  0.00    +0.000 C 
BRANCH  13  14
ATOM     14  C   GLU A   1       7.385   5.681  19.100  0.00  0.00    +0.000 C 
ATOM     15  O   GLU A   1       7.506   5.593  20.311  0.00  0.00    +0.000 OA
BRANCH  14  16
ATOM     16  OXT GLU A   1       7.650   6.862  18.498  0.00  0.00    +0.000 OA
ATOM     17  HXT GLU A   1       7.032   7.274  17.880  0.00  0.00    +0.000 HD
ENDBRANCH  14  16
ENDBRANCH  13  14
BRANCH  13  18
ATOM     18  CB  GLU A   1       7.692   4.402  16.962  0.00  0.00    +0.000 C 
BRANCH  18  19
ATOM     19  CG  GLU A   1       6.783   4.064  15.765  0.00  0.00    +0.000 C 
BRANCH  19  20
ATOM     20  CD  GLU A   1       6.545   5.240  14.850  0.00  0.00    +0.000 C 
ATOM     21  OE1 GLU A   1       5.673   6.051  15.122  0.00  0.00    +0.000 OA
BRANCH  20  22
ATOM     22  OE2 GLU A   1       7.297   5.426  13.745  0.00  0.00    +0.000 OA
ATOM     23  HE2 GLU A   1       7.995   4.806  13.493  0.00  0.00    +0.000 HD
ENDBRANCH  20  22
ENDBRANCH  19  20
ENDBRANCH  18  19
ENDBRANCH  13  18
ENDBRANCH  11  13
ENDBRANCH   6   9
BRANCH   1  24
ATOM     24  C   UNK A   0       1.152   8.806  20.356  0.00  0.00    +0.000 C 
BRANCH  24  25
ATOM     25  N   UNK A   0       1.845   8.363  21.569  0.00  0.00    +0.000 NA
ATOM     26  H   UNK A   0       2.177   9.186  22.123  0.00  0.00    +0.000 HD
ATOM     27  H   UNK A   0       2.661   7.761  21.317  0.00  0.00    +0.000 HD
ENDBRANCH  24  25
BRANCH  24  28
ATOM     28  C   UNK A   0       1.027  10.341  20.340  0.00  0.00    +0.000 C 
BRANCH  28  29
ATOM     29  C   UNK A   0      -0.292  10.922  19.892  0.00  0.00    +0.000 A 
ATOM     30  C   UNK A   0      -0.941  10.380  18.768  0.00  0.00    +0.000 A 
ATOM     31  C   UNK A   0      -2.199  10.845  18.385  0.00  0.00    +0.000 A 
ATOM     32  C   UNK A   0      -2.824  11.854  19.117  0.00  0.00    +0.000 A 
ATOM     33  C   UNK A   0      -2.187  12.406  20.234  0.00  0.00    +0.000 A 
ATOM     34  C   UNK A   0      -0.925  11.943  20.623  0.00  0.00    +0.000 A 
ENDBRANCH  28  29
ENDBRANCH  24  28
ENDBRANCH   1  24
TORSDOF 12
ENDMDL
MODEL 8
REMARK VINA RESULT:      -6.6      1.366      1.952
REMARK  Name = 
REMARK  12 active torsions:
REMARK  status: ('A' for Active; 'I' for Inactive)
REMARK    1  A    between atoms: N_1  and  C_2
REMARK    2  A    between atoms: C_2  and  C_3
REMARK    3  A    between atoms: C_2  and  C_10
REMARK    4  A    between atoms: C_3  and  C_4
REMARK    5  A    between atoms: C_15  and  C_16
REMARK    6  A    between atoms: N_18  and  CA_19
REMARK    7  A    between atoms: CA_19  and  CB_20
REMARK    8  A    between atoms: CA_19  and  C_25
REMARK    9  A    between atoms: CB_20  and  CG_21
REMARK   10  A    between atoms: CG_21  and  CD_22
REMARK   11  A    between atoms: CD_22  and  OE2_24
REMARK   12  A    between atoms: C_25  and  OXT_27
REMARK                            x       y       z     vdW  Elec       q    Type
REMARK                         _______ _______ _______ _____ _____    ______ ____
ROOT
ATOM      1  C   UNK A   0       1.138   9.366  19.625  0.00  0.00    +0.000 C 
ATOM      2  O   UNK A   0       1.057  10.193  18.725  0.00  0.00    +0.000 OA
ATOM      3  N   UNK A   0       1.924   8.233  19.403  0.00  0.00    +0.000 N 
ATOM      4  C   UNK A   0       2.727   8.138  18.172  0.00  0.00    +0.000 C 
ATOM      5  C   UNK A   0       2.513   6.790  17.463  0.00  0.00    +0.000 C 
ATOM      6  C   UNK A   0       2.838   5.619  18.414  0.00  0.00    +0.000 C 
ATOM      7  C   UNK A   0       1.923   5.763  19.639  0.00  0.00    +0.000 C 
ATOM      8  C   UNK A   0       2.126   7.119  20.337  0.00  0.00    +0.000 C 
ENDROOT
BRANCH   6   9
ATOM      9  C   UNK A   0       4.319   5.548  18.788  0.00  0.00    +0.000 C 
ATOM     10  O   UNK A   0       4.653   5.210  19.916  0.00  0.00    +0.000 OA
ATOM     11  N   GLU A   1       5.276   5.827  17.859  0.00  0.00    +0.000 N 
ATOM     12  H   GLU A   1       4.983   6.074  16.903  0.00  0.00    +0.000 HD
BRANCH  11  13
ATOM     13  CA  GLU A   1       6.702   5.777  18.156  0.00  0.00    +0.000 C 
BRANCH  13  14
ATOM     14  C   GLU A   1       7.329   7.114  17.837  0.00  0.00    +0.000 C 
ATOM     15  O   GLU A   1       8.202   7.561  18.563  0.00  0.00    +0.000 OA
BRANCH  14  16
ATOM     16  OXT GLU A   1       6.936   7.834  16.763  0.00  0.00    +0.000 OA
ATOM     17  HXT GLU A   1       7.247   8.735  16.605  0.00  0.00    +0.000 HD
ENDBRANCH  14  16
ENDBRANCH  13  14
BRANCH  13  18
ATOM     18  CB  GLU A   1       7.384   4.651  17.352  0.00  0.00    +0.000 C 
BRANCH  18  19
ATOM     19  CG  GLU A   1       6.476   4.032  16.274  0.00  0.00    +0.000 C 
BRANCH  19  20
ATOM     20  CD  GLU A   1       6.879   4.411  14.870  0.00  0.00    +0.000 C 
ATOM     21  OE1 GLU A   1       7.571   5.400  14.685  0.00  0.00    +0.000 OA
BRANCH  20  22
ATOM     22  OE2 GLU A   1       6.506   3.660  13.812  0.00  0.00    +0.000 OA
ATOM     23  HE2 GLU A   1       6.664   3.947  12.902  0.00  0.00    +0.000 HD
ENDBRANCH  20  22
ENDBRANCH  19  20
ENDBRANCH  18  19
ENDBRANCH  13  18
ENDBRANCH  11  13
ENDBRANCH   6   9
BRANCH   1  24
ATOM     24  C   UNK A   0       0.394   9.812  20.914  0.00  0.00    +0.000 C 
BRANCH  24  25
ATOM     25  N   UNK A   0       1.380  10.311  21.878  0.00  0.00    +0.000 NA
ATOM     26  H   UNK A   0       0.916  10.914  22.597  0.00  0.00    +0.000 HD
ATOM     27  H   UNK A   0       2.117  10.862  21.384  0.00  0.00    +0.000 HD
ENDBRANCH  24  25
BRANCH  24  28
ATOM     28  C   UNK A   0      -0.800  10.780  20.818  0.00  0.00    +0.000 C 
BRANCH  28  29
ATOM     29  C   UNK A   0      -0.635  12.144  21.444  0.00  0.00    +0.000 A 
ATOM     30  C   UNK A   0      -1.309  12.442  22.642  0.00  0.00    +0.000 A 
ATOM     31  C   UNK A   0      -1.107  13.665  23.282  0.00  0.00    +0.000 A 
ATOM     32  C   UNK A   0      -0.231  14.604  22.736  0.00  0.00    +0.000 A 
ATOM     33  C   UNK A   0       0.442  14.322  21.542  0.00  0.00    +0.000 A 
ATOM     34  C   UNK A   0       0.243  13.096  20.896  0.00  0.00    +0.000 A 
ENDBRANCH  28  29
ENDBRANCH  24  28
ENDBRANCH   1  24
TORSDOF 12
ENDMDL
MODEL 9
REMARK VINA RESULT:      -6.6      2.314      9.374
REMARK  Name = 
REMARK  12 active torsions:
REMARK  status: ('A' for Active; 'I' for Inactive)
REMARK    1  A    between atoms: N_1  and  C_2
REMARK    2  A    between atoms: C_2  and  C_3
REMARK    3  A    between atoms: C_2  and  C_10
REMARK    4  A    between atoms: C_3  and  C_4
REMARK    5  A    between atoms: C_15  and  C_16
REMARK    6  A    between atoms: N_18  and  CA_19
REMARK    7  A    between atoms: CA_19  and  CB_20
REMARK    8  A    between atoms: CA_19  and  C_25
REMARK    9  A    between atoms: CB_20  and  CG_21
REMARK   10  A    between atoms: CG_21  and  CD_22
REMARK   11  A    between atoms: CD_22  and  OE2_24
REMARK   12  A    between atoms: C_25  and  OXT_27
REMARK                            x       y       z     vdW  Elec       q    Type
REMARK                         _______ _______ _______ _____ _____    ______ ____
ROOT
ATOM      1  C   UNK A   0       5.879   4.841  18.179  0.00  0.00    +0.000 C 
ATOM      2  O   UNK A   0       6.532   4.407  19.121  0.00  0.00    +0.000 OA
ATOM      3  N   UNK A   0       4.682   5.501  18.463  0.00  0.00    +0.000 N 
ATOM      4  C   UNK A   0       4.317   5.772  19.864  0.00  0.00    +0.000 C 
ATOM      5  C   UNK A   0       2.877   5.326  20.167  0.00  0.00    +0.000 C 
ATOM      6  C   UNK A   0       1.883   6.011  19.206  0.00  0.00    +0.000 C 
ATOM      7  C   UNK A   0       2.301   5.633  17.777  0.00  0.00    +0.000 C 
ATOM      8  C   UNK A   0       3.748   6.066  17.481  0.00  0.00    +0.000 C 
ENDROOT
BRANCH   6   9
ATOM      9  C   UNK A   0       1.797   7.524  19.416  0.00  0.00    +0.000 C 
ATOM     10  O   UNK A   0       2.336   8.286  18.626  0.00  0.00    +0.000 OA
ATOM     11  N   GLU A   1       1.089   8.032  20.464  0.00  0.00    +0.000 N 
ATOM     12  H   GLU A   1       0.609   7.380  21.101  0.00  0.00    +0.000 HD
BRANCH  11  13
ATOM     13  CA  GLU A   1       0.972   9.463  20.716  0.00  0.00    +0.000 C 
BRANCH  13  14
ATOM     14  C   GLU A   1       1.062   9.721  22.202  0.00  0.00    +0.000 C 
ATOM     15  O   GLU A   1       1.972   9.228  22.848  0.00  0.00    +0.000 OA
BRANCH  14  16
ATOM     16  OXT GLU A   1       0.143  10.483  22.838  0.00  0.00    +0.000 OA
ATOM     17  HXT GLU A   1      -0.370  10.152  23.587  0.00  0.00    +0.000 HD
ENDBRANCH  14  16
ENDBRANCH  13  14
BRANCH  13  18
ATOM     18  CB  GLU A   1      -0.356  10.005  20.150  0.00  0.00    +0.000 C 
BRANCH  18  19
ATOM     19  CG  GLU A   1      -0.195  10.731  18.801  0.00  0.00    +0.000 C 
BRANCH  19  20
ATOM     20  CD  GLU A   1      -1.510  11.159  18.197  0.00  0.00    +0.000 C 
ATOM     21  OE1 GLU A   1      -2.495  11.270  18.910  0.00  0.00    +0.000 OA
BRANCH  20  22
ATOM     22  OE2 GLU A   1      -1.612  11.446  16.881  0.00  0.00    +0.000 OA
ATOM     23  HE2 GLU A   1      -2.469  11.565  16.451  0.00  0.00    +0.000 HD
ENDBRANCH  20  22
ENDBRANCH  19  20
ENDBRANCH  18  19
ENDBRANCH  13  18
ENDBRANCH  11  13
ENDBRANCH   6   9
BRANCH   1  24
ATOM     24  C   UNK A   0       6.596   4.641  16.815  0.00  0.00    +0.000 C 
BRANCH  24  25
ATOM     25  N   UNK A   0       7.957   4.157  17.064  0.00  0.00    +0.000 NA
ATOM     26  H   UNK A   0       8.610   4.961  17.212  0.00  0.00    +0.000 HD
ATOM     27  H   UNK A   0       8.288   3.584  16.255  0.00  0.00    +0.000 HD
ENDBRANCH  24  25
BRANCH  24  28
ATOM     28  C   UNK A   0       5.924   3.806  15.708  0.00  0.00    +0.000 C 
BRANCH  28  29
ATOM     29  C   UNK A   0       6.362   4.065  14.287  0.00  0.00    +0.000 A 
ATOM     30  C   UNK A   0       7.319   5.063  14.028  0.00  0.00    +0.000 A 
ATOM     31  C   UNK A   0       7.799   5.264  12.734  0.00  0.00    +0.000 A 
ATOM     32  C   UNK A   0       7.331   4.474  11.684  0.00  0.00    +0.000 A 
ATOM     33  C   UNK A   0       6.375   3.482  11.926  0.00  0.00    +0.000 A 
ATOM     34  C   UNK A   0       5.890   3.276  13.223  0.00  0.00    +0.000 A 
ENDBRANCH  28  29
ENDBRANCH  24  28
ENDBRANCH   1  24
TORSDOF 12
ENDMDL
