MODEL 1
REMARK VINA RESULT:      -7.3      0.000      0.000
REMARK  Name = 
REMARK  6 active torsions:
REMARK  status: ('A' for Active; 'I' for Inactive)
REMARK    1  A    between atoms: C_1  and  O_2
REMARK    2  A    between atoms: O_2  and  C_3
REMARK    3  A    between atoms: C_10  and  C_11
REMARK    4  A    between atoms: C_11  and  C_12
REMARK    5  A    between atoms: C_12  and  N_13
REMARK    6  A    between atoms: C_14  and  C_15
REMARK                            x       y       z     vdW  Elec       q    Type
REMARK                         _______ _______ _______ _____ _____    ______ ____
ROOT
ATOM      1  C   UNL     1       5.806   3.429  12.328  0.00  0.00    +0.000 A 
ATOM      2  C   UNL     1       6.949   4.132  11.964  0.00  0.00    +0.000 A 
ATOM      3  C   UNL     1       7.633   4.918  12.898  0.00  0.00    +0.000 A 
ATOM      4  C   UNL     1       7.141   4.963  14.209  0.00  0.00    +0.000 A 
ATOM      5  N   UNL     1       7.612   5.653  15.298  0.00  0.00    +0.000 N 
ATOM      6  C   UNL     1       6.822   5.414  16.383  0.00  0.00    +0.000 A 
ATOM      7 BR   UNL     1       7.121   6.211  18.043  0.00  0.00    +0.000 Br
ATOM      8  C   UNL     1       5.805   4.542  16.031  0.00  0.00    +0.000 A 
ATOM      9  C   UNL     1       6.002   4.268  14.622  0.00  0.00    +0.000 A 
ATOM     10  C   UNL     1       5.327   3.507  13.642  0.00  0.00    +0.000 A 
ATOM     11  H   UNL     1       8.417   6.263  15.297  0.00  0.00    +0.000 HD
ENDROOT
BRANCH   1  13
ATOM     12  C   UNL     1       3.828   3.148  11.034  0.00  0.00    +0.000 C 
ATOM     13  O   UNL     1       5.058   2.623  11.512  0.00  0.00    +0.000 OA
ENDBRANCH   1  13
BRANCH   8  14
ATOM     14  C   UNL     1       4.705   4.043  16.941  0.00  0.00    +0.000 C 
BRANCH  14  15
ATOM     15  C   UNL     1       3.717   5.106  17.422  0.00  0.00    +0.000 C 
BRANCH  15  16
ATOM     16  N   UNL     1       2.935   4.693  18.573  0.00  0.00    +0.000 N 
ATOM     17  C   UNL     1       1.694   4.114  18.424  0.00  0.00    +0.000 C 
ATOM     18  C   UNL     1       1.095   3.577  19.695  0.00  0.00    +0.000 C 
ATOM     19  O   UNL     1       1.115   4.017  17.345  0.00  0.00    +0.000 OA
ATOM     20  H   UNL     1       3.366   4.728  19.489  0.00  0.00    +0.000 HD
ENDBRANCH  15  16
ENDBRANCH  14  15
ENDBRANCH   8  14
TORSDOF 4
ENDMDL
MODEL 2
REMARK VINA RESULT:      -7.0      3.905      4.799
REMARK  Name = 
REMARK  6 active torsions:
REMARK  status: ('A' for Active; 'I' for Inactive)
REMARK    1  A    between atoms: C_1  and  O_2
REMARK    2  A    between atoms: O_2  and  C_3
REMARK    3  A    between atoms: C_10  and  C_11
REMARK    4  A    between atoms: C_11  and  C_12
REMARK    5  A    between atoms: C_12  and  N_13
REMARK    6  A    between atoms: C_14  and  C_15
REMARK                            x       y       z     vdW  Elec       q    Type
REMARK                         _______ _______ _______ _____ _____    ______ ____
ROOT
ATOM      1  C   UNL     1       6.840   7.047  17.121  0.00  0.00    +0.000 A 
ATOM      2  C   UNL     1       7.635   5.962  16.769  0.00  0.00    +0.000 A 
ATOM      3  C   UNL     1       7.111   4.665  16.757  0.00  0.00    +0.000 A 
ATOM      4  C   UNL     1       5.761   4.495  17.096  0.00  0.00    +0.000 A 
ATOM      5  N   UNL     1       5.015   3.346  17.170  0.00  0.00    +0.000 N 
ATOM      6  C   UNL     1       3.738   3.640  17.547  0.00  0.00    +0.000 A 
ATOM      7 BR   UNL     1       2.434   2.329  17.796  0.00  0.00    +0.000 Br
ATOM      8  C   UNL     1       3.610   5.008  17.720  0.00  0.00    +0.000 A 
ATOM      9  C   UNL     1       4.924   5.556  17.449  0.00  0.00    +0.000 A 
ATOM     10  C   UNL     1       5.499   6.845  17.472  0.00  0.00    +0.000 A 
ATOM     11  H   UNL     1       5.361   2.415  16.990  0.00  0.00    +0.000 HD
ENDROOT
BRANCH   1  13
ATOM     12  C   UNL     1       8.260   8.699  18.081  0.00  0.00    +0.000 C 
ATOM     13  O   UNL     1       7.233   8.358  17.160  0.00  0.00    +0.000 OA
ENDBRANCH   1  13
BRANCH   8  14
ATOM     14  C   UNL     1       2.359   5.738  18.157  0.00  0.00    +0.000 C 
BRANCH  14  15
ATOM     15  C   UNL     1       2.344   6.207  19.612  0.00  0.00    +0.000 C 
BRANCH  15  16
ATOM     16  N   UNL     1       2.669   5.161  20.563  0.00  0.00    +0.000 N 
ATOM     17  C   UNL     1       1.766   4.166  20.867  0.00  0.00    +0.000 C 
ATOM     18  C   UNL     1       2.316   3.059  21.725  0.00  0.00    +0.000 C 
ATOM     19  O   UNL     1       0.606   4.155  20.463  0.00  0.00    +0.000 OA
ATOM     20  H   UNL     1       3.617   5.103  20.915  0.00  0.00    +0.000 HD
ENDBRANCH  15  16
ENDBRANCH  14  15
ENDBRANCH   8  14
TORSDOF 4
ENDMDL
MODEL 3
REMARK VINA RESULT:      -7.0      1.022      1.081
REMARK  Name = 
REMARK  6 active torsions:
REMARK  status: ('A' for Active; 'I' for Inactive)
REMARK    1  A    between atoms: C_1  and  O_2
REMARK    2  A    between atoms: O_2  and  C_3
REMARK    3  A    between atoms: C_10  and  C_11
REMARK    4  A    between atoms: C_11  and  C_12
REMARK    5  A    between atoms: C_12  and  N_13
REMARK    6  A    between atoms: C_14  and  C_15
REMARK                            x       y       z     vdW  Elec       q    Type
REMARK                         _______ _______ _______ _____ _____    ______ ____
ROOT
ATOM      1  C   UNL     1       5.688   3.387  12.217  0.00  0.00    +0.000 A 
ATOM      2  C   UNL     1       6.947   3.871  11.880  0.00  0.00    +0.000 A 
ATOM      3  C   UNL     1       7.688   4.633  12.790  0.00  0.00    +0.000 A 
ATOM      4  C   UNL     1       7.131   4.880  14.052  0.00  0.00    +0.000 A 
ATOM      5  N   UNL     1       7.637   5.595  15.108  0.00  0.00    +0.000 N 
ATOM      6  C   UNL     1       6.754   5.585  16.147  0.00  0.00    +0.000 A 
ATOM      7 BR   UNL     1       7.074   6.487  17.749  0.00  0.00    +0.000 Br
ATOM      8  C   UNL     1       5.638   4.844  15.798  0.00  0.00    +0.000 A 
ATOM      9  C   UNL     1       5.874   4.408  14.437  0.00  0.00    +0.000 A 
ATOM     10  C   UNL     1       5.149   3.664  13.480  0.00  0.00    +0.000 A 
ATOM     11  H   UNL     1       8.525   6.075  15.113  0.00  0.00    +0.000 HD
ENDROOT
BRANCH   1  13
ATOM     12  C   UNL     1       3.689   3.237  10.934  0.00  0.00    +0.000 C 
ATOM     13  O   UNL     1       4.875   2.625  11.421  0.00  0.00    +0.000 OA
ENDBRANCH   1  13
BRANCH   8  14
ATOM     14  C   UNL     1       4.420   4.608  16.663  0.00  0.00    +0.000 C 
BRANCH  14  15
ATOM     15  C   UNL     1       4.488   3.382  17.576  0.00  0.00    +0.000 C 
BRANCH  15  16
ATOM     16  N   UNL     1       3.207   2.728  17.765  0.00  0.00    +0.000 N 
ATOM     17  C   UNL     1       2.354   3.105  18.780  0.00  0.00    +0.000 C 
ATOM     18  C   UNL     1       0.996   2.462  18.731  0.00  0.00    +0.000 C 
ATOM     19  O   UNL     1       2.654   3.917  19.653  0.00  0.00    +0.000 OA
ATOM     20  H   UNL     1       2.893   2.066  17.067  0.00  0.00    +0.000 HD
ENDBRANCH  15  16
ENDBRANCH  14  15
ENDBRANCH   8  14
TORSDOF 4
ENDMDL
MODEL 4
REMARK VINA RESULT:      -6.9      1.095      1.095
REMARK  Name = 
REMARK  6 active torsions:
REMARK  status: ('A' for Active; 'I' for Inactive)
REMARK    1  A    between atoms: C_1  and  O_2
REMARK    2  A    between atoms: O_2  and  C_3
REMARK    3  A    between atoms: C_10  and  C_11
REMARK    4  A    between atoms: C_11  and  C_12
REMARK    5  A    between atoms: C_12  and  N_13
REMARK    6  A    between atoms: C_14  and  C_15
REMARK                            x       y       z     vdW  Elec       q    Type
REMARK                         _______ _______ _______ _____ _____    ______ ____
ROOT
ATOM      1  C   UNL     1       5.874   3.419  12.312  0.00  0.00    +0.000 A 
ATOM      2  C   UNL     1       6.996   4.154  11.945  0.00  0.00    +0.000 A 
ATOM      3  C   UNL     1       7.661   4.958  12.878  0.00  0.00    +0.000 A 
ATOM      4  C   UNL     1       7.172   4.988  14.191  0.00  0.00    +0.000 A 
ATOM      5  N   UNL     1       7.627   5.690  15.279  0.00  0.00    +0.000 N 
ATOM      6  C   UNL     1       6.848   5.428  16.366  0.00  0.00    +0.000 A 
ATOM      7 BR   UNL     1       7.130   6.231  18.025  0.00  0.00    +0.000 Br
ATOM      8  C   UNL     1       5.855   4.528  16.016  0.00  0.00    +0.000 A 
ATOM      9  C   UNL     1       6.054   4.261  14.607  0.00  0.00    +0.000 A 
ATOM     10  C   UNL     1       5.398   3.482  13.628  0.00  0.00    +0.000 A 
ATOM     11  H   UNL     1       8.415   6.322  15.275  0.00  0.00    +0.000 HD
ENDROOT
BRANCH   1  13
ATOM     12  C   UNL     1       3.896   3.079  11.033  0.00  0.00    +0.000 C 
ATOM     13  O   UNL     1       5.146   2.593  11.498  0.00  0.00    +0.000 OA
ENDBRANCH   1  13
BRANCH   8  14
ATOM     14  C   UNL     1       4.772   3.998  16.929  0.00  0.00    +0.000 C 
BRANCH  14  15
ATOM     15  C   UNL     1       3.763   5.035  17.426  0.00  0.00    +0.000 C 
BRANCH  15  16
ATOM     16  N   UNL     1       3.200   4.720  18.725  0.00  0.00    +0.000 N 
ATOM     17  C   UNL     1       2.534   5.673  19.465  0.00  0.00    +0.000 C 
ATOM     18  C   UNL     1       1.852   5.147  20.699  0.00  0.00    +0.000 C 
ATOM     19  O   UNL     1       2.473   6.859  19.149  0.00  0.00    +0.000 OA
ATOM     20  H   UNL     1       3.199   3.755  19.032  0.00  0.00    +0.000 HD
ENDBRANCH  15  16
ENDBRANCH  14  15
ENDBRANCH   8  14
TORSDOF 4
ENDMDL
MODEL 5
REMARK VINA RESULT:      -6.8      1.545      1.593
REMARK  Name = 
REMARK  6 active torsions:
REMARK  status: ('A' for Active; 'I' for Inactive)
REMARK    1  A    between atoms: C_1  and  O_2
REMARK    2  A    between atoms: O_2  and  C_3
REMARK    3  A    between atoms: C_10  and  C_11
REMARK    4  A    between atoms: C_11  and  C_12
REMARK    5  A    between atoms: C_12  and  N_13
REMARK    6  A    between atoms: C_14  and  C_15
REMARK                            x       y       z     vdW  Elec       q    Type
REMARK                         _______ _______ _______ _____ _____    ______ ____
ROOT
ATOM      1  C   UNL     1       5.613   3.435  12.281  0.00  0.00    +0.000 A 
ATOM      2  C   UNL     1       6.869   3.902  11.911  0.00  0.00    +0.000 A 
ATOM      3  C   UNL     1       7.637   4.667  12.797  0.00  0.00    +0.000 A 
ATOM      4  C   UNL     1       7.109   4.933  14.068  0.00  0.00    +0.000 A 
ATOM      5  N   UNL     1       7.644   5.654  15.105  0.00  0.00    +0.000 N 
ATOM      6  C   UNL     1       6.784   5.664  16.163  0.00  0.00    +0.000 A 
ATOM      7 BR   UNL     1       7.146   6.580  17.747  0.00  0.00    +0.000 Br
ATOM      8  C   UNL     1       5.653   4.931  15.845  0.00  0.00    +0.000 A 
ATOM      9  C   UNL     1       5.856   4.478  14.485  0.00  0.00    +0.000 A 
ATOM     10  C   UNL     1       5.104   3.731  13.551  0.00  0.00    +0.000 A 
ATOM     11  H   UNL     1       8.537   6.125  15.086  0.00  0.00    +0.000 HD
ENDROOT
BRANCH   1  13
ATOM     12  C   UNL     1       3.703   3.343  10.863  0.00  0.00    +0.000 C 
ATOM     13  O   UNL     1       4.776   2.673  11.510  0.00  0.00    +0.000 OA
ENDBRANCH   1  13
BRANCH   8  14
ATOM     14  C   UNL     1       4.452   4.716  16.738  0.00  0.00    +0.000 C 
BRANCH  14  15
ATOM     15  C   UNL     1       4.180   3.266  17.140  0.00  0.00    +0.000 C 
BRANCH  15  16
ATOM     16  N   UNL     1       4.696   2.920  18.450  0.00  0.00    +0.000 N 
ATOM     17  C   UNL     1       3.881   2.380  19.421  0.00  0.00    +0.000 C 
ATOM     18  C   UNL     1       4.600   1.907  20.655  0.00  0.00    +0.000 C 
ATOM     19  O   UNL     1       2.664   2.266  19.298  0.00  0.00    +0.000 OA
ATOM     20  H   UNL     1       5.696   2.971  18.607  0.00  0.00    +0.000 HD
ENDBRANCH  15  16
ENDBRANCH  14  15
ENDBRANCH   8  14
TORSDOF 4
ENDMDL
MODEL 6
REMARK VINA RESULT:      -6.8      1.652      1.713
REMARK  Name = 
REMARK  6 active torsions:
REMARK  status: ('A' for Active; 'I' for Inactive)
REMARK    1  A    between atoms: C_1  and  O_2
REMARK    2  A    between atoms: O_2  and  C_3
REMARK    3  A    between atoms: C_10  and  C_11
REMARK    4  A    between atoms: C_11  and  C_12
REMARK    5  A    between atoms: C_12  and  N_13
REMARK    6  A    between atoms: C_14  and  C_15
REMARK                            x       y       z     vdW  Elec       q    Type
REMARK                         _______ _______ _______ _____ _____    ______ ____
ROOT
ATOM      1  C   UNL     1       5.882   3.404  12.392  0.00  0.00    +0.000 A 
ATOM      2  C   UNL     1       7.118   3.962  12.088  0.00  0.00    +0.000 A 
ATOM      3  C   UNL     1       7.783   4.774  13.014  0.00  0.00    +0.000 A 
ATOM      4  C   UNL     1       7.173   4.994  14.257  0.00  0.00    +0.000 A 
ATOM      5  N   UNL     1       7.602   5.746  15.322  0.00  0.00    +0.000 N 
ATOM      6  C   UNL     1       6.690   5.688  16.334  0.00  0.00    +0.000 A 
ATOM      7 BR   UNL     1       6.904   6.618  17.937  0.00  0.00    +0.000 Br
ATOM      8  C   UNL     1       5.632   4.878  15.957  0.00  0.00    +0.000 A 
ATOM      9  C   UNL     1       5.936   4.448  14.608  0.00  0.00    +0.000 A 
ATOM     10  C   UNL     1       5.288   3.655  13.635  0.00  0.00    +0.000 A 
ATOM     11  H   UNL     1       8.459   6.279  15.350  0.00  0.00    +0.000 HD
ENDROOT
BRANCH   1  13
ATOM     12  C   UNL     1       5.745   1.375  11.154  0.00  0.00    +0.000 C 
ATOM     13  O   UNL     1       5.141   2.589  11.577  0.00  0.00    +0.000 OA
ENDBRANCH   1  13
BRANCH   8  14
ATOM     14  C   UNL     1       4.405   4.573  16.786  0.00  0.00    +0.000 C 
BRANCH  14  15
ATOM     15  C   UNL     1       4.358   3.175  17.405  0.00  0.00    +0.000 C 
BRANCH  15  16
ATOM     16  N   UNL     1       3.413   3.056  18.499  0.00  0.00    +0.000 N 
ATOM     17  C   UNL     1       3.827   2.711  19.767  0.00  0.00    +0.000 C 
ATOM     18  C   UNL     1       2.761   2.808  20.824  0.00  0.00    +0.000 C 
ATOM     19  O   UNL     1       4.976   2.367  20.037  0.00  0.00    +0.000 OA
ATOM     20  H   UNL     1       2.455   3.345  18.346  0.00  0.00    +0.000 HD
ENDBRANCH  15  16
ENDBRANCH  14  15
ENDBRANCH   8  14
TORSDOF 4
ENDMDL
MODEL 7
REMARK VINA RESULT:      -6.7      2.551      3.694
REMARK  Name = 
REMARK  6 active torsions:
REMARK  status: ('A' for Active; 'I' for Inactive)
REMARK    1  A    between atoms: C_1  and  O_2
REMARK    2  A    between atoms: O_2  and  C_3
REMARK    3  A    between atoms: C_10  and  C_11
REMARK    4  A    between atoms: C_11  and  C_12
REMARK    5  A    between atoms: C_12  and  N_13
REMARK    6  A    between atoms: C_14  and  C_15
REMARK                            x       y       z     vdW  Elec       q    Type
REMARK                         _______ _______ _______ _____ _____    ______ ____
ROOT
ATOM      1  C   UNL     1       6.341   4.584  15.516  0.00  0.00    +0.000 A 
ATOM      2  C   UNL     1       7.084   5.528  16.216  0.00  0.00    +0.000 A 
ATOM      3  C   UNL     1       6.550   6.167  17.341  0.00  0.00    +0.000 A 
ATOM      4  C   UNL     1       5.255   5.818  17.746  0.00  0.00    +0.000 A 
ATOM      5  N   UNL     1       4.507   6.294  18.793  0.00  0.00    +0.000 N 
ATOM      6  C   UNL     1       3.290   5.679  18.818  0.00  0.00    +0.000 A 
ATOM      7 BR   UNL     1       1.978   6.094  20.078  0.00  0.00    +0.000 Br
ATOM      8  C   UNL     1       3.214   4.764  17.782  0.00  0.00    +0.000 A 
ATOM      9  C   UNL     1       4.475   4.871  17.078  0.00  0.00    +0.000 A 
ATOM     10  C   UNL     1       5.042   4.268  15.934  0.00  0.00    +0.000 A 
ATOM     11  H   UNL     1       4.803   7.008  19.443  0.00  0.00    +0.000 HD
ENDROOT
BRANCH   1  13
ATOM     12  C   UNL     1       5.860   3.828  13.311  0.00  0.00    +0.000 C 
ATOM     13  O   UNL     1       6.755   3.887  14.412  0.00  0.00    +0.000 OA
ENDBRANCH   1  13
BRANCH   8  14
ATOM     14  C   UNL     1       2.023   3.893  17.450  0.00  0.00    +0.000 C 
BRANCH  14  15
ATOM     15  C   UNL     1       2.050   2.485  18.047  0.00  0.00    +0.000 C 
BRANCH  15  16
ATOM     16  N   UNL     1       1.453   2.404  19.367  0.00  0.00    +0.000 N 
ATOM     17  C   UNL     1       2.222   2.488  20.507  0.00  0.00    +0.000 C 
ATOM     18  C   UNL     1       1.440   2.572  21.789  0.00  0.00    +0.000 C 
ATOM     19  O   UNL     1       3.451   2.516  20.496  0.00  0.00    +0.000 OA
ATOM     20  H   UNL     1       0.443   2.402  19.443  0.00  0.00    +0.000 HD
ENDBRANCH  15  16
ENDBRANCH  14  15
ENDBRANCH   8  14
TORSDOF 4
ENDMDL
MODEL 8
REMARK VINA RESULT:      -6.7      3.845      5.457
REMARK  Name = 
REMARK  6 active torsions:
REMARK  status: ('A' for Active; 'I' for Inactive)
REMARK    1  A    between atoms: C_1  and  O_2
REMARK    2  A    between atoms: O_2  and  C_3
REMARK    3  A    between atoms: C_10  and  C_11
REMARK    4  A    between atoms: C_11  and  C_12
REMARK    5  A    between atoms: C_12  and  N_13
REMARK    6  A    between atoms: C_14  and  C_15
REMARK                            x       y       z     vdW  Elec       q    Type
REMARK                         _______ _______ _______ _____ _____    ______ ____
ROOT
ATOM      1  C   UNL     1       5.803   6.321  16.805  0.00  0.00    +0.000 A 
ATOM      2  C   UNL     1       5.824   5.327  15.834  0.00  0.00    +0.000 A 
ATOM      3  C   UNL     1       4.918   4.261  15.882  0.00  0.00    +0.000 A 
ATOM      4  C   UNL     1       3.985   4.235  16.926  0.00  0.00    +0.000 A 
ATOM      5  N   UNL     1       3.008   3.312  17.206  0.00  0.00    +0.000 N 
ATOM      6  C   UNL     1       2.326   3.676  18.328  0.00  0.00    +0.000 A 
ATOM      7 BR   UNL     1       0.946   2.646  19.047  0.00  0.00    +0.000 Br
ATOM      8  C   UNL     1       2.837   4.868  18.814  0.00  0.00    +0.000 A 
ATOM      9  C   UNL     1       3.922   5.216  17.919  0.00  0.00    +0.000 A 
ATOM     10  C   UNL     1       4.870   6.260  17.847  0.00  0.00    +0.000 A 
ATOM     11  H   UNL     1       2.828   2.476  16.670  0.00  0.00    +0.000 HD
ENDROOT
BRANCH   1  13
ATOM     12  C   UNL     1       7.695   7.373  17.796  0.00  0.00    +0.000 C 
ATOM     13  O   UNL     1       6.627   7.414  16.860  0.00  0.00    +0.000 OA
ENDBRANCH   1  13
BRANCH   8  14
ATOM     14  C   UNL     1       2.372   5.597  20.055  0.00  0.00    +0.000 C 
BRANCH  14  15
ATOM     15  C   UNL     1       2.158   7.102  19.894  0.00  0.00    +0.000 C 
BRANCH  15  16
ATOM     16  N   UNL     1       1.796   7.773  21.128  0.00  0.00    +0.000 N 
ATOM     17  C   UNL     1       0.927   8.842  21.133  0.00  0.00    +0.000 C 
ATOM     18  C   UNL     1       0.511   9.307  22.502  0.00  0.00    +0.000 C 
ATOM     19  O   UNL     1       0.499   9.374  20.111  0.00  0.00    +0.000 OA
ATOM     20  H   UNL     1       2.100   7.369  22.006  0.00  0.00    +0.000 HD
ENDBRANCH  15  16
ENDBRANCH  14  15
ENDBRANCH   8  14
TORSDOF 4
ENDMDL
MODEL 9
REMARK VINA RESULT:      -6.7      1.893      5.966
REMARK  Name = 
REMARK  6 active torsions:
REMARK  status: ('A' for Active; 'I' for Inactive)
REMARK    1  A    between atoms: C_1  and  O_2
REMARK    2  A    between atoms: O_2  and  C_3
REMARK    3  A    between atoms: C_10  and  C_11
REMARK    4  A    between atoms: C_11  and  C_12
REMARK    5  A    between atoms: C_12  and  N_13
REMARK    6  A    between atoms: C_14  and  C_15
REMARK                            x       y       z     vdW  Elec       q    Type
REMARK                         _______ _______ _______ _____ _____    ______ ____
ROOT
ATOM      1  C   UNL     1       2.810   3.086  18.262  0.00  0.00    +0.000 A 
ATOM      2  C   UNL     1       3.155   3.278  19.595  0.00  0.00    +0.000 A 
ATOM      3  C   UNL     1       4.187   4.156  19.947  0.00  0.00    +0.000 A 
ATOM      4  C   UNL     1       4.849   4.842  18.920  0.00  0.00    +0.000 A 
ATOM      5  N   UNL     1       5.885   5.739  18.993  0.00  0.00    +0.000 N 
ATOM      6  C   UNL     1       6.228   6.162  17.743  0.00  0.00    +0.000 A 
ATOM      7 BR   UNL     1       7.626   7.357  17.432  0.00  0.00    +0.000 Br
ATOM      8  C   UNL     1       5.407   5.554  16.808  0.00  0.00    +0.000 A 
ATOM      9  C   UNL     1       4.531   4.687  17.569  0.00  0.00    +0.000 A 
ATOM     10  C   UNL     1       3.501   3.773  17.256  0.00  0.00    +0.000 A 
ATOM     11  H   UNL     1       6.342   6.032  19.844  0.00  0.00    +0.000 HD
ENDROOT
BRANCH   1  13
ATOM     12  C   UNL     1       0.660   2.123  18.605  0.00  0.00    +0.000 C 
ATOM     13  O   UNL     1       1.817   2.266  17.794  0.00  0.00    +0.000 OA
ENDBRANCH   1  13
BRANCH   8  14
ATOM     14  C   UNL     1       5.476   5.738  15.308  0.00  0.00    +0.000 C 
BRANCH  14  15
ATOM     15  C   UNL     1       6.451   4.817  14.575  0.00  0.00    +0.000 C 
BRANCH  15  16
ATOM     16  N   UNL     1       5.801   3.870  13.689  0.00  0.00    +0.000 N 
ATOM     17  C   UNL     1       6.299   3.609  12.432  0.00  0.00    +0.000 C 
ATOM     18  C   UNL     1       5.623   2.475  11.711  0.00  0.00    +0.000 C 
ATOM     19  O   UNL     1       7.234   4.229  11.929  0.00  0.00    +0.000 OA
ATOM     20  H   UNL     1       5.039   3.311  14.052  0.00  0.00    +0.000 HD
ENDBRANCH  15  16
ENDBRANCH  14  15
ENDBRANCH   8  14
TORSDOF 4
ENDMDL
