MODEL 1
REMARK VINA RESULT:      -7.5      0.000      0.000
REMARK  Name = 
REMARK  9 active torsions:
REMARK  status: ('A' for Active; 'I' for Inactive)
REMARK    1  A    between atoms: C_1  and  C_2
REMARK    2  A    between atoms: C_2  and  C_3
REMARK    3  A    between atoms: C_3  and  N_4
REMARK    4  A    between atoms: N_11  and  C_12
REMARK    5  A    between atoms: N_15  and  C_16
REMARK    6  A    between atoms: N_17  and  C_18
REMARK    7  A    between atoms: C_18  and  C_19
REMARK    8  A    between atoms: C_19  and  C_20
REMARK    9  A    between atoms: C_20  and  C_21
REMARK                            x       y       z     vdW  Elec       q    Type
REMARK                         _______ _______ _______ _____ _____    ______ ____
ROOT
ATOM      1  N   UNL     1       2.813   8.040  17.616  0.00  0.00    +0.000 N 
ATOM      2  C   UNL     1       2.935   6.805  18.156  0.00  0.00    +0.000 A 
ATOM      3  N   UNL     1       2.020   6.152  18.836  0.00  0.00    +0.000 NA
ATOM      4  C   UNL     1       2.644   5.030  19.268  0.00  0.00    +0.000 A 
ATOM      5  C   UNL     1       3.941   4.967  18.857  0.00  0.00    +0.000 A 
ATOM      6  C   UNL     1       4.811   3.906  19.235  0.00  0.00    +0.000 A 
ATOM      7  O   UNL     1       5.982   3.838  18.872  0.00  0.00    +0.000 OA
ATOM      8  N   UNL     1       4.190   2.960  20.063  0.00  0.00    +0.000 N 
ATOM      9  C   UNL     1       4.975   1.834  20.535  0.00  0.00    +0.000 C 
ATOM     10  C   UNL     1       2.843   2.985  20.477  0.00  0.00    +0.000 A 
ATOM     11  O   UNL     1       2.376   2.086  21.184  0.00  0.00    +0.000 OA
ATOM     12  N   UNL     1       2.071   4.063  20.056  0.00  0.00    +0.000 N 
ATOM     13  C   UNL     1       0.675   4.175  20.440  0.00  0.00    +0.000 C 
ATOM     14  N   UNL     1       4.123   6.099  18.099  0.00  0.00    +0.000 N 
ATOM     15  H   UNL     1       2.711   8.038  16.603  0.00  0.00    +0.000 HD
ENDROOT
BRANCH   1  16
ATOM     16  C   UNL     1       1.778   8.885  18.220  0.00  0.00    +0.000 C 
BRANCH  16  18
ATOM     17  C   UNL     1       1.148  11.289  18.735  0.00  0.00    +0.000 C 
ATOM     18  C   UNL     1       2.109  10.361  18.001  0.00  0.00    +0.000 C 
ENDBRANCH  16  18
ENDBRANCH   1  16
BRANCH  14  19
ATOM     19  C   UNL     1       5.369   6.562  17.514  0.00  0.00    +0.000 C 
BRANCH  19  20
ATOM     20  C   UNL     1       5.506   6.304  16.011  0.00  0.00    +0.000 C 
BRANCH  20  21
ATOM     21  C   UNL     1       5.334   4.832  15.625  0.00  0.00    +0.000 C 
BRANCH  21  22
ATOM     22  C   UNL     1       5.960   4.524  14.286  0.00  0.00    +0.000 A 
ATOM     23  C   UNL     1       5.353   3.611  13.413  0.00  0.00    +0.000 A 
ATOM     24  C   UNL     1       5.931   3.317  12.176  0.00  0.00    +0.000 A 
ATOM     25  C   UNL     1       7.125   3.931  11.802  0.00  0.00    +0.000 A 
ATOM     26  C   UNL     1       7.743   4.834  12.662  0.00  0.00    +0.000 A 
ATOM     27  C   UNL     1       7.164   5.128  13.901  0.00  0.00    +0.000 A 
ENDBRANCH  21  22
ENDBRANCH  20  21
ENDBRANCH  19  20
ENDBRANCH  14  19
TORSDOF 6
ENDMDL
MODEL 2
REMARK VINA RESULT:      -7.4      3.535      6.347
REMARK  Name = 
REMARK  9 active torsions:
REMARK  status: ('A' for Active; 'I' for Inactive)
REMARK    1  A    between atoms: C_1  and  C_2
REMARK    2  A    between atoms: C_2  and  C_3
REMARK    3  A    between atoms: C_3  and  N_4
REMARK    4  A    between atoms: N_11  and  C_12
REMARK    5  A    between atoms: N_15  and  C_16
REMARK    6  A    between atoms: N_17  and  C_18
REMARK    7  A    between atoms: C_18  and  C_19
REMARK    8  A    between atoms: C_19  and  C_20
REMARK    9  A    between atoms: C_20  and  C_21
REMARK                            x       y       z     vdW  Elec       q    Type
REMARK                         _______ _______ _______ _____ _____    ______ ____
ROOT
ATOM      1  N   UNL     1       2.225   5.548  19.924  0.00  0.00    +0.000 N 
ATOM      2  C   UNL     1       1.948   6.870  20.001  0.00  0.00    +0.000 A 
ATOM      3  N   UNL     1       1.315   7.484  20.975  0.00  0.00    +0.000 NA
ATOM      4  C   UNL     1       1.173   8.762  20.546  0.00  0.00    +0.000 A 
ATOM      5  C   UNL     1       1.721   8.958  19.315  0.00  0.00    +0.000 A 
ATOM      6  C   UNL     1       1.645  10.208  18.637  0.00  0.00    +0.000 A 
ATOM      7  O   UNL     1       2.134  10.399  17.527  0.00  0.00    +0.000 OA
ATOM      8  N   UNL     1       0.955  11.185  19.368  0.00  0.00    +0.000 N 
ATOM      9  C   UNL     1       0.791  12.501  18.780  0.00  0.00    +0.000 C 
ATOM     10  C   UNL     1       0.406  11.016  20.656  0.00  0.00    +0.000 A 
ATOM     11  O   UNL     1      -0.160  11.949  21.235  0.00  0.00    +0.000 OA
ATOM     12  N   UNL     1       0.530   9.758  21.237  0.00  0.00    +0.000 N 
ATOM     13  C   UNL     1      -0.011   9.491  22.558  0.00  0.00    +0.000 C 
ATOM     14  N   UNL     1       2.262   7.742  18.973  0.00  0.00    +0.000 N 
ATOM     15  H   UNL     1       3.204   5.323  20.092  0.00  0.00    +0.000 HD
ENDROOT
BRANCH   1  16
ATOM     16  C   UNL     1       1.367   4.683  20.738  0.00  0.00    +0.000 C 
BRANCH  16  18
ATOM     17  C   UNL     1       1.571   2.407  21.841  0.00  0.00    +0.000 C 
ATOM     18  C   UNL     1       2.221   3.766  21.613  0.00  0.00    +0.000 C 
ENDBRANCH  16  18
ENDBRANCH   1  16
BRANCH  14  19
ATOM     19  C   UNL     1       2.873   7.388  17.705  0.00  0.00    +0.000 C 
BRANCH  19  20
ATOM     20  C   UNL     1       4.266   6.761  17.818  0.00  0.00    +0.000 C 
BRANCH  20  21
ATOM     21  C   UNL     1       4.485   5.581  16.866  0.00  0.00    +0.000 C 
BRANCH  21  22
ATOM     22  C   UNL     1       4.077   4.269  17.492  0.00  0.00    +0.000 A 
ATOM     23  C   UNL     1       2.933   3.595  17.043  0.00  0.00    +0.000 A 
ATOM     24  C   UNL     1       2.548   2.385  17.622  0.00  0.00    +0.000 A 
ATOM     25  C   UNL     1       3.300   1.838  18.660  0.00  0.00    +0.000 A 
ATOM     26  C   UNL     1       4.434   2.500  19.121  0.00  0.00    +0.000 A 
ATOM     27  C   UNL     1       4.821   3.712  18.541  0.00  0.00    +0.000 A 
ENDBRANCH  21  22
ENDBRANCH  20  21
ENDBRANCH  19  20
ENDBRANCH  14  19
TORSDOF 6
ENDMDL
MODEL 3
REMARK VINA RESULT:      -7.4      0.431      1.007
REMARK  Name = 
REMARK  9 active torsions:
REMARK  status: ('A' for Active; 'I' for Inactive)
REMARK    1  A    between atoms: C_1  and  C_2
REMARK    2  A    between atoms: C_2  and  C_3
REMARK    3  A    between atoms: C_3  and  N_4
REMARK    4  A    between atoms: N_11  and  C_12
REMARK    5  A    between atoms: N_15  and  C_16
REMARK    6  A    between atoms: N_17  and  C_18
REMARK    7  A    between atoms: C_18  and  C_19
REMARK    8  A    between atoms: C_19  and  C_20
REMARK    9  A    between atoms: C_20  and  C_21
REMARK                            x       y       z     vdW  Elec       q    Type
REMARK                         _______ _______ _______ _____ _____    ______ ____
ROOT
ATOM      1  N   UNL     1       2.859   8.112  17.640  0.00  0.00    +0.000 N 
ATOM      2  C   UNL     1       2.971   6.868  18.161  0.00  0.00    +0.000 A 
ATOM      3  N   UNL     1       2.047   6.210  18.824  0.00  0.00    +0.000 NA
ATOM      4  C   UNL     1       2.662   5.077  19.243  0.00  0.00    +0.000 A 
ATOM      5  C   UNL     1       3.961   5.013  18.839  0.00  0.00    +0.000 A 
ATOM      6  C   UNL     1       4.822   3.940  19.206  0.00  0.00    +0.000 A 
ATOM      7  O   UNL     1       5.995   3.871  18.850  0.00  0.00    +0.000 OA
ATOM      8  N   UNL     1       4.190   2.985  20.015  0.00  0.00    +0.000 N 
ATOM      9  C   UNL     1       4.965   1.847  20.475  0.00  0.00    +0.000 C 
ATOM     10  C   UNL     1       2.840   3.012  20.421  0.00  0.00    +0.000 A 
ATOM     11  O   UNL     1       2.363   2.105  21.110  0.00  0.00    +0.000 OA
ATOM     12  N   UNL     1       2.078   4.101  20.011  0.00  0.00    +0.000 N 
ATOM     13  C   UNL     1       0.680   4.216  20.388  0.00  0.00    +0.000 C 
ATOM     14  N   UNL     1       4.155   6.156  18.101  0.00  0.00    +0.000 N 
ATOM     15  H   UNL     1       2.765   8.126  16.626  0.00  0.00    +0.000 HD
ENDROOT
BRANCH   1  16
ATOM     16  C   UNL     1       1.826   8.953  18.250  0.00  0.00    +0.000 C 
BRANCH  16  18
ATOM     17  C   UNL     1       1.348  11.367  18.872  0.00  0.00    +0.000 C 
ATOM     18  C   UNL     1       2.087  10.425  17.929  0.00  0.00    +0.000 C 
ENDBRANCH  16  18
ENDBRANCH   1  16
BRANCH  14  19
ATOM     19  C   UNL     1       5.407   6.621  17.531  0.00  0.00    +0.000 C 
BRANCH  19  20
ATOM     20  C   UNL     1       5.608   6.270  16.054  0.00  0.00    +0.000 C 
BRANCH  20  21
ATOM     21  C   UNL     1       6.781   5.317  15.805  0.00  0.00    +0.000 C 
BRANCH  21  22
ATOM     22  C   UNL     1       6.797   4.802  14.386  0.00  0.00    +0.000 A 
ATOM     23  C   UNL     1       7.699   5.327  13.451  0.00  0.00    +0.000 A 
ATOM     24  C   UNL     1       7.714   4.859  12.136  0.00  0.00    +0.000 A 
ATOM     25  C   UNL     1       6.823   3.864  11.741  0.00  0.00    +0.000 A 
ATOM     26  C   UNL     1       5.915   3.338  12.657  0.00  0.00    +0.000 A 
ATOM     27  C   UNL     1       5.901   3.806  13.974  0.00  0.00    +0.000 A 
ENDBRANCH  21  22
ENDBRANCH  20  21
ENDBRANCH  19  20
ENDBRANCH  14  19
TORSDOF 6
ENDMDL
MODEL 4
REMARK VINA RESULT:      -7.4      3.469      6.095
REMARK  Name = 
REMARK  9 active torsions:
REMARK  status: ('A' for Active; 'I' for Inactive)
REMARK    1  A    between atoms: C_1  and  C_2
REMARK    2  A    between atoms: C_2  and  C_3
REMARK    3  A    between atoms: C_3  and  N_4
REMARK    4  A    between atoms: N_11  and  C_12
REMARK    5  A    between atoms: N_15  and  C_16
REMARK    6  A    between atoms: N_17  and  C_18
REMARK    7  A    between atoms: C_18  and  C_19
REMARK    8  A    between atoms: C_19  and  C_20
REMARK    9  A    between atoms: C_20  and  C_21
REMARK                            x       y       z     vdW  Elec       q    Type
REMARK                         _______ _______ _______ _____ _____    ______ ____
ROOT
ATOM      1  N   UNL     1       2.789   5.399  20.417  0.00  0.00    +0.000 N 
ATOM      2  C   UNL     1       2.236   6.631  20.335  0.00  0.00    +0.000 A 
ATOM      3  N   UNL     1       1.402   7.175  21.193  0.00  0.00    +0.000 NA
ATOM      4  C   UNL     1       1.037   8.349  20.624  0.00  0.00    +0.000 A 
ATOM      5  C   UNL     1       1.642   8.552  19.421  0.00  0.00    +0.000 A 
ATOM      6  C   UNL     1       1.370   9.693  18.613  0.00  0.00    +0.000 A 
ATOM      7  O   UNL     1       1.907   9.887  17.526  0.00  0.00    +0.000 OA
ATOM      8  N   UNL     1       0.426  10.557  19.187  0.00  0.00    +0.000 N 
ATOM      9  C   UNL     1       0.046  11.750  18.455  0.00  0.00    +0.000 C 
ATOM     10  C   UNL     1      -0.190  10.385  20.443  0.00  0.00    +0.000 A 
ATOM     11  O   UNL     1      -0.989  11.220  20.881  0.00  0.00    +0.000 OA
ATOM     12  N   UNL     1       0.140   9.239  21.160  0.00  0.00    +0.000 N 
ATOM     13  C   UNL     1      -0.452   8.977  22.460  0.00  0.00    +0.000 C 
ATOM     14  N   UNL     1       2.454   7.458  19.247  0.00  0.00    +0.000 N 
ATOM     15  H   UNL     1       3.773   5.406  20.676  0.00  0.00    +0.000 HD
ENDROOT
BRANCH   1  16
ATOM     16  C   UNL     1       2.059   4.442  21.254  0.00  0.00    +0.000 C 
BRANCH  16  18
ATOM     17  C   UNL     1       1.497   2.692  19.504  0.00  0.00    +0.000 C 
ATOM     18  C   UNL     1       0.956   3.765  20.441  0.00  0.00    +0.000 C 
ENDBRANCH  16  18
ENDBRANCH   1  16
BRANCH  14  19
ATOM     19  C   UNL     1       3.238   7.135  18.069  0.00  0.00    +0.000 C 
BRANCH  19  20
ATOM     20  C   UNL     1       3.214   5.657  17.668  0.00  0.00    +0.000 C 
BRANCH  20  21
ATOM     21  C   UNL     1       4.471   5.205  16.920  0.00  0.00    +0.000 C 
BRANCH  21  22
ATOM     22  C   UNL     1       5.729   5.758  17.545  0.00  0.00    +0.000 A 
ATOM     23  C   UNL     1       6.388   6.851  16.966  0.00  0.00    +0.000 A 
ATOM     24  C   UNL     1       7.555   7.362  17.536  0.00  0.00    +0.000 A 
ATOM     25  C   UNL     1       8.079   6.781  18.690  0.00  0.00    +0.000 A 
ATOM     26  C   UNL     1       7.439   5.690  19.271  0.00  0.00    +0.000 A 
ATOM     27  C   UNL     1       6.270   5.178  18.701  0.00  0.00    +0.000 A 
ENDBRANCH  21  22
ENDBRANCH  20  21
ENDBRANCH  19  20
ENDBRANCH  14  19
TORSDOF 6
ENDMDL
MODEL 5
REMARK VINA RESULT:      -7.2      3.444      6.242
REMARK  Name = 
REMARK  9 active torsions:
REMARK  status: ('A' for Active; 'I' for Inactive)
REMARK    1  A    between atoms: C_1  and  C_2
REMARK    2  A    between atoms: C_2  and  C_3
REMARK    3  A    between atoms: C_3  and  N_4
REMARK    4  A    between atoms: N_11  and  C_12
REMARK    5  A    between atoms: N_15  and  C_16
REMARK    6  A    between atoms: N_17  and  C_18
REMARK    7  A    between atoms: C_18  and  C_19
REMARK    8  A    between atoms: C_19  and  C_20
REMARK    9  A    between atoms: C_20  and  C_21
REMARK                            x       y       z     vdW  Elec       q    Type
REMARK                         _______ _______ _______ _____ _____    ______ ____
ROOT
ATOM      1  N   UNL     1       2.489   5.329  20.400  0.00  0.00    +0.000 N 
ATOM      2  C   UNL     1       2.126   6.632  20.356  0.00  0.00    +0.000 A 
ATOM      3  N   UNL     1       1.599   7.332  21.335  0.00  0.00    +0.000 NA
ATOM      4  C   UNL     1       1.299   8.532  20.780  0.00  0.00    +0.000 A 
ATOM      5  C   UNL     1       1.642   8.594  19.464  0.00  0.00    +0.000 A 
ATOM      6  C   UNL     1       1.373   9.737  18.658  0.00  0.00    +0.000 A 
ATOM      7  O   UNL     1       1.677   9.805  17.470  0.00  0.00    +0.000 OA
ATOM      8  N   UNL     1       0.725  10.761  19.362  0.00  0.00    +0.000 N 
ATOM      9  C   UNL     1       0.377  11.977  18.650  0.00  0.00    +0.000 C 
ATOM     10  C   UNL     1       0.387  10.734  20.731  0.00  0.00    +0.000 A 
ATOM     11  O   UNL     1      -0.157  11.702  21.273  0.00  0.00    +0.000 OA
ATOM     12  N   UNL     1       0.691   9.573  21.435  0.00  0.00    +0.000 N 
ATOM     13  C   UNL     1       0.372   9.454  22.847  0.00  0.00    +0.000 C 
ATOM     14  N   UNL     1       2.218   7.376  19.194  0.00  0.00    +0.000 N 
ATOM     15  H   UNL     1       3.496   5.183  20.439  0.00  0.00    +0.000 HD
ENDROOT
BRANCH   1  16
ATOM     16  C   UNL     1       1.828   4.532  21.438  0.00  0.00    +0.000 C 
BRANCH  16  18
ATOM     17  C   UNL     1       0.593   3.492  19.480  0.00  0.00    +0.000 C 
ATOM     18  C   UNL     1       1.253   3.252  20.833  0.00  0.00    +0.000 C 
ENDBRANCH  16  18
ENDBRANCH   1  16
BRANCH  14  19
ATOM     19  C   UNL     1       2.661   6.891  17.899  0.00  0.00    +0.000 C 
BRANCH  19  20
ATOM     20  C   UNL     1       4.180   6.771  17.745  0.00  0.00    +0.000 C 
BRANCH  20  21
ATOM     21  C   UNL     1       4.616   5.578  16.889  0.00  0.00    +0.000 C 
BRANCH  21  22
ATOM     22  C   UNL     1       4.313   4.261  17.562  0.00  0.00    +0.000 A 
ATOM     23  C   UNL     1       4.938   3.921  18.770  0.00  0.00    +0.000 A 
ATOM     24  C   UNL     1       4.667   2.702  19.393  0.00  0.00    +0.000 A 
ATOM     25  C   UNL     1       3.771   1.807  18.812  0.00  0.00    +0.000 A 
ATOM     26  C   UNL     1       3.148   2.127  17.609  0.00  0.00    +0.000 A 
ATOM     27  C   UNL     1       3.419   3.349  16.985  0.00  0.00    +0.000 A 
ENDBRANCH  21  22
ENDBRANCH  20  21
ENDBRANCH  19  20
ENDBRANCH  14  19
TORSDOF 6
ENDMDL
MODEL 6
REMARK VINA RESULT:      -7.2      3.983      6.459
REMARK  Name = 
REMARK  9 active torsions:
REMARK  status: ('A' for Active; 'I' for Inactive)
REMARK    1  A    between atoms: C_1  and  C_2
REMARK    2  A    between atoms: C_2  and  C_3
REMARK    3  A    between atoms: C_3  and  N_4
REMARK    4  A    between atoms: N_11  and  C_12
REMARK    5  A    between atoms: N_15  and  C_16
REMARK    6  A    between atoms: N_17  and  C_18
REMARK    7  A    between atoms: C_18  and  C_19
REMARK    8  A    between atoms: C_19  and  C_20
REMARK    9  A    between atoms: C_20  and  C_21
REMARK                            x       y       z     vdW  Elec       q    Type
REMARK                         _______ _______ _______ _____ _____    ______ ____
ROOT
ATOM      1  N   UNL     1       2.131   6.003  19.924  0.00  0.00    +0.000 N 
ATOM      2  C   UNL     1       1.756   7.271  20.210  0.00  0.00    +0.000 A 
ATOM      3  N   UNL     1       1.323   7.718  21.367  0.00  0.00    +0.000 NA
ATOM      4  C   UNL     1       0.960   9.002  21.130  0.00  0.00    +0.000 A 
ATOM      5  C   UNL     1       1.171   9.368  19.835  0.00  0.00    +0.000 A 
ATOM      6  C   UNL     1       0.815  10.654  19.338  0.00  0.00    +0.000 A 
ATOM      7  O   UNL     1       0.999  10.997  18.173  0.00  0.00    +0.000 OA
ATOM      8  N   UNL     1       0.232  11.475  20.314  0.00  0.00    +0.000 N 
ATOM      9  C   UNL     1      -0.194  12.808  19.932  0.00  0.00    +0.000 C 
ATOM     10  C   UNL     1       0.031  11.131  21.667  0.00  0.00    +0.000 A 
ATOM     11  O   UNL     1      -0.464  11.936  22.463  0.00  0.00    +0.000 OA
ATOM     12  N   UNL     1       0.412   9.851  22.058  0.00  0.00    +0.000 N 
ATOM     13  C   UNL     1       0.236   9.408  23.430  0.00  0.00    +0.000 C 
ATOM     14  N   UNL     1       1.727   8.260  19.243  0.00  0.00    +0.000 N 
ATOM     15  H   UNL     1       3.138   5.882  19.833  0.00  0.00    +0.000 HD
ENDROOT
BRANCH   1  16
ATOM     16  C   UNL     1       1.582   4.974  20.812  0.00  0.00    +0.000 C 
BRANCH  16  18
ATOM     17  C   UNL     1       1.440   3.851  18.541  0.00  0.00    +0.000 C 
ATOM     18  C   UNL     1       0.968   3.842  19.990  0.00  0.00    +0.000 C 
ENDBRANCH  16  18
ENDBRANCH   1  16
BRANCH  14  19
ATOM     19  C   UNL     1       2.043   8.092  17.836  0.00  0.00    +0.000 C 
BRANCH  19  20
ATOM     20  C   UNL     1       3.536   8.160  17.502  0.00  0.00    +0.000 C 
BRANCH  20  21
ATOM     21  C   UNL     1       4.120   6.826  17.030  0.00  0.00    +0.000 C 
BRANCH  21  22
ATOM     22  C   UNL     1       5.434   6.516  17.705  0.00  0.00    +0.000 A 
ATOM     23  C   UNL     1       5.502   5.547  18.715  0.00  0.00    +0.000 A 
ATOM     24  C   UNL     1       6.713   5.262  19.347  0.00  0.00    +0.000 A 
ATOM     25  C   UNL     1       7.870   5.945  18.978  0.00  0.00    +0.000 A 
ATOM     26  C   UNL     1       7.816   6.916  17.981  0.00  0.00    +0.000 A 
ATOM     27  C   UNL     1       6.603   7.202  17.348  0.00  0.00    +0.000 A 
ENDBRANCH  21  22
ENDBRANCH  20  21
ENDBRANCH  19  20
ENDBRANCH  14  19
TORSDOF 6
ENDMDL
MODEL 7
REMARK VINA RESULT:      -7.2      3.438      6.160
REMARK  Name = 
REMARK  9 active torsions:
REMARK  status: ('A' for Active; 'I' for Inactive)
REMARK    1  A    between atoms: C_1  and  C_2
REMARK    2  A    between atoms: C_2  and  C_3
REMARK    3  A    between atoms: C_3  and  N_4
REMARK    4  A    between atoms: N_11  and  C_12
REMARK    5  A    between atoms: N_15  and  C_16
REMARK    6  A    between atoms: N_17  and  C_18
REMARK    7  A    between atoms: C_18  and  C_19
REMARK    8  A    between atoms: C_19  and  C_20
REMARK    9  A    between atoms: C_20  and  C_21
REMARK                            x       y       z     vdW  Elec       q    Type
REMARK                         _______ _______ _______ _____ _____    ______ ____
ROOT
ATOM      1  N   UNL     1       2.655   5.383  20.367  0.00  0.00    +0.000 N 
ATOM      2  C   UNL     1       2.155   6.639  20.315  0.00  0.00    +0.000 A 
ATOM      3  N   UNL     1       1.375   7.210  21.205  0.00  0.00    +0.000 NA
ATOM      4  C   UNL     1       1.043   8.406  20.660  0.00  0.00    +0.000 A 
ATOM      5  C   UNL     1       1.617   8.595  19.439  0.00  0.00    +0.000 A 
ATOM      6  C   UNL     1       1.369   9.755  18.651  0.00  0.00    +0.000 A 
ATOM      7  O   UNL     1       1.879   9.937  17.549  0.00  0.00    +0.000 OA
ATOM      8  N   UNL     1       0.485  10.653  19.264  0.00  0.00    +0.000 N 
ATOM      9  C   UNL     1       0.134  11.870  18.556  0.00  0.00    +0.000 C 
ATOM     10  C   UNL     1      -0.098  10.496  20.539  0.00  0.00    +0.000 A 
ATOM     11  O   UNL     1      -0.844  11.360  21.010  0.00  0.00    +0.000 OA
ATOM     12  N   UNL     1       0.205   9.329  21.234  0.00  0.00    +0.000 N 
ATOM     13  C   UNL     1      -0.355   9.079  22.550  0.00  0.00    +0.000 C 
ATOM     14  N   UNL     1       2.373   7.467  19.229  0.00  0.00    +0.000 N 
ATOM     15  H   UNL     1       3.646   5.344  20.593  0.00  0.00    +0.000 HD
ENDROOT
BRANCH   1  16
ATOM     16  C   UNL     1       1.911   4.450  21.219  0.00  0.00    +0.000 C 
BRANCH  16  18
ATOM     17  C   UNL     1       2.523   2.510  19.703  0.00  0.00    +0.000 C 
ATOM     18  C   UNL     1       2.520   3.052  21.127  0.00  0.00    +0.000 C 
ENDBRANCH  16  18
ENDBRANCH   1  16
BRANCH  14  19
ATOM     19  C   UNL     1       3.104   7.123  18.022  0.00  0.00    +0.000 C 
BRANCH  19  20
ATOM     20  C   UNL     1       3.186   5.622  17.730  0.00  0.00    +0.000 C 
BRANCH  20  21
ATOM     21  C   UNL     1       4.425   5.222  16.924  0.00  0.00    +0.000 C 
BRANCH  21  22
ATOM     22  C   UNL     1       5.698   5.734  17.555  0.00  0.00    +0.000 A 
ATOM     23  C   UNL     1       6.176   5.171  18.745  0.00  0.00    +0.000 A 
ATOM     24  C   UNL     1       7.348   5.645  19.336  0.00  0.00    +0.000 A 
ATOM     25  C   UNL     1       8.052   6.692  18.745  0.00  0.00    +0.000 A 
ATOM     26  C   UNL     1       7.585   7.267  17.567  0.00  0.00    +0.000 A 
ATOM     27  C   UNL     1       6.411   6.792  16.974  0.00  0.00    +0.000 A 
ENDBRANCH  21  22
ENDBRANCH  20  21
ENDBRANCH  19  20
ENDBRANCH  14  19
TORSDOF 6
ENDMDL
MODEL 8
REMARK VINA RESULT:      -7.0      3.096      5.557
REMARK  Name = 
REMARK  9 active torsions:
REMARK  status: ('A' for Active; 'I' for Inactive)
REMARK    1  A    between atoms: C_1  and  C_2
REMARK    2  A    between atoms: C_2  and  C_3
REMARK    3  A    between atoms: C_3  and  N_4
REMARK    4  A    between atoms: N_11  and  C_12
REMARK    5  A    between atoms: N_15  and  C_16
REMARK    6  A    between atoms: N_17  and  C_18
REMARK    7  A    between atoms: C_18  and  C_19
REMARK    8  A    between atoms: C_19  and  C_20
REMARK    9  A    between atoms: C_20  and  C_21
REMARK                            x       y       z     vdW  Elec       q    Type
REMARK                         _______ _______ _______ _____ _____    ______ ____
ROOT
ATOM      1  N   UNL     1       2.670   5.316  20.194  0.00  0.00    +0.000 N 
ATOM      2  C   UNL     1       2.243   6.600  20.188  0.00  0.00    +0.000 A 
ATOM      3  N   UNL     1       1.604   7.219  21.155  0.00  0.00    +0.000 NA
ATOM      4  C   UNL     1       1.285   8.431  20.640  0.00  0.00    +0.000 A 
ATOM      5  C   UNL     1       1.726   8.582  19.361  0.00  0.00    +0.000 A 
ATOM      6  C   UNL     1       1.460   9.753  18.596  0.00  0.00    +0.000 A 
ATOM      7  O   UNL     1       1.851   9.903  17.441  0.00  0.00    +0.000 OA
ATOM      8  N   UNL     1       0.705  10.704  19.297  0.00  0.00    +0.000 N 
ATOM      9  C   UNL     1       0.349  11.939  18.622  0.00  0.00    +0.000 C 
ATOM     10  C   UNL     1       0.264  10.585  20.631  0.00  0.00    +0.000 A 
ATOM     11  O   UNL     1      -0.372  11.494  21.176  0.00  0.00    +0.000 OA
ATOM     12  N   UNL     1       0.573   9.404  21.297  0.00  0.00    +0.000 N 
ATOM     13  C   UNL     1       0.153   9.190  22.671  0.00  0.00    +0.000 C 
ATOM     14  N   UNL     1       2.385   7.411  19.076  0.00  0.00    +0.000 N 
ATOM     15  H   UNL     1       3.677   5.218  20.306  0.00  0.00    +0.000 HD
ENDROOT
BRANCH   1  16
ATOM     16  C   UNL     1       1.974   4.432  21.133  0.00  0.00    +0.000 C 
BRANCH  16  18
ATOM     17  C   UNL     1       1.468   2.510  19.555  0.00  0.00    +0.000 C 
ATOM     18  C   UNL     1       0.891   3.637  20.404  0.00  0.00    +0.000 C 
ENDBRANCH  16  18
ENDBRANCH   1  16
BRANCH  14  19
ATOM     19  C   UNL     1       2.952   7.021  17.798  0.00  0.00    +0.000 C 
BRANCH  19  20
ATOM     20  C   UNL     1       4.465   7.229  17.678  0.00  0.00    +0.000 C 
BRANCH  20  21
ATOM     21  C   UNL     1       5.279   5.955  17.919  0.00  0.00    +0.000 C 
BRANCH  21  22
ATOM     22  C   UNL     1       5.679   5.288  16.625  0.00  0.00    +0.000 A 
ATOM     23  C   UNL     1       4.844   4.330  16.033  0.00  0.00    +0.000 A 
ATOM     24  C   UNL     1       5.212   3.706  14.840  0.00  0.00    +0.000 A 
ATOM     25  C   UNL     1       6.422   4.029  14.228  0.00  0.00    +0.000 A 
ATOM     26  C   UNL     1       7.265   4.973  14.809  0.00  0.00    +0.000 A 
ATOM     27  C   UNL     1       6.896   5.599  16.004  0.00  0.00    +0.000 A 
ENDBRANCH  21  22
ENDBRANCH  20  21
ENDBRANCH  19  20
ENDBRANCH  14  19
TORSDOF 6
ENDMDL
MODEL 9
REMARK VINA RESULT:      -7.0      3.061      5.565
REMARK  Name = 
REMARK  9 active torsions:
REMARK  status: ('A' for Active; 'I' for Inactive)
REMARK    1  A    between atoms: C_1  and  C_2
REMARK    2  A    between atoms: C_2  and  C_3
REMARK    3  A    between atoms: C_3  and  N_4
REMARK    4  A    between atoms: N_11  and  C_12
REMARK    5  A    between atoms: N_15  and  C_16
REMARK    6  A    between atoms: N_17  and  C_18
REMARK    7  A    between atoms: C_18  and  C_19
REMARK    8  A    between atoms: C_19  and  C_20
REMARK    9  A    between atoms: C_20  and  C_21
REMARK                            x       y       z     vdW  Elec       q    Type
REMARK                         _______ _______ _______ _____ _____    ______ ____
ROOT
ATOM      1  N   UNL     1       2.771   5.038  20.563  0.00  0.00    +0.000 N 
ATOM      2  C   UNL     1       2.273   6.290  20.434  0.00  0.00    +0.000 A 
ATOM      3  N   UNL     1       1.473   6.906  21.275  0.00  0.00    +0.000 NA
ATOM      4  C   UNL     1       1.155   8.071  20.661  0.00  0.00    +0.000 A 
ATOM      5  C   UNL     1       1.757   8.197  19.447  0.00  0.00    +0.000 A 
ATOM      6  C   UNL     1       1.528   9.315  18.594  0.00  0.00    +0.000 A 
ATOM      7  O   UNL     1       2.063   9.440  17.496  0.00  0.00    +0.000 OA
ATOM      8  N   UNL     1       0.629  10.243  19.139  0.00  0.00    +0.000 N 
ATOM      9  C   UNL     1       0.296  11.421  18.361  0.00  0.00    +0.000 C 
ATOM     10  C   UNL     1       0.017  10.151  20.406  0.00  0.00    +0.000 A 
ATOM     11  O   UNL     1      -0.739  11.038  20.815  0.00  0.00    +0.000 OA
ATOM     12  N   UNL     1       0.303   9.021  21.167  0.00  0.00    +0.000 N 
ATOM     13  C   UNL     1      -0.288   8.839  22.481  0.00  0.00    +0.000 C 
ATOM     14  N   UNL     1       2.517   7.061  19.312  0.00  0.00    +0.000 N 
ATOM     15  H   UNL     1       3.757   5.012  20.814  0.00  0.00    +0.000 HD
ENDROOT
BRANCH   1  16
ATOM     16  C   UNL     1       2.007   4.150  21.444  0.00  0.00    +0.000 C 
BRANCH  16  18
ATOM     17  C   UNL     1       1.660   2.288  19.756  0.00  0.00    +0.000 C 
ATOM     18  C   UNL     1       0.995   3.344  20.630  0.00  0.00    +0.000 C 
ENDBRANCH  16  18
ENDBRANCH   1  16
BRANCH  14  19
ATOM     19  C   UNL     1       3.276   6.656  18.142  0.00  0.00    +0.000 C 
BRANCH  19  20
ATOM     20  C   UNL     1       2.707   5.443  17.399  0.00  0.00    +0.000 C 
BRANCH  20  21
ATOM     21  C   UNL     1       3.605   4.205  17.470  0.00  0.00    +0.000 C 
BRANCH  21  22
ATOM     22  C   UNL     1       4.924   4.424  16.768  0.00  0.00    +0.000 A 
ATOM     23  C   UNL     1       4.971   4.558  15.374  0.00  0.00    +0.000 A 
ATOM     24  C   UNL     1       6.189   4.754  14.720  0.00  0.00    +0.000 A 
ATOM     25  C   UNL     1       7.373   4.812  15.452  0.00  0.00    +0.000 A 
ATOM     26  C   UNL     1       7.341   4.672  16.837  0.00  0.00    +0.000 A 
ATOM     27  C   UNL     1       6.123   4.477  17.493  0.00  0.00    +0.000 A 
ENDBRANCH  21  22
ENDBRANCH  20  21
ENDBRANCH  19  20
ENDBRANCH  14  19
TORSDOF 6
ENDMDL
