MODEL 1
REMARK VINA RESULT:      -7.1      0.000      0.000
REMARK  Name = 
REMARK  7 active torsions:
REMARK  status: ('A' for Active; 'I' for Inactive)
REMARK    1  A    between atoms: C_1  and  C_2
REMARK    2  A    between atoms: C_2  and  N_3
REMARK    3  A    between atoms: C_5  and  C_6
REMARK    4  A    between atoms: C_6  and  O_8
REMARK    5  A    between atoms: C_19  and  N_20
REMARK    6  A    between atoms: N_20  and  C_21
REMARK    7  A    between atoms: C_21  and  C_22
REMARK                            x       y       z     vdW  Elec       q    Type
REMARK                         _______ _______ _______ _____ _____    ______ ____
ROOT
ATOM      1  N   UNL     1       3.754   5.938  18.104  0.00  0.00    +0.000 N 
ATOM      2  C   UNL     1       4.213   4.657  18.380  0.00  0.00    +0.000 A 
ATOM      3  C   UNL     1       3.835   3.893  19.415  0.00  0.00    +0.000 A 
ATOM      4  C   UNL     1       2.831   4.472  20.327  0.00  0.00    +0.000 A 
ATOM      5  O   UNL     1       2.432   3.827  21.293  0.00  0.00    +0.000 OA
ATOM      6  C   UNL     1       2.328   5.834  20.056  0.00  0.00    +0.000 A 
ATOM      7  C   UNL     1       1.393   6.403  20.908  0.00  0.00    +0.000 A 
ATOM      8  C   UNL     1       0.963   7.691  20.642  0.00  0.00    +0.000 A 
ATOM      9  F   UNL     1       0.065   8.234  21.479  0.00  0.00    +0.000 F 
ATOM     10  C   UNL     1       1.464   8.405  19.540  0.00  0.00    +0.000 A 
ATOM     11  N   UNL     1       1.055   9.714  19.286  0.00  0.00    +0.000 N 
ATOM     12  C   UNL     1       1.632  10.458  18.166  0.00  0.00    +0.000 C 
ATOM     13  C   UNL     1       2.181  11.733  18.801  0.00  0.00    +0.000 C 
ATOM     14  C   UNL     1       1.214  12.026  19.952  0.00  0.00    +0.000 C 
ATOM     15  C   UNL     1       0.881  10.597  20.451  0.00  0.00    +0.000 C 
ATOM     16  N   UNL     1       2.352   7.811  18.698  0.00  0.00    +0.000 NA
ATOM     17  C   UNL     1       2.794   6.548  18.947  0.00  0.00    +0.000 A 
ENDROOT
BRANCH   1  19
ATOM     18  C   UNL     1       5.197   5.907  16.110  0.00  0.00    +0.000 C 
ATOM     19  C   UNL     1       4.147   6.679  16.899  0.00  0.00    +0.000 C 
ENDBRANCH   1  19
BRANCH   3  20
ATOM     20  C   UNL     1       4.420   2.547  19.590  0.00  0.00    +0.000 C 
ATOM     21  O   UNL     1       5.170   2.257  20.510  0.00  0.00    +0.000 OA
BRANCH  20  22
ATOM     22  O   UNL     1       4.054   1.651  18.649  0.00  0.00    +0.000 OA
ATOM     23  H   UNL     1       4.468   0.759  18.752  0.00  0.00    +0.000 HD
ENDBRANCH  20  22
ENDBRANCH   3  20
BRANCH  14  24
ATOM     24  N   UNL     1       0.068  12.812  19.466  0.00  0.00    +0.000 NA
ATOM     25  H   UNL     1       0.137  12.953  18.456  0.00  0.00    +0.000 HD
BRANCH  24  26
ATOM     26  C   UNL     1      -1.238  12.180  19.785  0.00  0.00    +0.000 C 
BRANCH  26  27
ATOM     27  C   UNL     1      -2.057  11.633  18.590  0.00  0.00    +0.000 C 
ATOM     28  F   UNL     1      -3.362  11.978  18.660  0.00  0.00    +0.000 F 
ATOM     29  F   UNL     1      -1.574  12.122  17.423  0.00  0.00    +0.000 F 
ATOM     30  F   UNL     1      -1.986  10.286  18.526  0.00  0.00    +0.000 F 
ENDBRANCH  26  27
ENDBRANCH  24  26
ENDBRANCH  14  24
TORSDOF 6
ENDMDL
MODEL 2
REMARK VINA RESULT:      -6.8      5.098      8.252
REMARK  Name = 
REMARK  7 active torsions:
REMARK  status: ('A' for Active; 'I' for Inactive)
REMARK    1  A    between atoms: C_1  and  C_2
REMARK    2  A    between atoms: C_2  and  N_3
REMARK    3  A    between atoms: C_5  and  C_6
REMARK    4  A    between atoms: C_6  and  O_8
REMARK    5  A    between atoms: C_19  and  N_20
REMARK    6  A    between atoms: N_20  and  C_21
REMARK    7  A    between atoms: C_21  and  C_22
REMARK                            x       y       z     vdW  Elec       q    Type
REMARK                         _______ _______ _______ _____ _____    ______ ____
ROOT
ATOM      1  N   UNL     1       1.855   6.282  20.658  0.00  0.00    +0.000 N 
ATOM      2  C   UNL     1       1.152   7.218  21.403  0.00  0.00    +0.000 A 
ATOM      3  C   UNL     1       0.916   8.489  21.048  0.00  0.00    +0.000 A 
ATOM      4  C   UNL     1       1.445   8.915  19.738  0.00  0.00    +0.000 A 
ATOM      5  O   UNL     1       1.261  10.062  19.343  0.00  0.00    +0.000 OA
ATOM      6  C   UNL     1       2.200   7.938  18.927  0.00  0.00    +0.000 A 
ATOM      7  C   UNL     1       2.718   8.320  17.699  0.00  0.00    +0.000 A 
ATOM      8  C   UNL     1       3.445   7.389  16.976  0.00  0.00    +0.000 A 
ATOM      9  F   UNL     1       3.948   7.774  15.793  0.00  0.00    +0.000 F 
ATOM     10  C   UNL     1       3.653   6.093  17.476  0.00  0.00    +0.000 A 
ATOM     11  N   UNL     1       4.409   5.161  16.764  0.00  0.00    +0.000 N 
ATOM     12  C   UNL     1       4.662   3.835  17.329  0.00  0.00    +0.000 C 
ATOM     13  C   UNL     1       6.182   3.702  17.316  0.00  0.00    +0.000 C 
ATOM     14  C   UNL     1       6.618   4.484  16.073  0.00  0.00    +0.000 C 
ATOM     15  C   UNL     1       5.612   5.662  16.078  0.00  0.00    +0.000 C 
ATOM     16  N   UNL     1       3.103   5.730  18.666  0.00  0.00    +0.000 NA
ATOM     17  C   UNL     1       2.393   6.634  19.397  0.00  0.00    +0.000 A 
ENDROOT
BRANCH   1  19
ATOM     18  C   UNL     1       0.908   4.020  20.444  0.00  0.00    +0.000 C 
ATOM     19  C   UNL     1       1.996   4.881  21.073  0.00  0.00    +0.000 C 
ENDBRANCH   1  19
BRANCH   3  20
ATOM     20  C   UNL     1       0.157   9.379  21.951  0.00  0.00    +0.000 C 
ATOM     21  O   UNL     1       0.251   9.335  23.169  0.00  0.00    +0.000 OA
BRANCH  20  22
ATOM     22  O   UNL     1      -0.652  10.258  21.322  0.00  0.00    +0.000 OA
ATOM     23  H   UNL     1      -0.254  11.153  21.185  0.00  0.00    +0.000 HD
ENDBRANCH  20  22
ENDBRANCH   3  20
BRANCH  14  24
ATOM     24  N   UNL     1       6.574   3.615  14.885  0.00  0.00    +0.000 NA
ATOM     25  H   UNL     1       6.205   2.694  15.132  0.00  0.00    +0.000 HD
BRANCH  24  26
ATOM     26  C   UNL     1       5.759   4.190  13.784  0.00  0.00    +0.000 C 
BRANCH  26  27
ATOM     27  C   UNL     1       5.955   3.574  12.378  0.00  0.00    +0.000 C 
ATOM     28  F   UNL     1       6.997   4.121  11.715  0.00  0.00    +0.000 F 
ATOM     29  F   UNL     1       6.193   2.243  12.474  0.00  0.00    +0.000 F 
ATOM     30  F   UNL     1       4.848   3.733  11.618  0.00  0.00    +0.000 F 
ENDBRANCH  26  27
ENDBRANCH  24  26
ENDBRANCH  14  24
TORSDOF 6
ENDMDL
MODEL 3
REMARK VINA RESULT:      -6.8      2.575      3.689
REMARK  Name = 
REMARK  7 active torsions:
REMARK  status: ('A' for Active; 'I' for Inactive)
REMARK    1  A    between atoms: C_1  and  C_2
REMARK    2  A    between atoms: C_2  and  N_3
REMARK    3  A    between atoms: C_5  and  C_6
REMARK    4  A    between atoms: C_6  and  O_8
REMARK    5  A    between atoms: C_19  and  N_20
REMARK    6  A    between atoms: N_20  and  C_21
REMARK    7  A    between atoms: C_21  and  C_22
REMARK                            x       y       z     vdW  Elec       q    Type
REMARK                         _______ _______ _______ _____ _____    ______ ____
ROOT
ATOM      1  N   UNL     1       2.659   4.715  20.039  0.00  0.00    +0.000 N 
ATOM      2  C   UNL     1       3.255   3.723  19.273  0.00  0.00    +0.000 A 
ATOM      3  C   UNL     1       3.790   3.885  18.054  0.00  0.00    +0.000 A 
ATOM      4  C   UNL     1       3.747   5.249  17.494  0.00  0.00    +0.000 A 
ATOM      5  O   UNL     1       4.224   5.475  16.386  0.00  0.00    +0.000 OA
ATOM      6  C   UNL     1       3.115   6.322  18.289  0.00  0.00    +0.000 A 
ATOM      7  C   UNL     1       3.051   7.610  17.776  0.00  0.00    +0.000 A 
ATOM      8  C   UNL     1       2.428   8.586  18.533  0.00  0.00    +0.000 A 
ATOM      9  F   UNL     1       2.365   9.826  18.022  0.00  0.00    +0.000 F 
ATOM     10  C   UNL     1       1.872   8.280  19.787  0.00  0.00    +0.000 A 
ATOM     11  N   UNL     1       1.218   9.255  20.540  0.00  0.00    +0.000 N 
ATOM     12  C   UNL     1       0.597   8.901  21.817  0.00  0.00    +0.000 C 
ATOM     13  C   UNL     1      -0.853   9.357  21.671  0.00  0.00    +0.000 C 
ATOM     14  C   UNL     1      -0.769  10.600  20.780  0.00  0.00    +0.000 C 
ATOM     15  C   UNL     1       0.370  10.208  19.805  0.00  0.00    +0.000 C 
ATOM     16  N   UNL     1       1.981   7.019  20.285  0.00  0.00    +0.000 NA
ATOM     17  C   UNL     1       2.581   6.042  19.551  0.00  0.00    +0.000 A 
ENDROOT
BRANCH   1  19
ATOM     18  C   UNL     1       1.811   3.013  21.603  0.00  0.00    +0.000 C 
ATOM     19  C   UNL     1       2.175   4.479  21.405  0.00  0.00    +0.000 C 
ENDBRANCH   1  19
BRANCH   3  20
ATOM     20  C   UNL     1       4.384   2.730  17.349  0.00  0.00    +0.000 C 
ATOM     21  O   UNL     1       3.973   1.586  17.472  0.00  0.00    +0.000 OA
BRANCH  20  22
ATOM     22  O   UNL     1       5.423   3.039  16.544  0.00  0.00    +0.000 OA
ATOM     23  H   UNL     1       5.786   3.950  16.678  0.00  0.00    +0.000 HD
ENDBRANCH  20  22
ENDBRANCH   3  20
BRANCH  14  24
ATOM     24  N   UNL     1      -0.520  11.797  21.600  0.00  0.00    +0.000 NA
ATOM     25  H   UNL     1      -0.825  12.637  21.105  0.00  0.00    +0.000 HD
BRANCH  24  26
ATOM     26  C   UNL     1      -1.195  11.736  22.922  0.00  0.00    +0.000 C 
BRANCH  26  27
ATOM     27  C   UNL     1      -2.584  12.412  23.027  0.00  0.00    +0.000 C 
ATOM     28  F   UNL     1      -3.281  12.339  21.872  0.00  0.00    +0.000 F 
ATOM     29  F   UNL     1      -3.330  11.811  23.986  0.00  0.00    +0.000 F 
ATOM     30  F   UNL     1      -2.468  13.716  23.361  0.00  0.00    +0.000 F 
ENDBRANCH  26  27
ENDBRANCH  24  26
ENDBRANCH  14  24
TORSDOF 6
ENDMDL
MODEL 4
REMARK VINA RESULT:      -6.7      0.907      1.213
REMARK  Name = 
REMARK  7 active torsions:
REMARK  status: ('A' for Active; 'I' for Inactive)
REMARK    1  A    between atoms: C_1  and  C_2
REMARK    2  A    between atoms: C_2  and  N_3
REMARK    3  A    between atoms: C_5  and  C_6
REMARK    4  A    between atoms: C_6  and  O_8
REMARK    5  A    between atoms: C_19  and  N_20
REMARK    6  A    between atoms: N_20  and  C_21
REMARK    7  A    between atoms: C_21  and  C_22
REMARK                            x       y       z     vdW  Elec       q    Type
REMARK                         _______ _______ _______ _____ _____    ______ ____
ROOT
ATOM      1  N   UNL     1       3.937   5.416  18.195  0.00  0.00    +0.000 N 
ATOM      2  C   UNL     1       4.376   4.161  18.593  0.00  0.00    +0.000 A 
ATOM      3  C   UNL     1       3.966   3.493  19.681  0.00  0.00    +0.000 A 
ATOM      4  C   UNL     1       2.946   4.158  20.514  0.00  0.00    +0.000 A 
ATOM      5  O   UNL     1       2.518   3.604  21.522  0.00  0.00    +0.000 OA
ATOM      6  C   UNL     1       2.464   5.496  20.113  0.00  0.00    +0.000 A 
ATOM      7  C   UNL     1       1.516   6.145  20.889  0.00  0.00    +0.000 A 
ATOM      8  C   UNL     1       1.106   7.409  20.501  0.00  0.00    +0.000 A 
ATOM      9  F   UNL     1       0.194   8.030  21.265  0.00  0.00    +0.000 F 
ATOM     10  C   UNL     1       1.641   8.019  19.353  0.00  0.00    +0.000 A 
ATOM     11  N   UNL     1       1.252   9.304  18.976  0.00  0.00    +0.000 N 
ATOM     12  C   UNL     1       1.863   9.942  17.809  0.00  0.00    +0.000 C 
ATOM     13  C   UNL     1       2.410  11.263  18.344  0.00  0.00    +0.000 C 
ATOM     14  C   UNL     1       1.420  11.664  19.441  0.00  0.00    +0.000 C 
ATOM     15  C   UNL     1       1.060  10.287  20.055  0.00  0.00    +0.000 C 
ATOM     16  N   UNL     1       2.542   7.346  18.588  0.00  0.00    +0.000 NA
ATOM     17  C   UNL     1       2.965   6.106  18.958  0.00  0.00    +0.000 A 
ENDROOT
BRANCH   1  19
ATOM     18  C   UNL     1       5.130   5.052  16.072  0.00  0.00    +0.000 C 
ATOM     19  C   UNL     1       4.367   6.045  16.940  0.00  0.00    +0.000 C 
ENDBRANCH   1  19
BRANCH   3  20
ATOM     20  C   UNL     1       4.531   2.163  19.988  0.00  0.00    +0.000 C 
ATOM     21  O   UNL     1       5.119   1.908  21.029  0.00  0.00    +0.000 OA
BRANCH  20  22
ATOM     22  O   UNL     1       4.344   1.238  19.022  0.00  0.00    +0.000 OA
ATOM     23  H   UNL     1       4.510   0.307  19.310  0.00  0.00    +0.000 HD
ENDBRANCH  20  22
ENDBRANCH   3  20
BRANCH  14  24
ATOM     24  N   UNL     1       0.294  12.415  18.860  0.00  0.00    +0.000 NA
ATOM     25  H   UNL     1      -0.259  11.810  18.249  0.00  0.00    +0.000 HD
BRANCH  24  26
ATOM     26  C   UNL     1      -0.592  13.010  19.893  0.00  0.00    +0.000 C 
BRANCH  26  27
ATOM     27  C   UNL     1      -1.941  12.295  20.150  0.00  0.00    +0.000 C 
ATOM     28  F   UNL     1      -2.103  11.205  19.368  0.00  0.00    +0.000 F 
ATOM     29  F   UNL     1      -2.019  11.882  21.438  0.00  0.00    +0.000 F 
ATOM     30  F   UNL     1      -2.983  13.126  19.927  0.00  0.00    +0.000 F 
ENDBRANCH  26  27
ENDBRANCH  24  26
ENDBRANCH  14  24
TORSDOF 6
ENDMDL
MODEL 5
REMARK VINA RESULT:      -6.6      1.729      2.035
REMARK  Name = 
REMARK  7 active torsions:
REMARK  status: ('A' for Active; 'I' for Inactive)
REMARK    1  A    between atoms: C_1  and  C_2
REMARK    2  A    between atoms: C_2  and  N_3
REMARK    3  A    between atoms: C_5  and  C_6
REMARK    4  A    between atoms: C_6  and  O_8
REMARK    5  A    between atoms: C_19  and  N_20
REMARK    6  A    between atoms: N_20  and  C_21
REMARK    7  A    between atoms: C_21  and  C_22
REMARK                            x       y       z     vdW  Elec       q    Type
REMARK                         _______ _______ _______ _____ _____    ______ ____
ROOT
ATOM      1  N   UNL     1       3.810   5.893  18.088  0.00  0.00    +0.000 N 
ATOM      2  C   UNL     1       4.255   4.614  18.390  0.00  0.00    +0.000 A 
ATOM      3  C   UNL     1       3.854   3.867  19.429  0.00  0.00    +0.000 A 
ATOM      4  C   UNL     1       2.836   4.465  20.314  0.00  0.00    +0.000 A 
ATOM      5  O   UNL     1       2.415   3.836  21.280  0.00  0.00    +0.000 OA
ATOM      6  C   UNL     1       2.347   5.826  20.014  0.00  0.00    +0.000 A 
ATOM      7  C   UNL     1       1.400   6.413  20.840  0.00  0.00    +0.000 A 
ATOM      8  C   UNL     1       0.984   7.700  20.548  0.00  0.00    +0.000 A 
ATOM      9  F   UNL     1       0.073   8.260  21.360  0.00  0.00    +0.000 F 
ATOM     10  C   UNL     1       1.509   8.395  19.446  0.00  0.00    +0.000 A 
ATOM     11  N   UNL     1       1.114   9.703  19.166  0.00  0.00    +0.000 N 
ATOM     12  C   UNL     1       1.717  10.427  18.046  0.00  0.00    +0.000 C 
ATOM     13  C   UNL     1       2.261  11.707  18.674  0.00  0.00    +0.000 C 
ATOM     14  C   UNL     1       1.275  12.022  19.803  0.00  0.00    +0.000 C 
ATOM     15  C   UNL     1       0.924  10.603  20.315  0.00  0.00    +0.000 C 
ATOM     16  N   UNL     1       2.409   7.784  18.629  0.00  0.00    +0.000 NA
ATOM     17  C   UNL     1       2.839   6.522  18.904  0.00  0.00    +0.000 A 
ENDROOT
BRANCH   1  19
ATOM     18  C   UNL     1       5.253   5.803  16.096  0.00  0.00    +0.000 C 
ATOM     19  C   UNL     1       4.231   6.615  16.881  0.00  0.00    +0.000 C 
ENDBRANCH   1  19
BRANCH   3  20
ATOM     20  C   UNL     1       4.426   2.520  19.634  0.00  0.00    +0.000 C 
ATOM     21  O   UNL     1       5.141   2.233  20.583  0.00  0.00    +0.000 OA
BRANCH  20  22
ATOM     22  O   UNL     1       4.091   1.619  18.686  0.00  0.00    +0.000 OA
ATOM     23  H   UNL     1       4.232   1.931  17.758  0.00  0.00    +0.000 HD
ENDBRANCH  20  22
ENDBRANCH   3  20
BRANCH  14  24
ATOM     24  N   UNL     1       0.144  12.809  19.284  0.00  0.00    +0.000 NA
ATOM     25  H   UNL     1      -0.732  12.296  19.406  0.00  0.00    +0.000 HD
BRANCH  24  26
ATOM     26  C   UNL     1       0.026  14.140  19.932  0.00  0.00    +0.000 C 
BRANCH  26  27
ATOM     27  C   UNL     1       0.513  15.360  19.113  0.00  0.00    +0.000 C 
ATOM     28  F   UNL     1      -0.438  15.833  18.278  0.00  0.00    +0.000 F 
ATOM     29  F   UNL     1       0.863  16.375  19.940  0.00  0.00    +0.000 F 
ATOM     30  F   UNL     1       1.599  15.048  18.373  0.00  0.00    +0.000 F 
ENDBRANCH  26  27
ENDBRANCH  24  26
ENDBRANCH  14  24
TORSDOF 6
ENDMDL
MODEL 6
REMARK VINA RESULT:      -6.6      4.705      8.442
REMARK  Name = 
REMARK  7 active torsions:
REMARK  status: ('A' for Active; 'I' for Inactive)
REMARK    1  A    between atoms: C_1  and  C_2
REMARK    2  A    between atoms: C_2  and  N_3
REMARK    3  A    between atoms: C_5  and  C_6
REMARK    4  A    between atoms: C_6  and  O_8
REMARK    5  A    between atoms: C_19  and  N_20
REMARK    6  A    between atoms: N_20  and  C_21
REMARK    7  A    between atoms: C_21  and  C_22
REMARK                            x       y       z     vdW  Elec       q    Type
REMARK                         _______ _______ _______ _____ _____    ______ ____
ROOT
ATOM      1  N   UNL     1      -1.635  11.874  19.467  0.00  0.00    +0.000 N 
ATOM      2  C   UNL     1      -2.617  12.590  20.136  0.00  0.00    +0.000 A 
ATOM      3  C   UNL     1      -2.858  12.552  21.455  0.00  0.00    +0.000 A 
ATOM      4  C   UNL     1      -1.983  11.676  22.257  0.00  0.00    +0.000 A 
ATOM      5  O   UNL     1      -2.140  11.595  23.472  0.00  0.00    +0.000 OA
ATOM      6  C   UNL     1      -0.931  10.901  21.568  0.00  0.00    +0.000 A 
ATOM      7  C   UNL     1      -0.106  10.061  22.300  0.00  0.00    +0.000 A 
ATOM      8  C   UNL     1       0.852   9.328  21.621  0.00  0.00    +0.000 A 
ATOM      9  F   UNL     1       1.639   8.513  22.340  0.00  0.00    +0.000 F 
ATOM     10  C   UNL     1       0.981   9.431  20.226  0.00  0.00    +0.000 A 
ATOM     11  N   UNL     1       1.926   8.671  19.534  0.00  0.00    +0.000 N 
ATOM     12  C   UNL     1       2.005   8.751  18.075  0.00  0.00    +0.000 C 
ATOM     13  C   UNL     1       1.860   7.305  17.609  0.00  0.00    +0.000 C 
ATOM     14  C   UNL     1       2.526   6.484  18.717  0.00  0.00    +0.000 C 
ATOM     15  C   UNL     1       2.123   7.283  19.982  0.00  0.00    +0.000 C 
ATOM     16  N   UNL     1       0.185  10.290  19.534  0.00  0.00    +0.000 NA
ATOM     17  C   UNL     1      -0.769  11.012  20.182  0.00  0.00    +0.000 A 
ENDROOT
BRANCH   1  19
ATOM     18  C   UNL     1      -2.396  11.269  17.205  0.00  0.00    +0.000 C 
ATOM     19  C   UNL     1      -1.373  12.038  18.031  0.00  0.00    +0.000 C 
ENDBRANCH   1  19
BRANCH   3  20
ATOM     20  C   UNL     1      -3.951  13.364  22.029  0.00  0.00    +0.000 C 
ATOM     21  O   UNL     1      -4.036  14.574  21.880  0.00  0.00    +0.000 OA
BRANCH  20  22
ATOM     22  O   UNL     1      -4.861  12.659  22.735  0.00  0.00    +0.000 OA
ATOM     23  H   UNL     1      -5.565  13.210  23.158  0.00  0.00    +0.000 HD
ENDBRANCH  20  22
ENDBRANCH   3  20
BRANCH  14  24
ATOM     24  N   UNL     1       3.973   6.374  18.468  0.00  0.00    +0.000 NA
ATOM     25  H   UNL     1       4.424   5.850  19.221  0.00  0.00    +0.000 HD
BRANCH  24  26
ATOM     26  C   UNL     1       4.283   5.727  17.168  0.00  0.00    +0.000 C 
BRANCH  26  27
ATOM     27  C   UNL     1       4.195   4.182  17.119  0.00  0.00    +0.000 C 
ATOM     28  F   UNL     1       2.938   3.745  16.890  0.00  0.00    +0.000 F 
ATOM     29  F   UNL     1       4.978   3.696  16.126  0.00  0.00    +0.000 F 
ATOM     30  F   UNL     1       4.623   3.633  18.277  0.00  0.00    +0.000 F 
ENDBRANCH  26  27
ENDBRANCH  24  26
ENDBRANCH  14  24
TORSDOF 6
ENDMDL
MODEL 7
REMARK VINA RESULT:      -6.6      4.739      8.321
REMARK  Name = 
REMARK  7 active torsions:
REMARK  status: ('A' for Active; 'I' for Inactive)
REMARK    1  A    between atoms: C_1  and  C_2
REMARK    2  A    between atoms: C_2  and  N_3
REMARK    3  A    between atoms: C_5  and  C_6
REMARK    4  A    between atoms: C_6  and  O_8
REMARK    5  A    between atoms: C_19  and  N_20
REMARK    6  A    between atoms: N_20  and  C_21
REMARK    7  A    between atoms: C_21  and  C_22
REMARK                            x       y       z     vdW  Elec       q    Type
REMARK                         _______ _______ _______ _____ _____    ______ ____
ROOT
ATOM      1  N   UNL     1      -1.562  11.745  19.403  0.00  0.00    +0.000 N 
ATOM      2  C   UNL     1      -2.526  12.499  20.056  0.00  0.00    +0.000 A 
ATOM      3  C   UNL     1      -2.744  12.520  21.380  0.00  0.00    +0.000 A 
ATOM      4  C   UNL     1      -1.863  11.671  22.204  0.00  0.00    +0.000 A 
ATOM      5  O   UNL     1      -1.999  11.645  23.424  0.00  0.00    +0.000 OA
ATOM      6  C   UNL     1      -0.830  10.857  21.531  0.00  0.00    +0.000 A 
ATOM      7  C   UNL     1       0.000  10.042  22.286  0.00  0.00    +0.000 A 
ATOM      8  C   UNL     1       0.939   9.270  21.623  0.00  0.00    +0.000 A 
ATOM      9  F   UNL     1       1.731   8.479  22.364  0.00  0.00    +0.000 F 
ATOM     10  C   UNL     1       1.045   9.311  20.223  0.00  0.00    +0.000 A 
ATOM     11  N   UNL     1       1.971   8.513  19.549  0.00  0.00    +0.000 N 
ATOM     12  C   UNL     1       2.025   8.528  18.087  0.00  0.00    +0.000 C 
ATOM     13  C   UNL     1       1.858   7.065  17.687  0.00  0.00    +0.000 C 
ATOM     14  C   UNL     1       2.536   6.286  18.818  0.00  0.00    +0.000 C 
ATOM     15  C   UNL     1       2.163   7.143  20.053  0.00  0.00    +0.000 C 
ATOM     16  N   UNL     1       0.245  10.147  19.508  0.00  0.00    +0.000 NA
ATOM     17  C   UNL     1      -0.691  10.906  20.140  0.00  0.00    +0.000 A 
ENDROOT
BRANCH   1  19
ATOM     18  C   UNL     1      -2.442  11.162  17.179  0.00  0.00    +0.000 C 
ATOM     19  C   UNL     1      -1.323  11.843  17.957  0.00  0.00    +0.000 C 
ENDBRANCH   1  19
BRANCH   3  20
ATOM     20  C   UNL     1      -3.819  13.367  21.937  0.00  0.00    +0.000 C 
ATOM     21  O   UNL     1      -3.913  14.565  21.712  0.00  0.00    +0.000 OA
BRANCH  20  22
ATOM     22  O   UNL     1      -4.702  12.709  22.718  0.00  0.00    +0.000 OA
ATOM     23  H   UNL     1      -5.582  12.551  22.295  0.00  0.00    +0.000 HD
ENDBRANCH  20  22
ENDBRANCH   3  20
BRANCH  14  24
ATOM     24  N   UNL     1       3.977   6.151  18.550  0.00  0.00    +0.000 NA
ATOM     25  H   UNL     1       4.406   5.512  19.222  0.00  0.00    +0.000 HD
BRANCH  24  26
ATOM     26  C   UNL     1       4.262   5.675  17.172  0.00  0.00    +0.000 C 
BRANCH  26  27
ATOM     27  C   UNL     1       5.335   6.453  16.373  0.00  0.00    +0.000 C 
ATOM     28  F   UNL     1       5.928   7.417  17.110  0.00  0.00    +0.000 F 
ATOM     29  F   UNL     1       6.310   5.613  15.949  0.00  0.00    +0.000 F 
ATOM     30  F   UNL     1       4.799   7.037  15.278  0.00  0.00    +0.000 F 
ENDBRANCH  26  27
ENDBRANCH  24  26
ENDBRANCH  14  24
TORSDOF 6
ENDMDL
MODEL 8
REMARK VINA RESULT:      -6.5      1.718      2.027
REMARK  Name = 
REMARK  7 active torsions:
REMARK  status: ('A' for Active; 'I' for Inactive)
REMARK    1  A    between atoms: C_1  and  C_2
REMARK    2  A    between atoms: C_2  and  N_3
REMARK    3  A    between atoms: C_5  and  C_6
REMARK    4  A    between atoms: C_6  and  O_8
REMARK    5  A    between atoms: C_19  and  N_20
REMARK    6  A    between atoms: N_20  and  C_21
REMARK    7  A    between atoms: C_21  and  C_22
REMARK                            x       y       z     vdW  Elec       q    Type
REMARK                         _______ _______ _______ _____ _____    ______ ____
ROOT
ATOM      1  N   UNL     1       3.333   6.521  18.229  0.00  0.00    +0.000 N 
ATOM      2  C   UNL     1       3.782   5.214  18.358  0.00  0.00    +0.000 A 
ATOM      3  C   UNL     1       3.452   4.362  19.340  0.00  0.00    +0.000 A 
ATOM      4  C   UNL     1       2.516   4.868  20.362  0.00  0.00    +0.000 A 
ATOM      5  O   UNL     1       2.163   4.143  21.287  0.00  0.00    +0.000 OA
ATOM      6  C   UNL     1       2.025   6.257  20.248  0.00  0.00    +0.000 A 
ATOM      7  C   UNL     1       1.154   6.758  21.204  0.00  0.00    +0.000 A 
ATOM      8  C   UNL     1       0.736   8.072  21.085  0.00  0.00    +0.000 A 
ATOM      9  F   UNL     1      -0.100   8.547  22.021  0.00  0.00    +0.000 F 
ATOM     10  C   UNL     1       1.183   8.877  20.024  0.00  0.00    +0.000 A 
ATOM     11  N   UNL     1       0.786  10.210  19.916  0.00  0.00    +0.000 N 
ATOM     12  C   UNL     1       1.309  11.046  18.835  0.00  0.00    +0.000 C 
ATOM     13  C   UNL     1       1.921  12.248  19.550  0.00  0.00    +0.000 C 
ATOM     14  C   UNL     1       1.031  12.447  20.780  0.00  0.00    +0.000 C 
ATOM     15  C   UNL     1       0.700  10.984  21.165  0.00  0.00    +0.000 C 
ATOM     16  N   UNL     1       2.007   8.351  19.077  0.00  0.00    +0.000 NA
ATOM     17  C   UNL     1       2.438   7.064  19.182  0.00  0.00    +0.000 A 
ENDROOT
BRANCH   1  19
ATOM     18  C   UNL     1       4.850   6.785  16.309  0.00  0.00    +0.000 C 
ATOM     19  C   UNL     1       3.668   7.364  17.075  0.00  0.00    +0.000 C 
ENDBRANCH   1  19
BRANCH   3  20
ATOM     20  C   UNL     1       4.019   2.998  19.355  0.00  0.00    +0.000 C 
ATOM     21  O   UNL     1       3.376   2.002  19.056  0.00  0.00    +0.000 OA
BRANCH  20  22
ATOM     22  O   UNL     1       5.316   2.934  19.724  0.00  0.00    +0.000 OA
ATOM     23  H   UNL     1       5.613   3.680  20.302  0.00  0.00    +0.000 HD
ENDBRANCH  20  22
ENDBRANCH   3  20
BRANCH  14  24
ATOM     24  N   UNL     1      -0.126  13.292  20.439  0.00  0.00    +0.000 NA
ATOM     25  H   UNL     1      -0.838  13.231  21.170  0.00  0.00    +0.000 HD
BRANCH  24  26
ATOM     26  C   UNL     1       0.244  14.715  20.234  0.00  0.00    +0.000 C 
BRANCH  26  27
ATOM     27  C   UNL     1       0.055  15.287  18.808  0.00  0.00    +0.000 C 
ATOM     28  F   UNL     1      -0.816  16.318  18.777  0.00  0.00    +0.000 F 
ATOM     29  F   UNL     1       1.235  15.742  18.321  0.00  0.00    +0.000 F 
ATOM     30  F   UNL     1      -0.394  14.337  17.958  0.00  0.00    +0.000 F 
ENDBRANCH  26  27
ENDBRANCH  24  26
ENDBRANCH  14  24
TORSDOF 6
ENDMDL
MODEL 9
REMARK VINA RESULT:      -6.5      1.290      1.533
REMARK  Name = 
REMARK  7 active torsions:
REMARK  status: ('A' for Active; 'I' for Inactive)
REMARK    1  A    between atoms: C_1  and  C_2
REMARK    2  A    between atoms: C_2  and  N_3
REMARK    3  A    between atoms: C_5  and  C_6
REMARK    4  A    between atoms: C_6  and  O_8
REMARK    5  A    between atoms: C_19  and  N_20
REMARK    6  A    between atoms: N_20  and  C_21
REMARK    7  A    between atoms: C_21  and  C_22
REMARK                            x       y       z     vdW  Elec       q    Type
REMARK                         _______ _______ _______ _____ _____    ______ ____
ROOT
ATOM      1  N   UNL     1       3.699   6.080  18.154  0.00  0.00    +0.000 N 
ATOM      2  C   UNL     1       4.174   4.795  18.374  0.00  0.00    +0.000 A 
ATOM      3  C   UNL     1       3.803   3.979  19.373  0.00  0.00    +0.000 A 
ATOM      4  C   UNL     1       2.788   4.504  20.306  0.00  0.00    +0.000 A 
ATOM      5  O   UNL     1       2.395   3.811  21.240  0.00  0.00    +0.000 OA
ATOM      6  C   UNL     1       2.269   5.870  20.095  0.00  0.00    +0.000 A 
ATOM      7  C   UNL     1       1.324   6.389  20.968  0.00  0.00    +0.000 A 
ATOM      8  C   UNL     1       0.879   7.682  20.759  0.00  0.00    +0.000 A 
ATOM      9  F   UNL     1      -0.029   8.175  21.616  0.00  0.00    +0.000 F 
ATOM     10  C   UNL     1       1.373   8.451  19.691  0.00  0.00    +0.000 A 
ATOM     11  N   UNL     1       0.948   9.765  19.495  0.00  0.00    +0.000 N 
ATOM     12  C   UNL     1       1.519  10.566  18.411  0.00  0.00    +0.000 C 
ATOM     13  C   UNL     1       2.050  11.817  19.105  0.00  0.00    +0.000 C 
ATOM     14  C   UNL     1       1.076  12.046  20.265  0.00  0.00    +0.000 C 
ATOM     15  C   UNL     1       0.760  10.592  20.698  0.00  0.00    +0.000 C 
ATOM     16  N   UNL     1       2.272   7.907  18.826  0.00  0.00    +0.000 NA
ATOM     17  C   UNL     1       2.729   6.640  19.021  0.00  0.00    +0.000 A 
ENDROOT
BRANCH   1  19
ATOM     18  C   UNL     1       5.191   6.184  16.199  0.00  0.00    +0.000 C 
ATOM     19  C   UNL     1       4.087   6.879  16.985  0.00  0.00    +0.000 C 
ENDBRANCH   1  19
BRANCH   3  20
ATOM     20  C   UNL     1       4.404   2.634  19.489  0.00  0.00    +0.000 C 
ATOM     21  O   UNL     1       5.172   2.319  20.386  0.00  0.00    +0.000 OA
BRANCH  20  22
ATOM     22  O   UNL     1       4.032   1.769  18.522  0.00  0.00    +0.000 OA
ATOM     23  H   UNL     1       3.128   1.932  18.155  0.00  0.00    +0.000 HD
ENDBRANCH  20  22
ENDBRANCH   3  20
BRANCH  14  24
ATOM     24  N   UNL     1      -0.078  12.839  19.810  0.00  0.00    +0.000 NA
ATOM     25  H   UNL     1      -0.037  12.979  18.798  0.00  0.00    +0.000 HD
BRANCH  24  26
ATOM     26  C   UNL     1      -1.378  12.215  20.166  0.00  0.00    +0.000 C 
BRANCH  26  27
ATOM     27  C   UNL     1      -2.079  12.742  21.442  0.00  0.00    +0.000 C 
ATOM     28  F   UNL     1      -1.835  11.966  22.521  0.00  0.00    +0.000 F 
ATOM     29  F   UNL     1      -1.644  13.991  21.738  0.00  0.00    +0.000 F 
ATOM     30  F   UNL     1      -3.417  12.808  21.271  0.00  0.00    +0.000 F 
ENDBRANCH  26  27
ENDBRANCH  24  26
ENDBRANCH  14  24
TORSDOF 6
ENDMDL
