MODEL 1
REMARK VINA RESULT:      -6.5      0.000      0.000
REMARK  Name = 
REMARK  3 active torsions:
REMARK  status: ('A' for Active; 'I' for Inactive)
REMARK    1  A    between atoms: C_1  and  C_2
REMARK    2  A    between atoms: N_18  and  C_19
REMARK    3  A    between atoms: C_19  and  C_20
REMARK                            x       y       z     vdW  Elec       q    Type
REMARK                         _______ _______ _______ _____ _____    ______ ____
ROOT
ATOM      1  C   UNL     1      10.585  15.173  21.031  0.00  0.00    +0.000 C 
ATOM      2  C   UNL     1      11.020  13.825  20.436  0.00  0.00    +0.000 C 
ATOM      3  C   UNL     1      11.372  13.951  18.944  0.00  0.00    +0.000 C 
ATOM      4  C   UNL     1      10.168  14.520  18.214  0.00  0.00    +0.000 C 
ATOM      5  N   UNL     1      10.299  15.809  17.736  0.00  0.00    +0.000 N 
ATOM      6  C   UNL     1      11.343  16.214  16.791  0.00  0.00    +0.000 C 
ATOM      7  C   UNL     1      11.977  17.522  17.281  0.00  0.00    +0.000 C 
ATOM      8  O   UNL     1      10.987  18.545  17.490  0.00  0.00    +0.000 OA
ATOM      9  C   UNL     1       9.985  18.106  18.430  0.00  0.00    +0.000 C 
ATOM     10  C   UNL     1       9.273  16.828  17.945  0.00  0.00    +0.000 C 
ATOM     11  N   UNL     1       9.048  13.867  18.112  0.00  0.00    +0.000 NA
ATOM     12  C   UNL     1       8.999  12.507  18.498  0.00  0.00    +0.000 A 
ATOM     13  C   UNL     1       8.365  11.649  17.581  0.00  0.00    +0.000 A 
ATOM     14  C   UNL     1       8.329  10.271  17.779  0.00  0.00    +0.000 A 
ATOM     15  C   UNL     1       8.957   9.726  18.887  0.00  0.00    +0.000 A 
ATOM     16  C   UNL     1       9.546  10.568  19.834  0.00  0.00    +0.000 A 
ATOM     17  C   UNL     1       9.530  11.969  19.704  0.00  0.00    +0.000 A 
ATOM     18  N   UNL     1      10.034  12.769  20.734  0.00  0.00    +0.000 N 
ENDROOT
BRANCH  18  19
ATOM     19  C   UNL     1       9.737  12.441  22.139  0.00  0.00    +0.000 C 
BRANCH  19  20
ATOM     20  C   UNL     1       8.273  12.628  22.519  0.00  0.00    +0.000 A 
ATOM     21  C   UNL     1       7.504  13.697  22.032  0.00  0.00    +0.000 A 
ATOM     22  C   UNL     1       6.193  13.894  22.478  0.00  0.00    +0.000 A 
ATOM     23  C   UNL     1       5.616  13.006  23.376  0.00  0.00    +0.000 A 
ATOM     24  C   UNL     1       6.331  11.885  23.795  0.00  0.00    +0.000 A 
ATOM     25  C   UNL     1       7.650  11.695  23.360  0.00  0.00    +0.000 A 
ENDBRANCH  19  20
ENDBRANCH  18  19
TORSDOF 2
ENDMDL
MODEL 2
REMARK VINA RESULT:      -6.2      8.289     10.707
REMARK  Name = 
REMARK  3 active torsions:
REMARK  status: ('A' for Active; 'I' for Inactive)
REMARK    1  A    between atoms: C_1  and  C_2
REMARK    2  A    between atoms: N_18  and  C_19
REMARK    3  A    between atoms: C_19  and  C_20
REMARK                            x       y       z     vdW  Elec       q    Type
REMARK                         _______ _______ _______ _____ _____    ______ ____
ROOT
ATOM      1  C   UNL     1       0.984  12.545  18.303  0.00  0.00    +0.000 C 
ATOM      2  C   UNL     1      -0.345  13.135  18.799  0.00  0.00    +0.000 C 
ATOM      3  C   UNL     1      -0.186  14.601  19.238  0.00  0.00    +0.000 C 
ATOM      4  C   UNL     1       0.887  14.667  20.310  0.00  0.00    +0.000 C 
ATOM      5  N   UNL     1       2.073  15.276  19.948  0.00  0.00    +0.000 N 
ATOM      6  C   UNL     1       2.154  16.657  19.469  0.00  0.00    +0.000 C 
ATOM      7  C   UNL     1       3.046  16.700  18.222  0.00  0.00    +0.000 C 
ATOM      8  O   UNL     1       4.339  16.121  18.475  0.00  0.00    +0.000 OA
ATOM      9  C   UNL     1       4.212  14.762  18.938  0.00  0.00    +0.000 C 
ATOM     10  C   UNL     1       3.376  14.678  20.231  0.00  0.00    +0.000 C 
ATOM     11  N   UNL     1       0.735  14.113  21.476  0.00  0.00    +0.000 NA
ATOM     12  C   UNL     1      -0.536  13.618  21.850  0.00  0.00    +0.000 A 
ATOM     13  C   UNL     1      -0.965  13.986  23.138  0.00  0.00    +0.000 A 
ATOM     14  C   UNL     1      -2.236  13.655  23.605  0.00  0.00    +0.000 A 
ATOM     15  C   UNL     1      -3.109  12.975  22.772  0.00  0.00    +0.000 A 
ATOM     16  C   UNL     1      -2.681  12.557  21.510  0.00  0.00    +0.000 A 
ATOM     17  C   UNL     1      -1.378  12.805  21.040  0.00  0.00    +0.000 A 
ATOM     18  N   UNL     1      -0.965  12.268  19.817  0.00  0.00    +0.000 N 
ENDROOT
BRANCH  18  19
ATOM     19  C   UNL     1      -1.320  10.883  19.460  0.00  0.00    +0.000 C 
BRANCH  19  20
ATOM     20  C   UNL     1      -2.198  10.773  18.219  0.00  0.00    +0.000 A 
ATOM     21  C   UNL     1      -1.837   9.984  17.115  0.00  0.00    +0.000 A 
ATOM     22  C   UNL     1      -2.617   9.985  15.953  0.00  0.00    +0.000 A 
ATOM     23  C   UNL     1      -3.786  10.731  15.893  0.00  0.00    +0.000 A 
ATOM     24  C   UNL     1      -4.212  11.442  17.014  0.00  0.00    +0.000 A 
ATOM     25  C   UNL     1      -3.422  11.455  18.173  0.00  0.00    +0.000 A 
ENDBRANCH  19  20
ENDBRANCH  18  19
TORSDOF 2
ENDMDL
MODEL 3
REMARK VINA RESULT:      -6.2      8.477     10.347
REMARK  Name = 
REMARK  3 active torsions:
REMARK  status: ('A' for Active; 'I' for Inactive)
REMARK    1  A    between atoms: C_1  and  C_2
REMARK    2  A    between atoms: N_18  and  C_19
REMARK    3  A    between atoms: C_19  and  C_20
REMARK                            x       y       z     vdW  Elec       q    Type
REMARK                         _______ _______ _______ _____ _____    ______ ____
ROOT
ATOM      1  C   UNL     1       1.359  12.494  20.826  0.00  0.00    +0.000 C 
ATOM      2  C   UNL     1       0.882  11.954  19.469  0.00  0.00    +0.000 C 
ATOM      3  C   UNL     1       0.377  13.084  18.555  0.00  0.00    +0.000 C 
ATOM      4  C   UNL     1      -0.732  13.826  19.280  0.00  0.00    +0.000 C 
ATOM      5  N   UNL     1      -0.435  15.111  19.694  0.00  0.00    +0.000 N 
ATOM      6  C   UNL     1      -0.018  16.174  18.778  0.00  0.00    +0.000 C 
ATOM      7  C   UNL     1       1.196  16.897  19.374  0.00  0.00    +0.000 C 
ATOM      8  O   UNL     1       0.926  17.380  20.703  0.00  0.00    +0.000 OA
ATOM      9  C   UNL     1       0.526  16.300  21.570  0.00  0.00    +0.000 C 
ATOM     10  C   UNL     1      -0.734  15.586  21.043  0.00  0.00    +0.000 C 
ATOM     11  N   UNL     1      -1.868  13.265  19.569  0.00  0.00    +0.000 NA
ATOM     12  C   UNL     1      -2.179  12.001  19.015  0.00  0.00    +0.000 A 
ATOM     13  C   UNL     1      -3.467  11.893  18.459  0.00  0.00    +0.000 A 
ATOM     14  C   UNL     1      -3.877  10.742  17.790  0.00  0.00    +0.000 A 
ATOM     15  C   UNL     1      -2.989   9.690  17.640  0.00  0.00    +0.000 A 
ATOM     16  C   UNL     1      -1.725   9.760  18.231  0.00  0.00    +0.000 A 
ATOM     17  C   UNL     1      -1.308  10.876  18.980  0.00  0.00    +0.000 A 
ATOM     18  N   UNL     1      -0.078  10.848  19.643  0.00  0.00    +0.000 N 
ENDROOT
BRANCH  18  19
ATOM     19  C   UNL     1       0.350   9.635  20.361  0.00  0.00    +0.000 C 
BRANCH  19  20
ATOM     20  C   UNL     1       1.334   8.772  19.581  0.00  0.00    +0.000 A 
ATOM     21  C   UNL     1       1.792   9.128  18.303  0.00  0.00    +0.000 A 
ATOM     22  C   UNL     1       2.616   8.265  17.574  0.00  0.00    +0.000 A 
ATOM     23  C   UNL     1       3.032   7.061  18.124  0.00  0.00    +0.000 A 
ATOM     24  C   UNL     1       2.668   6.734  19.430  0.00  0.00    +0.000 A 
ATOM     25  C   UNL     1       1.829   7.592  20.155  0.00  0.00    +0.000 A 
ENDBRANCH  19  20
ENDBRANCH  18  19
TORSDOF 2
ENDMDL
MODEL 4
REMARK VINA RESULT:      -6.2      7.710     10.051
REMARK  Name = 
REMARK  3 active torsions:
REMARK  status: ('A' for Active; 'I' for Inactive)
REMARK    1  A    between atoms: C_1  and  C_2
REMARK    2  A    between atoms: N_18  and  C_19
REMARK    3  A    between atoms: C_19  and  C_20
REMARK                            x       y       z     vdW  Elec       q    Type
REMARK                         _______ _______ _______ _____ _____    ______ ____
ROOT
ATOM      1  C   UNL     1      -0.385  14.814  19.432  0.00  0.00    +0.000 C 
ATOM      2  C   UNL     1      -0.398  14.275  20.870  0.00  0.00    +0.000 C 
ATOM      3  C   UNL     1       1.023  14.163  21.448  0.00  0.00    +0.000 C 
ATOM      4  C   UNL     1       1.845  13.277  20.528  0.00  0.00    +0.000 C 
ATOM      5  N   UNL     1       2.838  13.907  19.803  0.00  0.00    +0.000 N 
ATOM      6  C   UNL     1       3.932  14.659  20.422  0.00  0.00    +0.000 C 
ATOM      7  C   UNL     1       4.094  15.997  19.688  0.00  0.00    +0.000 C 
ATOM      8  O   UNL     1       4.279  15.806  18.274  0.00  0.00    +0.000 OA
ATOM      9  C   UNL     1       3.177  15.068  17.706  0.00  0.00    +0.000 C 
ATOM     10  C   UNL     1       3.019  13.686  18.370  0.00  0.00    +0.000 C 
ATOM     11  N   UNL     1       1.583  12.014  20.367  0.00  0.00    +0.000 NA
ATOM     12  C   UNL     1       0.649  11.384  21.222  0.00  0.00    +0.000 A 
ATOM     13  C   UNL     1       1.065  10.150  21.755  0.00  0.00    +0.000 A 
ATOM     14  C   UNL     1       0.293   9.463  22.689  0.00  0.00    +0.000 A 
ATOM     15  C   UNL     1      -0.898  10.020  23.128  0.00  0.00    +0.000 A 
ATOM     16  C   UNL     1      -1.350  11.218  22.571  0.00  0.00    +0.000 A 
ATOM     17  C   UNL     1      -0.633  11.896  21.568  0.00  0.00    +0.000 A 
ATOM     18  N   UNL     1      -1.184  13.031  20.965  0.00  0.00    +0.000 N 
ENDROOT
BRANCH  18  19
ATOM     19  C   UNL     1      -2.611  13.054  20.597  0.00  0.00    +0.000 C 
BRANCH  19  20
ATOM     20  C   UNL     1      -2.953  12.169  19.404  0.00  0.00    +0.000 A 
ATOM     21  C   UNL     1      -4.277  11.936  19.001  0.00  0.00    +0.000 A 
ATOM     22  C   UNL     1      -4.560  11.040  17.965  0.00  0.00    +0.000 A 
ATOM     23  C   UNL     1      -3.529  10.402  17.287  0.00  0.00    +0.000 A 
ATOM     24  C   UNL     1      -2.205  10.696  17.608  0.00  0.00    +0.000 A 
ATOM     25  C   UNL     1      -1.921  11.582  18.658  0.00  0.00    +0.000 A 
ENDBRANCH  19  20
ENDBRANCH  18  19
TORSDOF 2
ENDMDL
MODEL 5
REMARK VINA RESULT:      -6.0      6.759      9.302
REMARK  Name = 
REMARK  3 active torsions:
REMARK  status: ('A' for Active; 'I' for Inactive)
REMARK    1  A    between atoms: C_1  and  C_2
REMARK    2  A    between atoms: N_18  and  C_19
REMARK    3  A    between atoms: C_19  and  C_20
REMARK                            x       y       z     vdW  Elec       q    Type
REMARK                         _______ _______ _______ _____ _____    ______ ____
ROOT
ATOM      1  C   UNL     1       2.077  12.961  18.270  0.00  0.00    +0.000 C 
ATOM      2  C   UNL     1       0.665  13.449  18.629  0.00  0.00    +0.000 C 
ATOM      3  C   UNL     1       0.704  14.766  19.423  0.00  0.00    +0.000 C 
ATOM      4  C   UNL     1       1.553  14.551  20.665  0.00  0.00    +0.000 C 
ATOM      5  N   UNL     1       2.772  15.201  20.688  0.00  0.00    +0.000 N 
ATOM      6  C   UNL     1       2.911  16.654  20.572  0.00  0.00    +0.000 C 
ATOM      7  C   UNL     1       4.023  16.969  19.563  0.00  0.00    +0.000 C 
ATOM      8  O   UNL     1       5.257  16.316  19.913  0.00  0.00    +0.000 OA
ATOM      9  C   UNL     1       5.075  14.889  20.009  0.00  0.00    +0.000 C 
ATOM     10  C   UNL     1       4.011  14.523  21.063  0.00  0.00    +0.000 C 
ATOM     11  N   UNL     1       1.195  13.742  21.617  0.00  0.00    +0.000 NA
ATOM     12  C   UNL     1      -0.112  13.203  21.614  0.00  0.00    +0.000 A 
ATOM     13  C   UNL     1      -0.787  13.267  22.848  0.00  0.00    +0.000 A 
ATOM     14  C   UNL     1      -2.115  12.865  22.973  0.00  0.00    +0.000 A 
ATOM     15  C   UNL     1      -2.799  12.421  21.854  0.00  0.00    +0.000 A 
ATOM     16  C   UNL     1      -2.130  12.302  20.634  0.00  0.00    +0.000 A 
ATOM     17  C   UNL     1      -0.768  12.624  20.491  0.00  0.00    +0.000 A 
ATOM     18  N   UNL     1      -0.118  12.381  19.277  0.00  0.00    +0.000 N 
ENDROOT
BRANCH  18  19
ATOM     19  C   UNL     1      -0.367  11.127  18.543  0.00  0.00    +0.000 C 
BRANCH  19  20
ATOM     20  C   UNL     1       0.524   9.971  18.979  0.00  0.00    +0.000 A 
ATOM     21  C   UNL     1       1.399   9.325  18.092  0.00  0.00    +0.000 A 
ATOM     22  C   UNL     1       2.128   8.203  18.500  0.00  0.00    +0.000 A 
ATOM     23  C   UNL     1       2.032   7.740  19.805  0.00  0.00    +0.000 A 
ATOM     24  C   UNL     1       1.244   8.428  20.727  0.00  0.00    +0.000 A 
ATOM     25  C   UNL     1       0.500   9.542  20.314  0.00  0.00    +0.000 A 
ENDBRANCH  19  20
ENDBRANCH  18  19
TORSDOF 2
ENDMDL
MODEL 6
REMARK VINA RESULT:      -6.0      8.483     11.650
REMARK  Name = 
REMARK  3 active torsions:
REMARK  status: ('A' for Active; 'I' for Inactive)
REMARK    1  A    between atoms: C_1  and  C_2
REMARK    2  A    between atoms: N_18  and  C_19
REMARK    3  A    between atoms: C_19  and  C_20
REMARK                            x       y       z     vdW  Elec       q    Type
REMARK                         _______ _______ _______ _____ _____    ______ ____
ROOT
ATOM      1  C   UNL     1      -1.722  14.596  20.568  0.00  0.00    +0.000 C 
ATOM      2  C   UNL     1      -2.114  13.116  20.429  0.00  0.00    +0.000 C 
ATOM      3  C   UNL     1      -2.989  12.648  21.604  0.00  0.00    +0.000 C 
ATOM      4  C   UNL     1      -2.234  12.906  22.896  0.00  0.00    +0.000 C 
ATOM      5  N   UNL     1      -2.736  13.907  23.706  0.00  0.00    +0.000 N 
ATOM      6  C   UNL     1      -4.098  13.899  24.243  0.00  0.00    +0.000 C 
ATOM      7  C   UNL     1      -4.722  15.285  24.039  0.00  0.00    +0.000 C 
ATOM      8  O   UNL     1      -3.903  16.323  24.609  0.00  0.00    +0.000 OA
ATOM      9  C   UNL     1      -2.576  16.297  24.047  0.00  0.00    +0.000 C 
ATOM     10  C   UNL     1      -1.884  14.941  24.289  0.00  0.00    +0.000 C 
ATOM     11  N   UNL     1      -1.133  12.280  23.192  0.00  0.00    +0.000 NA
ATOM     12  C   UNL     1      -0.729  11.178  22.404  0.00  0.00    +0.000 A 
ATOM     13  C   UNL     1      -0.331  10.040  23.129  0.00  0.00    +0.000 A 
ATOM     14  C   UNL     1      -0.001   8.847  22.489  0.00  0.00    +0.000 A 
ATOM     15  C   UNL     1      -0.096   8.767  21.110  0.00  0.00    +0.000 A 
ATOM     16  C   UNL     1      -0.439   9.902  20.371  0.00  0.00    +0.000 A 
ATOM     17  C   UNL     1      -0.700  11.142  20.981  0.00  0.00    +0.000 A 
ATOM     18  N   UNL     1      -0.929  12.272  20.190  0.00  0.00    +0.000 N 
ENDROOT
BRANCH  18  19
ATOM     19  C   UNL     1      -0.101  12.520  18.996  0.00  0.00    +0.000 C 
BRANCH  19  20
ATOM     20  C   UNL     1       1.256  13.141  19.305  0.00  0.00    +0.000 A 
ATOM     21  C   UNL     1       1.688  13.380  20.619  0.00  0.00    +0.000 A 
ATOM     22  C   UNL     1       2.895  14.043  20.863  0.00  0.00    +0.000 A 
ATOM     23  C   UNL     1       3.707  14.433  19.808  0.00  0.00    +0.000 A 
ATOM     24  C   UNL     1       3.342  14.118  18.500  0.00  0.00    +0.000 A 
ATOM     25  C   UNL     1       2.124  13.468  18.253  0.00  0.00    +0.000 A 
ENDBRANCH  19  20
ENDBRANCH  18  19
TORSDOF 2
ENDMDL
MODEL 7
REMARK VINA RESULT:      -5.9      6.881      9.546
REMARK  Name = 
REMARK  3 active torsions:
REMARK  status: ('A' for Active; 'I' for Inactive)
REMARK    1  A    between atoms: C_1  and  C_2
REMARK    2  A    between atoms: N_18  and  C_19
REMARK    3  A    between atoms: C_19  and  C_20
REMARK                            x       y       z     vdW  Elec       q    Type
REMARK                         _______ _______ _______ _____ _____    ______ ____
ROOT
ATOM      1  C   UNL     1       1.899  13.141  18.579  0.00  0.00    +0.000 C 
ATOM      2  C   UNL     1       0.493  13.650  18.931  0.00  0.00    +0.000 C 
ATOM      3  C   UNL     1       0.550  14.921  19.795  0.00  0.00    +0.000 C 
ATOM      4  C   UNL     1       1.361  14.616  21.043  0.00  0.00    +0.000 C 
ATOM      5  N   UNL     1       2.597  15.227  21.130  0.00  0.00    +0.000 N 
ATOM      6  C   UNL     1       2.780  16.680  21.096  0.00  0.00    +0.000 C 
ATOM      7  C   UNL     1       3.924  17.015  20.131  0.00  0.00    +0.000 C 
ATOM      8  O   UNL     1       5.130  16.309  20.475  0.00  0.00    +0.000 OA
ATOM      9  C   UNL     1       4.906  14.885  20.489  0.00  0.00    +0.000 C 
ATOM     10  C   UNL     1       3.806  14.495  21.497  0.00  0.00    +0.000 C 
ATOM     11  N   UNL     1       0.957  13.769  21.942  0.00  0.00    +0.000 NA
ATOM     12  C   UNL     1      -0.365  13.269  21.880  0.00  0.00    +0.000 A 
ATOM     13  C   UNL     1      -1.068  13.288  23.099  0.00  0.00    +0.000 A 
ATOM     14  C   UNL     1      -2.410  12.919  23.172  0.00  0.00    +0.000 A 
ATOM     15  C   UNL     1      -3.078  12.556  22.014  0.00  0.00    +0.000 A 
ATOM     16  C   UNL     1      -2.382  12.481  20.805  0.00  0.00    +0.000 A 
ATOM     17  C   UNL     1      -1.008  12.770  20.713  0.00  0.00    +0.000 A 
ATOM     18  N   UNL     1      -0.336  12.573  19.503  0.00  0.00    +0.000 N 
ENDROOT
BRANCH  18  19
ATOM     19  C   UNL     1      -0.602  11.368  18.696  0.00  0.00    +0.000 C 
BRANCH  19  20
ATOM     20  C   UNL     1       0.245  10.164  19.091  0.00  0.00    +0.000 A 
ATOM     21  C   UNL     1       0.216   9.620  20.385  0.00  0.00    +0.000 A 
ATOM     22  C   UNL     1       1.079   8.579  20.740  0.00  0.00    +0.000 A 
ATOM     23  C   UNL     1       1.946   8.034  19.802  0.00  0.00    +0.000 A 
ATOM     24  C   UNL     1       1.919   8.495  18.486  0.00  0.00    +0.000 A 
ATOM     25  C   UNL     1       1.065   9.550  18.133  0.00  0.00    +0.000 A 
ENDBRANCH  19  20
ENDBRANCH  18  19
TORSDOF 2
ENDMDL
MODEL 8
REMARK VINA RESULT:      -5.9      9.063     10.858
REMARK  Name = 
REMARK  3 active torsions:
REMARK  status: ('A' for Active; 'I' for Inactive)
REMARK    1  A    between atoms: C_1  and  C_2
REMARK    2  A    between atoms: N_18  and  C_19
REMARK    3  A    between atoms: C_19  and  C_20
REMARK                            x       y       z     vdW  Elec       q    Type
REMARK                         _______ _______ _______ _____ _____    ______ ____
ROOT
ATOM      1  C   UNL     1      -0.195   7.757  20.878  0.00  0.00    +0.000 C 
ATOM      2  C   UNL     1       1.341   7.760  20.920  0.00  0.00    +0.000 C 
ATOM      3  C   UNL     1       1.921   9.063  20.344  0.00  0.00    +0.000 C 
ATOM      4  C   UNL     1       1.401   9.233  18.926  0.00  0.00    +0.000 C 
ATOM      5  N   UNL     1       0.495  10.257  18.729  0.00  0.00    +0.000 N 
ATOM      6  C   UNL     1       0.790  11.661  19.027  0.00  0.00    +0.000 C 
ATOM      7  C   UNL     1      -0.391  12.264  19.798  0.00  0.00    +0.000 C 
ATOM      8  O   UNL     1      -1.631  12.093  19.088  0.00  0.00    +0.000 OA
ATOM      9  C   UNL     1      -1.883  10.699  18.822  0.00  0.00    +0.000 C 
ATOM     10  C   UNL     1      -0.751  10.066  17.989  0.00  0.00    +0.000 C 
ATOM     11  N   UNL     1       1.724   8.417  17.968  0.00  0.00    +0.000 NA
ATOM     12  C   UNL     1       2.751   7.468  18.181  0.00  0.00    +0.000 A 
ATOM     13  C   UNL     1       3.708   7.383  17.153  0.00  0.00    +0.000 A 
ATOM     14  C   UNL     1       4.830   6.565  17.268  0.00  0.00    +0.000 A 
ATOM     15  C   UNL     1       5.026   5.841  18.433  0.00  0.00    +0.000 A 
ATOM     16  C   UNL     1       4.060   5.873  19.441  0.00  0.00    +0.000 A 
ATOM     17  C   UNL     1       2.878   6.627  19.322  0.00  0.00    +0.000 A 
ATOM     18  N   UNL     1       1.893   6.536  20.310  0.00  0.00    +0.000 N 
ENDROOT
BRANCH  18  19
ATOM     19  C   UNL     1       1.539   5.226  20.885  0.00  0.00    +0.000 C 
BRANCH  19  20
ATOM     20  C   UNL     1       1.925   4.043  20.006  0.00  0.00    +0.000 A 
ATOM     21  C   UNL     1       2.836   3.063  20.428  0.00  0.00    +0.000 A 
ATOM     22  C   UNL     1       3.243   2.046  19.558  0.00  0.00    +0.000 A 
ATOM     23  C   UNL     1       2.715   1.965  18.277  0.00  0.00    +0.000 A 
ATOM     24  C   UNL     1       1.735   2.871  17.874  0.00  0.00    +0.000 A 
ATOM     25  C   UNL     1       1.339   3.901  18.740  0.00  0.00    +0.000 A 
ENDBRANCH  19  20
ENDBRANCH  18  19
TORSDOF 2
ENDMDL
MODEL 9
REMARK VINA RESULT:      -5.9     11.204     13.977
REMARK  Name = 
REMARK  3 active torsions:
REMARK  status: ('A' for Active; 'I' for Inactive)
REMARK    1  A    between atoms: C_1  and  C_2
REMARK    2  A    between atoms: N_18  and  C_19
REMARK    3  A    between atoms: C_19  and  C_20
REMARK                            x       y       z     vdW  Elec       q    Type
REMARK                         _______ _______ _______ _____ _____    ______ ____
ROOT
ATOM      1  C   UNL     1      -3.239  13.968  22.427  0.00  0.00    +0.000 C 
ATOM      2  C   UNL     1      -3.166  14.110  20.898  0.00  0.00    +0.000 C 
ATOM      3  C   UNL     1      -4.556  14.348  20.284  0.00  0.00    +0.000 C 
ATOM      4  C   UNL     1      -5.464  13.202  20.695  0.00  0.00    +0.000 C 
ATOM      5  N   UNL     1      -6.470  13.514  21.589  0.00  0.00    +0.000 N 
ATOM      6  C   UNL     1      -7.495  14.527  21.326  0.00  0.00    +0.000 C 
ATOM      7  C   UNL     1      -7.644  15.419  22.565  0.00  0.00    +0.000 C 
ATOM      8  O   UNL     1      -7.916  14.643  23.746  0.00  0.00    +0.000 OA
ATOM      9  C   UNL     1      -6.880  13.665  23.970  0.00  0.00    +0.000 C 
ATOM     10  C   UNL     1      -6.742  12.703  22.774  0.00  0.00    +0.000 C 
ATOM     11  N   UNL     1      -5.264  11.982  20.295  0.00  0.00    +0.000 NA
ATOM     12  C   UNL     1      -4.309  11.731  19.282  0.00  0.00    +0.000 A 
ATOM     13  C   UNL     1      -4.745  10.880  18.249  0.00  0.00    +0.000 A 
ATOM     14  C   UNL     1      -3.949  10.622  17.135  0.00  0.00    +0.000 A 
ATOM     15  C   UNL     1      -2.714  11.240  17.024  0.00  0.00    +0.000 A 
ATOM     16  C   UNL     1      -2.245  12.045  18.064  0.00  0.00    +0.000 A 
ATOM     17  C   UNL     1      -2.990  12.262  19.238  0.00  0.00    +0.000 A 
ATOM     18  N   UNL     1      -2.428  12.985  20.295  0.00  0.00    +0.000 N 
ENDROOT
BRANCH  18  19
ATOM     19  C   UNL     1      -1.024  12.757  20.684  0.00  0.00    +0.000 C 
BRANCH  19  20
ATOM     20  C   UNL     1      -0.775  11.395  21.320  0.00  0.00    +0.000 A 
ATOM     21  C   UNL     1      -1.063  11.136  22.669  0.00  0.00    +0.000 A 
ATOM     22  C   UNL     1      -0.729   9.906  23.246  0.00  0.00    +0.000 A 
ATOM     23  C   UNL     1      -0.149   8.905  22.478  0.00  0.00    +0.000 A 
ATOM     24  C   UNL     1       0.053   9.109  21.114  0.00  0.00    +0.000 A 
ATOM     25  C   UNL     1      -0.266  10.348  20.539  0.00  0.00    +0.000 A 
ENDBRANCH  19  20
ENDBRANCH  18  19
TORSDOF 2
ENDMDL
