MODEL 1
REMARK VINA RESULT:      -7.0      0.000      0.000
REMARK  Name = 
REMARK  8 active torsions:
REMARK  status: ('A' for Active; 'I' for Inactive)
REMARK    1  A    between atoms: C_1  and  C_2
REMARK    2  A    between atoms: C_2  and  N_3
REMARK    3  A    between atoms: C_2  and  C_4
REMARK    4  A    between atoms: N_7  and  C_8
REMARK    5  A    between atoms: C_17  and  C_18
REMARK    6  A    between atoms: C_18  and  O_20
REMARK    7  A    between atoms: N_22  and  C_23
REMARK    8  A    between atoms: C_26  and  O_27
REMARK                            x       y       z     vdW  Elec       q    Type
REMARK                         _______ _______ _______ _____ _____    ______ ____
ROOT
ATOM      1  C   UNL     1       1.881   8.327  18.901  0.00  0.00    +0.000 A 
ATOM      2  N   UNL     1       2.225   7.037  19.149  0.00  0.00    +0.000 NA
ATOM      3  C   UNL     1       3.203   6.412  18.424  0.00  0.00    +0.000 A 
ATOM      4  C   UNL     1       3.865   7.111  17.406  0.00  0.00    +0.000 A 
ATOM      5  C   UNL     1       3.528   8.436  17.136  0.00  0.00    +0.000 A 
ATOM      6  C   UNL     1       2.524   9.035  17.882  0.00  0.00    +0.000 A 
ATOM      7  F   UNL     1       2.217  10.316  17.628  0.00  0.00    +0.000 F 
ATOM      8  C   UNL     1       4.914   6.460  16.597  0.00  0.00    +0.000 A 
ATOM      9  O   UNL     1       5.507   7.060  15.706  0.00  0.00    +0.000 OA
ATOM     10  C   UNL     1       5.242   5.055  16.881  0.00  0.00    +0.000 A 
ATOM     11  C   UNL     1       4.558   4.463  17.874  0.00  0.00    +0.000 A 
ATOM     12  N   UNL     1       3.554   5.025  18.668  0.00  0.00    +0.000 N 
ENDROOT
BRANCH  12  13
ATOM     13  C   UNL     1       2.887   4.210  19.658  0.00  0.00    +0.000 A 
ATOM     14  C   UNL     1       3.603   3.342  20.502  0.00  0.00    +0.000 A 
ATOM     15  C   UNL     1       2.980   2.593  21.505  0.00  0.00    +0.000 A 
ATOM     16  C   UNL     1       1.602   2.652  21.637  0.00  0.00    +0.000 A 
ATOM     17  C   UNL     1       0.849   3.460  20.799  0.00  0.00    +0.000 A 
ATOM     18  C   UNL     1       1.487   4.243  19.830  0.00  0.00    +0.000 A 
BRANCH  16  19
ATOM     19  O   UNL     1       0.950   1.921  22.583  0.00  0.00    +0.000 OA
ATOM     20  H   UNL     1       0.837   2.472  23.375  0.00  0.00    +0.000 HD
ENDBRANCH  16  19
ENDBRANCH  12  13
BRANCH   1  24
ATOM     21  C   UNL     1       0.306  10.978  20.811  0.00  0.00    +0.000 C 
ATOM     22  C   UNL     1      -0.402  10.906  19.457  0.00  0.00    +0.000 C 
ATOM     23  C   UNL     1      -0.325   9.433  19.090  0.00  0.00    +0.000 C 
ATOM     24  N   UNL     1       0.916   8.955  19.688  0.00  0.00    +0.000 N 
ATOM     25  C   UNL     1       1.426   9.928  20.670  0.00  0.00    +0.000 C 
BRANCH  21  27
ATOM     26  C   UNL     1       0.852  13.303  19.911  0.00  0.00    +0.000 C 
ATOM     27  C   UNL     1       0.818  12.392  21.141  0.00  0.00    +0.000 C 
BRANCH  27  28
ATOM     28  N   UNL     1      -0.024  13.009  22.169  0.00  0.00    +0.000 NA
ATOM     29  H   UNL     1      -0.999  13.004  21.869  0.00  0.00    +0.000 HD
ATOM     30  H   UNL     1       0.226  13.995  22.265  0.00  0.00    +0.000 HD
ENDBRANCH  27  28
ENDBRANCH  21  27
ENDBRANCH   1  24
BRANCH  10  31
ATOM     31  C   UNL     1       6.260   4.280  16.143  0.00  0.00    +0.000 C 
ATOM     32  O   UNL     1       5.992   3.316  15.439  0.00  0.00    +0.000 OA
BRANCH  31  33
ATOM     33  O   UNL     1       7.527   4.724  16.295  0.00  0.00    +0.000 OA
ATOM     34  H   UNL     1       8.053   4.754  15.460  0.00  0.00    +0.000 HD
ENDBRANCH  31  33
ENDBRANCH  10  31
TORSDOF 7
ENDMDL
MODEL 2
REMARK VINA RESULT:      -6.9      2.471      5.087
REMARK  Name = 
REMARK  8 active torsions:
REMARK  status: ('A' for Active; 'I' for Inactive)
REMARK    1  A    between atoms: C_1  and  C_2
REMARK    2  A    between atoms: C_2  and  N_3
REMARK    3  A    between atoms: C_2  and  C_4
REMARK    4  A    between atoms: N_7  and  C_8
REMARK    5  A    between atoms: C_17  and  C_18
REMARK    6  A    between atoms: C_18  and  O_20
REMARK    7  A    between atoms: N_22  and  C_23
REMARK    8  A    between atoms: C_26  and  O_27
REMARK                            x       y       z     vdW  Elec       q    Type
REMARK                         _______ _______ _______ _____ _____    ______ ____
ROOT
ATOM      1  C   UNL     1       1.946   7.255  20.153  0.00  0.00    +0.000 A 
ATOM      2  N   UNL     1       3.110   6.805  19.620  0.00  0.00    +0.000 NA
ATOM      3  C   UNL     1       3.413   5.471  19.604  0.00  0.00    +0.000 A 
ATOM      4  C   UNL     1       2.510   4.548  20.147  0.00  0.00    +0.000 A 
ATOM      5  C   UNL     1       1.309   4.989  20.698  0.00  0.00    +0.000 A 
ATOM      6  C   UNL     1       1.039   6.349  20.708  0.00  0.00    +0.000 A 
ATOM      7  F   UNL     1      -0.128   6.765  21.225  0.00  0.00    +0.000 F 
ATOM      8  C   UNL     1       2.816   3.103  20.158  0.00  0.00    +0.000 A 
ATOM      9  O   UNL     1       2.033   2.283  20.624  0.00  0.00    +0.000 OA
ATOM     10  C   UNL     1       4.097   2.658  19.591  0.00  0.00    +0.000 A 
ATOM     11  C   UNL     1       4.902   3.611  19.093  0.00  0.00    +0.000 A 
ATOM     12  N   UNL     1       4.670   4.989  19.059  0.00  0.00    +0.000 N 
ENDROOT
BRANCH  12  13
ATOM     13  C   UNL     1       5.685   5.871  18.530  0.00  0.00    +0.000 A 
ATOM     14  C   UNL     1       5.423   6.730  17.448  0.00  0.00    +0.000 A 
ATOM     15  C   UNL     1       6.375   7.633  16.964  0.00  0.00    +0.000 A 
ATOM     16  C   UNL     1       7.644   7.642  17.520  0.00  0.00    +0.000 A 
ATOM     17  C   UNL     1       7.963   6.782  18.559  0.00  0.00    +0.000 A 
ATOM     18  C   UNL     1       6.988   5.916  19.069  0.00  0.00    +0.000 A 
BRANCH  16  19
ATOM     19  O   UNL     1       8.610   8.486  17.064  0.00  0.00    +0.000 OA
ATOM     20  H   UNL     1       9.273   7.964  16.583  0.00  0.00    +0.000 HD
ENDBRANCH  16  19
ENDBRANCH  12  13
BRANCH   1  24
ATOM     21  C   UNL     1       0.019  10.246  19.446  0.00  0.00    +0.000 C 
ATOM     22  C   UNL     1      -0.135   9.944  20.938  0.00  0.00    +0.000 C 
ATOM     23  C   UNL     1       1.193   9.308  21.313  0.00  0.00    +0.000 C 
ATOM     24  N   UNL     1       1.639   8.615  20.111  0.00  0.00    +0.000 N 
ATOM     25  C   UNL     1       0.862   9.059  18.940  0.00  0.00    +0.000 C 
BRANCH  21  27
ATOM     26  C   UNL     1      -2.024  11.726  19.056  0.00  0.00    +0.000 C 
ATOM     27  C   UNL     1      -1.333  10.400  18.726  0.00  0.00    +0.000 C 
BRANCH  27  28
ATOM     28  N   UNL     1      -1.149  10.305  17.276  0.00  0.00    +0.000 NA
ATOM     29  H   UNL     1      -0.915  11.222  16.895  0.00  0.00    +0.000 HD
ATOM     30  H   UNL     1      -2.035  10.046  16.838  0.00  0.00    +0.000 HD
ENDBRANCH  27  28
ENDBRANCH  21  27
ENDBRANCH   1  24
BRANCH  10  31
ATOM     31  C   UNL     1       4.534   1.247  19.548  0.00  0.00    +0.000 C 
ATOM     32  O   UNL     1       5.299   0.754  20.366  0.00  0.00    +0.000 OA
BRANCH  31  33
ATOM     33  O   UNL     1       4.013   0.527  18.531  0.00  0.00    +0.000 OA
ATOM     34  H   UNL     1       3.739  -0.390  18.778  0.00  0.00    +0.000 HD
ENDBRANCH  31  33
ENDBRANCH  10  31
TORSDOF 7
ENDMDL
MODEL 3
REMARK VINA RESULT:      -6.9      6.678     10.281
REMARK  Name = 
REMARK  8 active torsions:
REMARK  status: ('A' for Active; 'I' for Inactive)
REMARK    1  A    between atoms: C_1  and  C_2
REMARK    2  A    between atoms: C_2  and  N_3
REMARK    3  A    between atoms: C_2  and  C_4
REMARK    4  A    between atoms: N_7  and  C_8
REMARK    5  A    between atoms: C_17  and  C_18
REMARK    6  A    between atoms: C_18  and  O_20
REMARK    7  A    between atoms: N_22  and  C_23
REMARK    8  A    between atoms: C_26  and  O_27
REMARK                            x       y       z     vdW  Elec       q    Type
REMARK                         _______ _______ _______ _____ _____    ______ ____
ROOT
ATOM      1  C   UNL     1       0.701  15.581  22.078  0.00  0.00    +0.000 A 
ATOM      2  N   UNL     1      -0.028  14.518  21.653  0.00  0.00    +0.000 NA
ATOM      3  C   UNL     1      -1.127  14.089  22.345  0.00  0.00    +0.000 A 
ATOM      4  C   UNL     1      -1.513  14.756  23.515  0.00  0.00    +0.000 A 
ATOM      5  C   UNL     1      -0.781  15.850  23.969  0.00  0.00    +0.000 A 
ATOM      6  C   UNL     1       0.335  16.251  23.248  0.00  0.00    +0.000 A 
ATOM      7  F   UNL     1       1.025  17.317  23.682  0.00  0.00    +0.000 F 
ATOM      8  C   UNL     1      -2.686  14.307  24.292  0.00  0.00    +0.000 A 
ATOM      9  O   UNL     1      -3.041  14.884  25.314  0.00  0.00    +0.000 OA
ATOM     10  C   UNL     1      -3.435  13.138  23.810  0.00  0.00    +0.000 A 
ATOM     11  C   UNL     1      -2.995  12.560  22.680  0.00  0.00    +0.000 A 
ATOM     12  N   UNL     1      -1.892  12.934  21.907  0.00  0.00    +0.000 N 
ENDROOT
BRANCH  12  13
ATOM     13  C   UNL     1      -1.535  12.152  20.746  0.00  0.00    +0.000 A 
ATOM     14  C   UNL     1      -0.667  11.051  20.838  0.00  0.00    +0.000 A 
ATOM     15  C   UNL     1      -0.360  10.247  19.734  0.00  0.00    +0.000 A 
ATOM     16  C   UNL     1      -0.874  10.579  18.491  0.00  0.00    +0.000 A 
ATOM     17  C   UNL     1      -1.700  11.682  18.344  0.00  0.00    +0.000 A 
ATOM     18  C   UNL     1      -2.040  12.452  19.463  0.00  0.00    +0.000 A 
BRANCH  16  19
ATOM     19  O   UNL     1      -0.582   9.841  17.385  0.00  0.00    +0.000 OA
ATOM     20  H   UNL     1      -0.203   8.994  17.671  0.00  0.00    +0.000 HD
ENDBRANCH  16  19
ENDBRANCH  12  13
BRANCH   1  24
ATOM     21  C   UNL     1       3.223  15.555  19.472  0.00  0.00    +0.000 C 
ATOM     22  C   UNL     1       2.129  16.533  19.041  0.00  0.00    +0.000 C 
ATOM     23  C   UNL     1       1.619  17.102  20.355  0.00  0.00    +0.000 C 
ATOM     24  N   UNL     1       1.787  16.028  21.327  0.00  0.00    +0.000 N 
ATOM     25  C   UNL     1       2.668  14.977  20.789  0.00  0.00    +0.000 C 
BRANCH  21  27
ATOM     26  C   UNL     1       2.411  13.444  18.290  0.00  0.00    +0.000 C 
ATOM     27  C   UNL     1       3.524  14.488  18.403  0.00  0.00    +0.000 C 
BRANCH  27  28
ATOM     28  N   UNL     1       3.719  15.122  17.096  0.00  0.00    +0.000 NA
ATOM     29  H   UNL     1       4.315  14.536  16.511  0.00  0.00    +0.000 HD
ATOM     30  H   UNL     1       4.232  15.997  17.216  0.00  0.00    +0.000 HD
ENDBRANCH  27  28
ENDBRANCH  21  27
ENDBRANCH   1  24
BRANCH  10  31
ATOM     31  C   UNL     1      -4.619  12.577  24.494  0.00  0.00    +0.000 C 
ATOM     32  O   UNL     1      -5.630  12.219  23.906  0.00  0.00    +0.000 OA
BRANCH  31  33
ATOM     33  O   UNL     1      -4.499  12.475  25.836  0.00  0.00    +0.000 OA
ATOM     34  H   UNL     1      -5.210  12.934  26.346  0.00  0.00    +0.000 HD
ENDBRANCH  31  33
ENDBRANCH  10  31
TORSDOF 7
ENDMDL
MODEL 4
REMARK VINA RESULT:      -6.8      8.686     10.387
REMARK  Name = 
REMARK  8 active torsions:
REMARK  status: ('A' for Active; 'I' for Inactive)
REMARK    1  A    between atoms: C_1  and  C_2
REMARK    2  A    between atoms: C_2  and  N_3
REMARK    3  A    between atoms: C_2  and  C_4
REMARK    4  A    between atoms: N_7  and  C_8
REMARK    5  A    between atoms: C_17  and  C_18
REMARK    6  A    between atoms: C_18  and  O_20
REMARK    7  A    between atoms: N_22  and  C_23
REMARK    8  A    between atoms: C_26  and  O_27
REMARK                            x       y       z     vdW  Elec       q    Type
REMARK                         _______ _______ _______ _____ _____    ______ ____
ROOT
ATOM      1  C   UNL     1       7.623  13.262  22.683  0.00  0.00    +0.000 A 
ATOM      2  N   UNL     1       7.398  13.802  21.458  0.00  0.00    +0.000 NA
ATOM      3  C   UNL     1       8.325  13.702  20.457  0.00  0.00    +0.000 A 
ATOM      4  C   UNL     1       9.531  13.029  20.694  0.00  0.00    +0.000 A 
ATOM      5  C   UNL     1       9.782  12.466  21.943  0.00  0.00    +0.000 A 
ATOM      6  C   UNL     1       8.825  12.597  22.939  0.00  0.00    +0.000 A 
ATOM      7  F   UNL     1       9.066  12.037  24.134  0.00  0.00    +0.000 F 
ATOM      8  C   UNL     1      10.557  12.917  19.638  0.00  0.00    +0.000 A 
ATOM      9  O   UNL     1      11.615  12.327  19.829  0.00  0.00    +0.000 OA
ATOM     10  C   UNL     1      10.284  13.535  18.333  0.00  0.00    +0.000 A 
ATOM     11  C   UNL     1       9.103  14.159  18.194  0.00  0.00    +0.000 A 
ATOM     12  N   UNL     1       8.098  14.303  19.155  0.00  0.00    +0.000 N 
ENDROOT
BRANCH  12  13
ATOM     13  C   UNL     1       6.910  15.062  18.838  0.00  0.00    +0.000 A 
ATOM     14  C   UNL     1       5.858  14.506  18.088  0.00  0.00    +0.000 A 
ATOM     15  C   UNL     1       4.677  15.207  17.825  0.00  0.00    +0.000 A 
ATOM     16  C   UNL     1       4.555  16.517  18.258  0.00  0.00    +0.000 A 
ATOM     17  C   UNL     1       5.584  17.122  18.963  0.00  0.00    +0.000 A 
ATOM     18  C   UNL     1       6.743  16.397  19.263  0.00  0.00    +0.000 A 
BRANCH  16  19
ATOM     19  O   UNL     1       3.434  17.246  18.003  0.00  0.00    +0.000 OA
ATOM     20  H   UNL     1       3.096  17.595  18.843  0.00  0.00    +0.000 HD
ENDBRANCH  16  19
ENDBRANCH  12  13
BRANCH   1  24
ATOM     21  C   UNL     1       5.580  12.183  25.479  0.00  0.00    +0.000 C 
ATOM     22  C   UNL     1       6.637  13.143  26.028  0.00  0.00    +0.000 C 
ATOM     23  C   UNL     1       6.869  14.114  24.881  0.00  0.00    +0.000 C 
ATOM     24  N   UNL     1       6.640  13.336  23.669  0.00  0.00    +0.000 N 
ATOM     25  C   UNL     1       5.959  12.068  23.989  0.00  0.00    +0.000 C 
BRANCH  21  27
ATOM     26  C   UNL     1       5.419  11.002  27.736  0.00  0.00    +0.000 C 
ATOM     27  C   UNL     1       5.558  10.834  26.221  0.00  0.00    +0.000 C 
BRANCH  27  28
ATOM     28  N   UNL     1       4.455  10.004  25.729  0.00  0.00    +0.000 NA
ATOM     29  H   UNL     1       3.599  10.556  25.683  0.00  0.00    +0.000 HD
ATOM     30  H   UNL     1       4.263   9.261  26.404  0.00  0.00    +0.000 HD
ENDBRANCH  27  28
ENDBRANCH  21  27
ENDBRANCH   1  24
BRANCH  10  31
ATOM     31  C   UNL     1      11.225  13.508  17.194  0.00  0.00    +0.000 C 
ATOM     32  O   UNL     1      11.565  14.509  16.578  0.00  0.00    +0.000 OA
BRANCH  31  33
ATOM     33  O   UNL     1      11.700  12.282  16.884  0.00  0.00    +0.000 OA
ATOM     34  H   UNL     1      11.002  11.613  16.680  0.00  0.00    +0.000 HD
ENDBRANCH  31  33
ENDBRANCH  10  31
TORSDOF 7
ENDMDL
MODEL 5
REMARK VINA RESULT:      -6.8      1.147      1.321
REMARK  Name = 
REMARK  8 active torsions:
REMARK  status: ('A' for Active; 'I' for Inactive)
REMARK    1  A    between atoms: C_1  and  C_2
REMARK    2  A    between atoms: C_2  and  N_3
REMARK    3  A    between atoms: C_2  and  C_4
REMARK    4  A    between atoms: N_7  and  C_8
REMARK    5  A    between atoms: C_17  and  C_18
REMARK    6  A    between atoms: C_18  and  O_20
REMARK    7  A    between atoms: N_22  and  C_23
REMARK    8  A    between atoms: C_26  and  O_27
REMARK                            x       y       z     vdW  Elec       q    Type
REMARK                         _______ _______ _______ _____ _____    ______ ____
ROOT
ATOM      1  C   UNL     1       1.906   8.172  18.678  0.00  0.00    +0.000 A 
ATOM      2  N   UNL     1       2.355   6.952  19.068  0.00  0.00    +0.000 NA
ATOM      3  C   UNL     1       3.532   6.444  18.591  0.00  0.00    +0.000 A 
ATOM      4  C   UNL     1       4.293   7.192  17.682  0.00  0.00    +0.000 A 
ATOM      5  C   UNL     1       3.851   8.447  17.270  0.00  0.00    +0.000 A 
ATOM      6  C   UNL     1       2.647   8.926  17.765  0.00  0.00    +0.000 A 
ATOM      7  F   UNL     1       2.236  10.143  17.377  0.00  0.00    +0.000 F 
ATOM      8  C   UNL     1       5.560   6.665  17.138  0.00  0.00    +0.000 A 
ATOM      9  O   UNL     1       6.240   7.310  16.347  0.00  0.00    +0.000 OA
ATOM     10  C   UNL     1       6.001   5.330  17.568  0.00  0.00    +0.000 A 
ATOM     11  C   UNL     1       5.211   4.683  18.441  0.00  0.00    +0.000 A 
ATOM     12  N   UNL     1       4.002   5.127  18.985  0.00  0.00    +0.000 N 
ENDROOT
BRANCH  12  13
ATOM     13  C   UNL     1       3.258   4.263  19.872  0.00  0.00    +0.000 A 
ATOM     14  C   UNL     1       3.819   3.085  20.395  0.00  0.00    +0.000 A 
ATOM     15  C   UNL     1       3.134   2.269  21.302  0.00  0.00    +0.000 A 
ATOM     16  C   UNL     1       1.833   2.591  21.653  0.00  0.00    +0.000 A 
ATOM     17  C   UNL     1       1.222   3.720  21.129  0.00  0.00    +0.000 A 
ATOM     18  C   UNL     1       1.933   4.555  20.259  0.00  0.00    +0.000 A 
BRANCH  16  19
ATOM     19  O   UNL     1       1.119   1.814  22.513  0.00  0.00    +0.000 OA
ATOM     20  H   UNL     1       1.125   0.901  22.181  0.00  0.00    +0.000 HD
ENDBRANCH  16  19
ENDBRANCH  12  13
BRANCH   1  24
ATOM     21  C   UNL     1      -0.218   9.992  20.987  0.00  0.00    +0.000 C 
ATOM     22  C   UNL     1      -0.049  10.860  19.739  0.00  0.00    +0.000 C 
ATOM     23  C   UNL     1       0.085   9.847  18.613  0.00  0.00    +0.000 C 
ATOM     24  N   UNL     1       0.728   8.687  19.218  0.00  0.00    +0.000 N 
ATOM     25  C   UNL     1       0.687   8.780  20.689  0.00  0.00    +0.000 C 
BRANCH  21  27
ATOM     26  C   UNL     1      -0.833  11.867  22.605  0.00  0.00    +0.000 C 
ATOM     27  C   UNL     1       0.147  10.736  22.284  0.00  0.00    +0.000 C 
BRANCH  27  28
ATOM     28  N   UNL     1       0.184   9.801  23.412  0.00  0.00    +0.000 NA
ATOM     29  H   UNL     1      -0.555  10.029  24.076  0.00  0.00    +0.000 HD
ATOM     30  H   UNL     1       1.059   9.924  23.925  0.00  0.00    +0.000 HD
ENDBRANCH  27  28
ENDBRANCH  21  27
ENDBRANCH   1  24
BRANCH  10  31
ATOM     31  C   UNL     1       7.240   4.678  17.095  0.00  0.00    +0.000 C 
ATOM     32  O   UNL     1       8.100   4.242  17.847  0.00  0.00    +0.000 OA
BRANCH  31  33
ATOM     33  O   UNL     1       7.350   4.586  15.752  0.00  0.00    +0.000 OA
ATOM     34  H   UNL     1       7.727   5.389  15.317  0.00  0.00    +0.000 HD
ENDBRANCH  31  33
ENDBRANCH  10  31
TORSDOF 7
ENDMDL
MODEL 6
REMARK VINA RESULT:      -6.8      5.711      9.836
REMARK  Name = 
REMARK  8 active torsions:
REMARK  status: ('A' for Active; 'I' for Inactive)
REMARK    1  A    between atoms: C_1  and  C_2
REMARK    2  A    between atoms: C_2  and  N_3
REMARK    3  A    between atoms: C_2  and  C_4
REMARK    4  A    between atoms: N_7  and  C_8
REMARK    5  A    between atoms: C_17  and  C_18
REMARK    6  A    between atoms: C_18  and  O_20
REMARK    7  A    between atoms: N_22  and  C_23
REMARK    8  A    between atoms: C_26  and  O_27
REMARK                            x       y       z     vdW  Elec       q    Type
REMARK                         _______ _______ _______ _____ _____    ______ ____
ROOT
ATOM      1  C   UNL     1       0.982  15.222  22.246  0.00  0.00    +0.000 A 
ATOM      2  N   UNL     1       0.471  13.968  22.152  0.00  0.00    +0.000 NA
ATOM      3  C   UNL     1      -0.729  13.646  22.725  0.00  0.00    +0.000 A 
ATOM      4  C   UNL     1      -1.449  14.625  23.423  0.00  0.00    +0.000 A 
ATOM      5  C   UNL     1      -0.943  15.919  23.531  0.00  0.00    +0.000 A 
ATOM      6  C   UNL     1       0.282  16.207  22.948  0.00  0.00    +0.000 A 
ATOM      7  F   UNL     1       0.755  17.459  23.041  0.00  0.00    +0.000 F 
ATOM      8  C   UNL     1      -2.739  14.305  24.064  0.00  0.00    +0.000 A 
ATOM      9  O   UNL     1      -3.383  15.152  24.674  0.00  0.00    +0.000 OA
ATOM     10  C   UNL     1      -3.248  12.930  23.958  0.00  0.00    +0.000 A 
ATOM     11  C   UNL     1      -2.493  12.057  23.271  0.00  0.00    +0.000 A 
ATOM     12  N   UNL     1      -1.265  12.299  22.649  0.00  0.00    +0.000 N 
ENDROOT
BRANCH  12  13
ATOM     13  C   UNL     1      -0.568  11.213  21.999  0.00  0.00    +0.000 A 
ATOM     14  C   UNL     1      -0.375  11.190  20.606  0.00  0.00    +0.000 A 
ATOM     15  C   UNL     1       0.350  10.178  19.969  0.00  0.00    +0.000 A 
ATOM     16  C   UNL     1       0.844   9.123  20.720  0.00  0.00    +0.000 A 
ATOM     17  C   UNL     1       0.641   9.080  22.090  0.00  0.00    +0.000 A 
ATOM     18  C   UNL     1      -0.044  10.123  22.725  0.00  0.00    +0.000 A 
BRANCH  16  19
ATOM     19  O   UNL     1       1.534   8.103  20.139  0.00  0.00    +0.000 OA
ATOM     20  H   UNL     1       1.805   8.382  19.249  0.00  0.00    +0.000 HD
ENDBRANCH  16  19
ENDBRANCH  12  13
BRANCH   1  24
ATOM     21  C   UNL     1       3.600  15.064  19.740  0.00  0.00    +0.000 C 
ATOM     22  C   UNL     1       2.766  16.314  19.454  0.00  0.00    +0.000 C 
ATOM     23  C   UNL     1       2.306  16.762  20.832  0.00  0.00    +0.000 C 
ATOM     24  N   UNL     1       2.183  15.535  21.610  0.00  0.00    +0.000 N 
ATOM     25  C   UNL     1       2.854  14.417  20.924  0.00  0.00    +0.000 C 
BRANCH  21  27
ATOM     26  C   UNL     1       2.438  13.390  18.203  0.00  0.00    +0.000 C 
ATOM     27  C   UNL     1       3.735  14.144  18.513  0.00  0.00    +0.000 C 
BRANCH  27  28
ATOM     28  N   UNL     1       4.128  14.922  17.336  0.00  0.00    +0.000 NA
ATOM     29  H   UNL     1       3.622  15.808  17.320  0.00  0.00    +0.000 HD
ATOM     30  H   UNL     1       3.838  14.428  16.490  0.00  0.00    +0.000 HD
ENDBRANCH  27  28
ENDBRANCH  21  27
ENDBRANCH   1  24
BRANCH  10  31
ATOM     31  C   UNL     1      -4.517  12.470  24.560  0.00  0.00    +0.000 C 
ATOM     32  O   UNL     1      -5.473  12.086  23.903  0.00  0.00    +0.000 OA
BRANCH  31  33
ATOM     33  O   UNL     1      -4.541  12.496  25.911  0.00  0.00    +0.000 OA
ATOM     34  H   UNL     1      -5.329  12.951  26.297  0.00  0.00    +0.000 HD
ENDBRANCH  31  33
ENDBRANCH  10  31
TORSDOF 7
ENDMDL
MODEL 7
REMARK VINA RESULT:      -6.7      5.789      9.080
REMARK  Name = 
REMARK  8 active torsions:
REMARK  status: ('A' for Active; 'I' for Inactive)
REMARK    1  A    between atoms: C_1  and  C_2
REMARK    2  A    between atoms: C_2  and  N_3
REMARK    3  A    between atoms: C_2  and  C_4
REMARK    4  A    between atoms: N_7  and  C_8
REMARK    5  A    between atoms: C_17  and  C_18
REMARK    6  A    between atoms: C_18  and  O_20
REMARK    7  A    between atoms: N_22  and  C_23
REMARK    8  A    between atoms: C_26  and  O_27
REMARK                            x       y       z     vdW  Elec       q    Type
REMARK                         _______ _______ _______ _____ _____    ______ ____
ROOT
ATOM      1  C   UNL     1      -4.956  12.251  19.351  0.00  0.00    +0.000 A 
ATOM      2  N   UNL     1      -3.744  12.522  19.901  0.00  0.00    +0.000 NA
ATOM      3  C   UNL     1      -2.603  11.935  19.425  0.00  0.00    +0.000 A 
ATOM      4  C   UNL     1      -2.680  11.038  18.352  0.00  0.00    +0.000 A 
ATOM      5  C   UNL     1      -3.913  10.747  17.773  0.00  0.00    +0.000 A 
ATOM      6  C   UNL     1      -5.051  11.351  18.287  0.00  0.00    +0.000 A 
ATOM      7  F   UNL     1      -6.233  11.079  17.713  0.00  0.00    +0.000 F 
ATOM      8  C   UNL     1      -1.468  10.378  17.826  0.00  0.00    +0.000 A 
ATOM      9  O   UNL     1      -1.519   9.595  16.884  0.00  0.00    +0.000 OA
ATOM     10  C   UNL     1      -0.178  10.680  18.463  0.00  0.00    +0.000 A 
ATOM     11  C   UNL     1      -0.197  11.552  19.485  0.00  0.00    +0.000 A 
ATOM     12  N   UNL     1      -1.309  12.202  20.029  0.00  0.00    +0.000 N 
ENDROOT
BRANCH  12  13
ATOM     13  C   UNL     1      -1.141  13.068  21.173  0.00  0.00    +0.000 A 
ATOM     14  C   UNL     1      -1.633  12.716  22.442  0.00  0.00    +0.000 A 
ATOM     15  C   UNL     1      -1.425  13.515  23.572  0.00  0.00    +0.000 A 
ATOM     16  C   UNL     1      -0.770  14.728  23.432  0.00  0.00    +0.000 A 
ATOM     17  C   UNL     1      -0.307  15.138  22.192  0.00  0.00    +0.000 A 
ATOM     18  C   UNL     1      -0.477  14.309  21.076  0.00  0.00    +0.000 A 
BRANCH  16  19
ATOM     19  O   UNL     1      -0.568  15.549  24.498  0.00  0.00    +0.000 OA
ATOM     20  H   UNL     1      -1.226  16.263  24.467  0.00  0.00    +0.000 HD
ENDBRANCH  16  19
ENDBRANCH  12  13
BRANCH   1  24
ATOM     21  C   UNL     1      -7.287  13.620  21.770  0.00  0.00    +0.000 C 
ATOM     22  C   UNL     1      -6.484  14.788  21.196  0.00  0.00    +0.000 C 
ATOM     23  C   UNL     1      -6.191  14.354  19.769  0.00  0.00    +0.000 C 
ATOM     24  N   UNL     1      -6.096  12.901  19.823  0.00  0.00    +0.000 N 
ATOM     25  C   UNL     1      -6.641  12.393  21.094  0.00  0.00    +0.000 C 
BRANCH  21  27
ATOM     26  C   UNL     1      -7.916  14.794  23.947  0.00  0.00    +0.000 C 
ATOM     27  C   UNL     1      -7.252  13.571  23.309  0.00  0.00    +0.000 C 
BRANCH  27  28
ATOM     28  N   UNL     1      -7.917  12.359  23.793  0.00  0.00    +0.000 NA
ATOM     29  H   UNL     1      -7.746  12.245  24.792  0.00  0.00    +0.000 HD
ATOM     30  H   UNL     1      -7.495  11.540  23.350  0.00  0.00    +0.000 HD
ENDBRANCH  27  28
ENDBRANCH  21  27
ENDBRANCH   1  24
BRANCH  10  31
ATOM     31  C   UNL     1       1.108  10.084  18.047  0.00  0.00    +0.000 C 
ATOM     32  O   UNL     1       1.279   8.880  17.915  0.00  0.00    +0.000 OA
BRANCH  31  33
ATOM     33  O   UNL     1       2.092  10.977  17.808  0.00  0.00    +0.000 OA
ATOM     34  H   UNL     1       2.079  11.367  16.899  0.00  0.00    +0.000 HD
ENDBRANCH  31  33
ENDBRANCH  10  31
TORSDOF 7
ENDMDL
MODEL 8
REMARK VINA RESULT:      -6.7      5.755      9.970
REMARK  Name = 
REMARK  8 active torsions:
REMARK  status: ('A' for Active; 'I' for Inactive)
REMARK    1  A    between atoms: C_1  and  C_2
REMARK    2  A    between atoms: C_2  and  N_3
REMARK    3  A    between atoms: C_2  and  C_4
REMARK    4  A    between atoms: N_7  and  C_8
REMARK    5  A    between atoms: C_17  and  C_18
REMARK    6  A    between atoms: C_18  and  O_20
REMARK    7  A    between atoms: N_22  and  C_23
REMARK    8  A    between atoms: C_26  and  O_27
REMARK                            x       y       z     vdW  Elec       q    Type
REMARK                         _______ _______ _______ _____ _____    ______ ____
ROOT
ATOM      1  C   UNL     1      -0.595  10.546  18.813  0.00  0.00    +0.000 A 
ATOM      2  N   UNL     1      -1.191  11.430  19.652  0.00  0.00    +0.000 NA
ATOM      3  C   UNL     1      -2.493  11.812  19.472  0.00  0.00    +0.000 A 
ATOM      4  C   UNL     1      -3.228  11.284  18.403  0.00  0.00    +0.000 A 
ATOM      5  C   UNL     1      -2.636  10.375  17.530  0.00  0.00    +0.000 A 
ATOM      6  C   UNL     1      -1.311  10.019  17.735  0.00  0.00    +0.000 A 
ATOM      7  F   UNL     1      -0.753   9.129  16.901  0.00  0.00    +0.000 F 
ATOM      8  C   UNL     1      -4.630  11.689  18.174  0.00  0.00    +0.000 A 
ATOM      9  O   UNL     1      -5.289  11.232  17.246  0.00  0.00    +0.000 OA
ATOM     10  C   UNL     1      -5.233  12.666  19.093  0.00  0.00    +0.000 A 
ATOM     11  C   UNL     1      -4.455  13.119  20.089  0.00  0.00    +0.000 A 
ATOM     12  N   UNL     1      -3.125  12.779  20.353  0.00  0.00    +0.000 N 
ENDROOT
BRANCH  12  13
ATOM     13  C   UNL     1      -2.428  13.417  21.446  0.00  0.00    +0.000 A 
ATOM     14  C   UNL     1      -1.677  14.590  21.257  0.00  0.00    +0.000 A 
ATOM     15  C   UNL     1      -1.047  15.253  22.315  0.00  0.00    +0.000 A 
ATOM     16  C   UNL     1      -1.105  14.707  23.587  0.00  0.00    +0.000 A 
ATOM     17  C   UNL     1      -1.797  13.527  23.814  0.00  0.00    +0.000 A 
ATOM     18  C   UNL     1      -2.465  12.897  22.757  0.00  0.00    +0.000 A 
BRANCH  16  19
ATOM     19  O   UNL     1      -0.486  15.303  24.642  0.00  0.00    +0.000 OA
ATOM     20  H   UNL     1      -0.308  16.230  24.412  0.00  0.00    +0.000 HD
ENDBRANCH  16  19
ENDBRANCH  12  13
BRANCH   1  24
ATOM     21  C   UNL     1       2.193   8.259  19.200  0.00  0.00    +0.000 C 
ATOM     22  C   UNL     1       2.318   8.903  17.818  0.00  0.00    +0.000 C 
ATOM     23  C   UNL     1       1.735  10.292  18.017  0.00  0.00    +0.000 C 
ATOM     24  N   UNL     1       0.717  10.136  19.049  0.00  0.00    +0.000 N 
ATOM     25  C   UNL     1       0.868   8.839  19.732  0.00  0.00    +0.000 C 
BRANCH  21  27
ATOM     26  C   UNL     1       3.274   6.189  18.171  0.00  0.00    +0.000 C 
ATOM     27  C   UNL     1       2.220   6.720  19.146  0.00  0.00    +0.000 C 
BRANCH  27  28
ATOM     28  N   UNL     1       2.481   6.170  20.478  0.00  0.00    +0.000 NA
ATOM     29  H   UNL     1       3.436   6.387  20.763  0.00  0.00    +0.000 HD
ATOM     30  H   UNL     1       2.435   5.150  20.439  0.00  0.00    +0.000 HD
ENDBRANCH  27  28
ENDBRANCH  21  27
ENDBRANCH   1  24
BRANCH  10  31
ATOM     31  C   UNL     1      -6.618  13.165  18.973  0.00  0.00    +0.000 C 
ATOM     32  O   UNL     1      -6.917  14.348  19.057  0.00  0.00    +0.000 OA
BRANCH  31  33
ATOM     33  O   UNL     1      -7.545  12.207  18.752  0.00  0.00    +0.000 OA
ATOM     34  H   UNL     1      -7.288  11.308  19.070  0.00  0.00    +0.000 HD
ENDBRANCH  31  33
ENDBRANCH  10  31
TORSDOF 7
ENDMDL
MODEL 9
REMARK VINA RESULT:      -6.6      5.757      8.983
REMARK  Name = 
REMARK  8 active torsions:
REMARK  status: ('A' for Active; 'I' for Inactive)
REMARK    1  A    between atoms: C_1  and  C_2
REMARK    2  A    between atoms: C_2  and  N_3
REMARK    3  A    between atoms: C_2  and  C_4
REMARK    4  A    between atoms: N_7  and  C_8
REMARK    5  A    between atoms: C_17  and  C_18
REMARK    6  A    between atoms: C_18  and  O_20
REMARK    7  A    between atoms: N_22  and  C_23
REMARK    8  A    between atoms: C_26  and  O_27
REMARK                            x       y       z     vdW  Elec       q    Type
REMARK                         _______ _______ _______ _____ _____    ______ ____
ROOT
ATOM      1  C   UNL     1      -5.026  12.276  19.016  0.00  0.00    +0.000 A 
ATOM      2  N   UNL     1      -3.901  12.427  19.761  0.00  0.00    +0.000 NA
ATOM      3  C   UNL     1      -2.734  11.801  19.417  0.00  0.00    +0.000 A 
ATOM      4  C   UNL     1      -2.693  10.989  18.276  0.00  0.00    +0.000 A 
ATOM      5  C   UNL     1      -3.835  10.821  17.497  0.00  0.00    +0.000 A 
ATOM      6  C   UNL     1      -5.004  11.461  17.882  0.00  0.00    +0.000 A 
ATOM      7  F   UNL     1      -6.096  11.309  17.117  0.00  0.00    +0.000 F 
ATOM      8  C   UNL     1      -1.451  10.290  17.887  0.00  0.00    +0.000 A 
ATOM      9  O   UNL     1      -1.398   9.580  16.889  0.00  0.00    +0.000 OA
ATOM     10  C   UNL     1      -0.261  10.461  18.732  0.00  0.00    +0.000 A 
ATOM     11  C   UNL     1      -0.391  11.258  19.806  0.00  0.00    +0.000 A 
ATOM     12  N   UNL     1      -1.536  11.939  20.227  0.00  0.00    +0.000 N 
ENDROOT
BRANCH  12  13
ATOM     13  C   UNL     1      -1.500  12.710  21.449  0.00  0.00    +0.000 A 
ATOM     14  C   UNL     1      -0.621  13.795  21.610  0.00  0.00    +0.000 A 
ATOM     15  C   UNL     1      -0.616  14.588  22.762  0.00  0.00    +0.000 A 
ATOM     16  C   UNL     1      -1.459  14.262  23.812  0.00  0.00    +0.000 A 
ATOM     17  C   UNL     1      -2.313  13.174  23.716  0.00  0.00    +0.000 A 
ATOM     18  C   UNL     1      -2.345  12.415  22.540  0.00  0.00    +0.000 A 
BRANCH  16  19
ATOM     19  O   UNL     1      -1.471  14.990  24.962  0.00  0.00    +0.000 OA
ATOM     20  H   UNL     1      -1.321  14.389  25.710  0.00  0.00    +0.000 HD
ENDBRANCH  16  19
ENDBRANCH  12  13
BRANCH   1  24
ATOM     21  C   UNL     1      -7.584  13.687  21.166  0.00  0.00    +0.000 C 
ATOM     22  C   UNL     1      -6.667  14.832  20.732  0.00  0.00    +0.000 C 
ATOM     23  C   UNL     1      -6.216  14.421  19.340  0.00  0.00    +0.000 C 
ATOM     24  N   UNL     1      -6.189  12.964  19.361  0.00  0.00    +0.000 N 
ATOM     25  C   UNL     1      -6.910  12.450  20.540  0.00  0.00    +0.000 C 
BRANCH  21  27
ATOM     26  C   UNL     1      -6.583  12.857  23.363  0.00  0.00    +0.000 C 
ATOM     27  C   UNL     1      -7.744  13.600  22.695  0.00  0.00    +0.000 C 
BRANCH  27  28
ATOM     28  N   UNL     1      -7.846  14.943  23.272  0.00  0.00    +0.000 NA
ATOM     29  H   UNL     1      -8.031  14.878  24.273  0.00  0.00    +0.000 HD
ATOM     30  H   UNL     1      -8.657  15.421  22.876  0.00  0.00    +0.000 HD
ENDBRANCH  27  28
ENDBRANCH  21  27
ENDBRANCH   1  24
BRANCH  10  31
ATOM     31  C   UNL     1       1.040   9.812  18.467  0.00  0.00    +0.000 C 
ATOM     32  O   UNL     1       1.487   8.900  19.147  0.00  0.00    +0.000 OA
BRANCH  31  33
ATOM     33  O   UNL     1       1.705  10.300  17.397  0.00  0.00    +0.000 OA
ATOM     34  H   UNL     1       1.319  10.042  16.524  0.00  0.00    +0.000 HD
ENDBRANCH  31  33
ENDBRANCH  10  31
TORSDOF 7
ENDMDL
