MODEL 1
REMARK VINA RESULT:      -8.1      0.000      0.000
REMARK  Name = 
REMARK  2 active torsions:
REMARK  status: ('A' for Active; 'I' for Inactive)
REMARK    1  A    between atoms: C_2  and  C_3
REMARK    2  A    between atoms: C_6  and  O_7
REMARK                            x       y       z     vdW  Elec       q    Type
REMARK                         _______ _______ _______ _____ _____    ______ ____
ROOT
ATOM      1  O   UNL     1       4.180   6.935  17.305  0.00  0.00    +0.000 OA
ATOM      2  C   UNL     1       3.474   6.348  18.126  0.00  0.00    +0.000 C 
ATOM      3  N   UNL     1       2.563   7.024  18.953  0.00  0.00    +0.000 N 
ATOM      4  C   UNL     1       1.823   6.384  20.065  0.00  0.00    +0.000 C 
ATOM      5  C   UNL     1       1.600   7.290  21.279  0.00  0.00    +0.000 C 
ATOM      6  C   UNL     1       1.076   8.592  20.816  0.00  0.00    +0.000 A 
ATOM      7  C   UNL     1       1.337   9.051  19.543  0.00  0.00    +0.000 A 
ATOM      8  N   UNL     1       0.725  10.270  19.415  0.00  0.00    +0.000 N 
ATOM      9  C   UNL     1       0.068  10.595  20.587  0.00  0.00    +0.000 A 
ATOM     10  C   UNL     1      -0.684  11.724  20.933  0.00  0.00    +0.000 A 
ATOM     11  C   UNL     1      -1.239  11.766  22.218  0.00  0.00    +0.000 A 
ATOM     12  C   UNL     1      -1.057  10.722  23.123  0.00  0.00    +0.000 A 
ATOM     13  C   UNL     1      -0.305   9.605  22.766  0.00  0.00    +0.000 A 
ATOM     14  C   UNL     1       0.273   9.542  21.483  0.00  0.00    +0.000 A 
ATOM     15  C   UNL     1       2.111   8.348  18.479  0.00  0.00    +0.000 C 
ATOM     16  H   UNL     1       0.736  10.854  18.590  0.00  0.00    +0.000 HD
ENDROOT
BRANCH   2  17
ATOM     17  C   UNL     1       3.585   4.863  18.199  0.00  0.00    +0.000 A 
ATOM     18  C   UNL     1       2.738   4.063  17.417  0.00  0.00    +0.000 A 
ATOM     19  C   UNL     1       2.827   2.666  17.493  0.00  0.00    +0.000 A 
ATOM     20  C   UNL     1       3.770   2.081  18.333  0.00  0.00    +0.000 A 
ATOM     21  C   UNL     1       4.594   2.861  19.128  0.00  0.00    +0.000 A 
ATOM     22  C   UNL     1       4.465   4.248  19.097  0.00  0.00    +0.000 A 
BRANCH  20  23
ATOM     23  O   UNL     1       3.911   0.731  18.428  0.00  0.00    +0.000 OA
ATOM     24  H   UNL     1       3.614   0.444  19.305  0.00  0.00    +0.000 HD
ENDBRANCH  20  23
ENDBRANCH   2  17
TORSDOF 2
ENDMDL
MODEL 2
REMARK VINA RESULT:      -8.0      2.501      3.454
REMARK  Name = 
REMARK  2 active torsions:
REMARK  status: ('A' for Active; 'I' for Inactive)
REMARK    1  A    between atoms: C_2  and  C_3
REMARK    2  A    between atoms: C_6  and  O_7
REMARK                            x       y       z     vdW  Elec       q    Type
REMARK                         _______ _______ _______ _____ _____    ______ ____
ROOT
ATOM      1  O   UNL     1       3.838   3.658  18.332  0.00  0.00    +0.000 OA
ATOM      2  C   UNL     1       4.088   4.780  17.888  0.00  0.00    +0.000 C 
ATOM      3  N   UNL     1       3.480   5.940  18.390  0.00  0.00    +0.000 N 
ATOM      4  C   UNL     1       3.623   7.281  17.777  0.00  0.00    +0.000 C 
ATOM      5  C   UNL     1       2.366   8.152  17.864  0.00  0.00    +0.000 C 
ATOM      6  C   UNL     1       1.859   8.125  19.252  0.00  0.00    +0.000 A 
ATOM      7  C   UNL     1       2.123   7.059  20.084  0.00  0.00    +0.000 A 
ATOM      8  N   UNL     1       1.525   7.323  21.289  0.00  0.00    +0.000 N 
ATOM      9  C   UNL     1       0.889   8.549  21.241  0.00  0.00    +0.000 A 
ATOM     10  C   UNL     1       0.150   9.236  22.213  0.00  0.00    +0.000 A 
ATOM     11  C   UNL     1      -0.379  10.484  21.865  0.00  0.00    +0.000 A 
ATOM     12  C   UNL     1      -0.176  11.032  20.599  0.00  0.00    +0.000 A 
ATOM     13  C   UNL     1       0.560  10.338  19.642  0.00  0.00    +0.000 A 
ATOM     14  C   UNL     1       1.094   9.074  19.963  0.00  0.00    +0.000 A 
ATOM     15  C   UNL     1       2.934   5.850  19.761  0.00  0.00    +0.000 C 
ATOM     16  H   UNL     1       1.545   6.725  22.103  0.00  0.00    +0.000 HD
ENDROOT
BRANCH   2  17
ATOM     17  C   UNL     1       5.104   4.883  16.801  0.00  0.00    +0.000 A 
ATOM     18  C   UNL     1       4.780   4.459  15.503  0.00  0.00    +0.000 A 
ATOM     19  C   UNL     1       5.735   4.539  14.481  0.00  0.00    +0.000 A 
ATOM     20  C   UNL     1       6.997   5.056  14.758  0.00  0.00    +0.000 A 
ATOM     21  C   UNL     1       7.337   5.454  16.041  0.00  0.00    +0.000 A 
ATOM     22  C   UNL     1       6.407   5.319  17.069  0.00  0.00    +0.000 A 
BRANCH  20  23
ATOM     23  O   UNL     1       7.953   5.174  13.797  0.00  0.00    +0.000 OA
ATOM     24  H   UNL     1       7.658   4.708  13.000  0.00  0.00    +0.000 HD
ENDBRANCH  20  23
ENDBRANCH   2  17
TORSDOF 2
ENDMDL
MODEL 3
REMARK VINA RESULT:      -8.0      0.805      1.327
REMARK  Name = 
REMARK  2 active torsions:
REMARK  status: ('A' for Active; 'I' for Inactive)
REMARK    1  A    between atoms: C_2  and  C_3
REMARK    2  A    between atoms: C_6  and  O_7
REMARK                            x       y       z     vdW  Elec       q    Type
REMARK                         _______ _______ _______ _____ _____    ______ ____
ROOT
ATOM      1  O   UNL     1       3.748   7.672  17.252  0.00  0.00    +0.000 OA
ATOM      2  C   UNL     1       3.170   7.095  18.173  0.00  0.00    +0.000 C 
ATOM      3  N   UNL     1       2.246   7.745  19.006  0.00  0.00    +0.000 N 
ATOM      4  C   UNL     1       1.659   7.138  20.223  0.00  0.00    +0.000 C 
ATOM      5  C   UNL     1       1.417   8.127  21.367  0.00  0.00    +0.000 C 
ATOM      6  C   UNL     1       0.719   9.316  20.834  0.00  0.00    +0.000 A 
ATOM      7  C   UNL     1       0.840   9.677  19.510  0.00  0.00    +0.000 A 
ATOM      8  N   UNL     1       0.087  10.806  19.324  0.00  0.00    +0.000 N 
ATOM      9  C   UNL     1      -0.522  11.169  20.511  0.00  0.00    +0.000 A 
ATOM     10  C   UNL     1      -1.372  12.239  20.814  0.00  0.00    +0.000 A 
ATOM     11  C   UNL     1      -1.841  12.344  22.129  0.00  0.00    +0.000 A 
ATOM     12  C   UNL     1      -1.482  11.416  23.104  0.00  0.00    +0.000 A 
ATOM     13  C   UNL     1      -0.634  10.356  22.790  0.00  0.00    +0.000 A 
ATOM     14  C   UNL     1      -0.139  10.234  21.476  0.00  0.00    +0.000 A 
ATOM     15  C   UNL     1       1.616   8.963  18.455  0.00  0.00    +0.000 C 
ATOM     16  H   UNL     1      -0.023  11.307  18.453  0.00  0.00    +0.000 HD
ENDROOT
BRANCH   2  17
ATOM     17  C   UNL     1       3.453   5.643  18.367  0.00  0.00    +0.000 A 
ATOM     18  C   UNL     1       4.603   5.247  19.067  0.00  0.00    +0.000 A 
ATOM     19  C   UNL     1       4.883   3.884  19.239  0.00  0.00    +0.000 A 
ATOM     20  C   UNL     1       4.007   2.932  18.728  0.00  0.00    +0.000 A 
ATOM     21  C   UNL     1       2.882   3.311  18.014  0.00  0.00    +0.000 A 
ATOM     22  C   UNL     1       2.635   4.664  17.792  0.00  0.00    +0.000 A 
BRANCH  20  23
ATOM     23  O   UNL     1       4.222   1.597  18.886  0.00  0.00    +0.000 OA
ATOM     24  H   UNL     1       5.173   1.422  18.821  0.00  0.00    +0.000 HD
ENDBRANCH  20  23
ENDBRANCH   2  17
TORSDOF 2
ENDMDL
MODEL 4
REMARK VINA RESULT:      -7.9      2.495      3.595
REMARK  Name = 
REMARK  2 active torsions:
REMARK  status: ('A' for Active; 'I' for Inactive)
REMARK    1  A    between atoms: C_2  and  C_3
REMARK    2  A    between atoms: C_6  and  O_7
REMARK                            x       y       z     vdW  Elec       q    Type
REMARK                         _______ _______ _______ _____ _____    ______ ____
ROOT
ATOM      1  O   UNL     1       3.814   3.646  18.334  0.00  0.00    +0.000 OA
ATOM      2  C   UNL     1       4.076   4.768  17.899  0.00  0.00    +0.000 C 
ATOM      3  N   UNL     1       3.472   5.930  18.403  0.00  0.00    +0.000 N 
ATOM      4  C   UNL     1       3.630   7.273  17.798  0.00  0.00    +0.000 C 
ATOM      5  C   UNL     1       2.379   8.153  17.879  0.00  0.00    +0.000 C 
ATOM      6  C   UNL     1       1.860   8.121  19.263  0.00  0.00    +0.000 A 
ATOM      7  C   UNL     1       2.109   7.049  20.091  0.00  0.00    +0.000 A 
ATOM      8  N   UNL     1       1.503   7.311  21.292  0.00  0.00    +0.000 N 
ATOM      9  C   UNL     1       0.876   8.542  21.246  0.00  0.00    +0.000 A 
ATOM     10  C   UNL     1       0.134   9.228  22.216  0.00  0.00    +0.000 A 
ATOM     11  C   UNL     1      -0.383  10.483  21.870  0.00  0.00    +0.000 A 
ATOM     12  C   UNL     1      -0.165  11.036  20.610  0.00  0.00    +0.000 A 
ATOM     13  C   UNL     1       0.575  10.342  19.655  0.00  0.00    +0.000 A 
ATOM     14  C   UNL     1       1.097   9.073  19.973  0.00  0.00    +0.000 A 
ATOM     15  C   UNL     1       2.914   5.836  19.768  0.00  0.00    +0.000 C 
ATOM     16  H   UNL     1       1.511   6.707  22.103  0.00  0.00    +0.000 HD
ENDROOT
BRANCH   2  17
ATOM     17  C   UNL     1       5.103   4.870  16.822  0.00  0.00    +0.000 A 
ATOM     18  C   UNL     1       6.381   5.365  17.123  0.00  0.00    +0.000 A 
ATOM     19  C   UNL     1       7.345   5.477  16.112  0.00  0.00    +0.000 A 
ATOM     20  C   UNL     1       7.032   5.080  14.816  0.00  0.00    +0.000 A 
ATOM     21  C   UNL     1       5.766   4.613  14.501  0.00  0.00    +0.000 A 
ATOM     22  C   UNL     1       4.790   4.556  15.494  0.00  0.00    +0.000 A 
BRANCH  20  23
ATOM     23  O   UNL     1       7.938   5.150  13.803  0.00  0.00    +0.000 OA
ATOM     24  H   UNL     1       8.691   5.689  14.091  0.00  0.00    +0.000 HD
ENDBRANCH  20  23
ENDBRANCH   2  17
TORSDOF 2
ENDMDL
MODEL 5
REMARK VINA RESULT:      -7.7      2.239      3.280
REMARK  Name = 
REMARK  2 active torsions:
REMARK  status: ('A' for Active; 'I' for Inactive)
REMARK    1  A    between atoms: C_2  and  C_3
REMARK    2  A    between atoms: C_6  and  O_7
REMARK                            x       y       z     vdW  Elec       q    Type
REMARK                         _______ _______ _______ _____ _____    ______ ____
ROOT
ATOM      1  O   UNL     1       3.458   4.438  19.186  0.00  0.00    +0.000 OA
ATOM      2  C   UNL     1       3.705   5.462  18.549  0.00  0.00    +0.000 C 
ATOM      3  N   UNL     1       3.042   6.675  18.789  0.00  0.00    +0.000 N 
ATOM      4  C   UNL     1       3.186   7.879  17.938  0.00  0.00    +0.000 C 
ATOM      5  C   UNL     1       1.905   8.707  17.794  0.00  0.00    +0.000 C 
ATOM      6  C   UNL     1       1.322   8.926  19.134  0.00  0.00    +0.000 A 
ATOM      7  C   UNL     1       1.566   8.047  20.168  0.00  0.00    +0.000 A 
ATOM      8  N   UNL     1       0.896   8.515  21.268  0.00  0.00    +0.000 N 
ATOM      9  C   UNL     1       0.233   9.687  20.955  0.00  0.00    +0.000 A 
ATOM     10  C   UNL     1      -0.575  10.519  21.739  0.00  0.00    +0.000 A 
ATOM     11  C   UNL     1      -1.114  11.660  21.133  0.00  0.00    +0.000 A 
ATOM     12  C   UNL     1      -0.854  11.964  19.798  0.00  0.00    +0.000 A 
ATOM     13  C   UNL     1      -0.049  11.127  19.029  0.00  0.00    +0.000 A 
ATOM     14  C   UNL     1       0.497   9.967  19.612  0.00  0.00    +0.000 A 
ATOM     15  C   UNL     1       2.423   6.828  20.122  0.00  0.00    +0.000 C 
ATOM     16  H   UNL     1       0.884   8.082  22.181  0.00  0.00    +0.000 HD
ENDROOT
BRANCH   2  17
ATOM     17  C   UNL     1       4.778   5.393  17.514  0.00  0.00    +0.000 A 
ATOM     18  C   UNL     1       6.023   5.989  17.763  0.00  0.00    +0.000 A 
ATOM     19  C   UNL     1       7.030   5.940  16.789  0.00  0.00    +0.000 A 
ATOM     20  C   UNL     1       6.792   5.284  15.586  0.00  0.00    +0.000 A 
ATOM     21  C   UNL     1       5.558   4.713  15.319  0.00  0.00    +0.000 A 
ATOM     22  C   UNL     1       4.538   4.813  16.264  0.00  0.00    +0.000 A 
BRANCH  20  23
ATOM     23  O   UNL     1       7.743   5.191  14.617  0.00  0.00    +0.000 OA
ATOM     24  H   UNL     1       7.977   6.083  14.319  0.00  0.00    +0.000 HD
ENDBRANCH  20  23
ENDBRANCH   2  17
TORSDOF 2
ENDMDL
MODEL 6
REMARK VINA RESULT:      -7.6      2.006      2.912
REMARK  Name = 
REMARK  2 active torsions:
REMARK  status: ('A' for Active; 'I' for Inactive)
REMARK    1  A    between atoms: C_2  and  C_3
REMARK    2  A    between atoms: C_6  and  O_7
REMARK                            x       y       z     vdW  Elec       q    Type
REMARK                         _______ _______ _______ _____ _____    ______ ____
ROOT
ATOM      1  O   UNL     1       2.882   4.667  19.976  0.00  0.00    +0.000 OA
ATOM      2  C   UNL     1       3.291   5.569  19.243  0.00  0.00    +0.000 C 
ATOM      3  N   UNL     1       2.707   6.845  19.226  0.00  0.00    +0.000 N 
ATOM      4  C   UNL     1       3.054   7.899  18.245  0.00  0.00    +0.000 C 
ATOM      5  C   UNL     1       1.875   8.780  17.821  0.00  0.00    +0.000 C 
ATOM      6  C   UNL     1       1.154   9.231  19.030  0.00  0.00    +0.000 A 
ATOM      7  C   UNL     1       1.195   8.498  20.196  0.00  0.00    +0.000 A 
ATOM      8  N   UNL     1       0.438   9.165  21.124  0.00  0.00    +0.000 N 
ATOM      9  C   UNL     1      -0.080  10.320  20.569  0.00  0.00    +0.000 A 
ATOM     10  C   UNL     1      -0.905  11.309  21.119  0.00  0.00    +0.000 A 
ATOM     11  C   UNL     1      -1.269  12.382  20.296  0.00  0.00    +0.000 A 
ATOM     12  C   UNL     1      -0.824  12.470  18.978  0.00  0.00    +0.000 A 
ATOM     13  C   UNL     1      -0.005  11.478  18.444  0.00  0.00    +0.000 A 
ATOM     14  C   UNL     1       0.367  10.382  19.247  0.00  0.00    +0.000 A 
ATOM     15  C   UNL     1       1.946   7.232  20.432  0.00  0.00    +0.000 C 
ATOM     16  H   UNL     1       0.280   8.873  22.078  0.00  0.00    +0.000 HD
ENDROOT
BRANCH   2  17
ATOM     17  C   UNL     1       4.471   5.278  18.379  0.00  0.00    +0.000 A 
ATOM     18  C   UNL     1       4.276   4.806  17.072  0.00  0.00    +0.000 A 
ATOM     19  C   UNL     1       5.381   4.516  16.260  0.00  0.00    +0.000 A 
ATOM     20  C   UNL     1       6.667   4.716  16.752  0.00  0.00    +0.000 A 
ATOM     21  C   UNL     1       6.872   5.158  18.049  0.00  0.00    +0.000 A 
ATOM     22  C   UNL     1       5.774   5.389  18.876  0.00  0.00    +0.000 A 
BRANCH  20  23
ATOM     23  O   UNL     1       7.773   4.469  15.997  0.00  0.00    +0.000 OA
ATOM     24  H   UNL     1       7.610   3.688  15.446  0.00  0.00    +0.000 HD
ENDBRANCH  20  23
ENDBRANCH   2  17
TORSDOF 2
ENDMDL
MODEL 7
REMARK VINA RESULT:      -7.5      1.898      2.902
REMARK  Name = 
REMARK  2 active torsions:
REMARK  status: ('A' for Active; 'I' for Inactive)
REMARK    1  A    between atoms: C_2  and  C_3
REMARK    2  A    between atoms: C_6  and  O_7
REMARK                            x       y       z     vdW  Elec       q    Type
REMARK                         _______ _______ _______ _____ _____    ______ ____
ROOT
ATOM      1  O   UNL     1       2.002   5.265  20.839  0.00  0.00    +0.000 OA
ATOM      2  C   UNL     1       2.418   5.948  19.902  0.00  0.00    +0.000 C 
ATOM      3  N   UNL     1       2.035   7.286  19.719  0.00  0.00    +0.000 N 
ATOM      4  C   UNL     1       2.375   8.086  18.520  0.00  0.00    +0.000 C 
ATOM      5  C   UNL     1       1.288   9.077  18.094  0.00  0.00    +0.000 C 
ATOM      6  C   UNL     1       0.843   9.841  19.279  0.00  0.00    +0.000 A 
ATOM      7  C   UNL     1       0.960   9.316  20.548  0.00  0.00    +0.000 A 
ATOM      8  N   UNL     1       0.468  10.248  21.422  0.00  0.00    +0.000 N 
ATOM      9  C   UNL     1       0.045  11.368  20.731  0.00  0.00    +0.000 A 
ATOM     10  C   UNL     1      -0.525  12.563  21.186  0.00  0.00    +0.000 A 
ATOM     11  C   UNL     1      -0.851  13.532  20.229  0.00  0.00    +0.000 A 
ATOM     12  C   UNL     1      -0.613  13.322  18.872  0.00  0.00    +0.000 A 
ATOM     13  C   UNL     1      -0.046  12.128  18.433  0.00  0.00    +0.000 A 
ATOM     14  C   UNL     1       0.281  11.132  19.374  0.00  0.00    +0.000 A 
ATOM     15  C   UNL     1       1.542   7.993  20.919  0.00  0.00    +0.000 C 
ATOM     16  H   UNL     1       0.421  10.150  22.427  0.00  0.00    +0.000 HD
ENDROOT
BRANCH   2  17
ATOM     17  C   UNL     1       3.390   5.317  18.964  0.00  0.00    +0.000 A 
ATOM     18  C   UNL     1       4.766   5.401  19.226  0.00  0.00    +0.000 A 
ATOM     19  C   UNL     1       5.685   4.822  18.340  0.00  0.00    +0.000 A 
ATOM     20  C   UNL     1       5.223   4.152  17.211  0.00  0.00    +0.000 A 
ATOM     21  C   UNL     1       3.868   4.084  16.929  0.00  0.00    +0.000 A 
ATOM     22  C   UNL     1       2.959   4.710  17.778  0.00  0.00    +0.000 A 
BRANCH  20  23
ATOM     23  O   UNL     1       6.073   3.557  16.331  0.00  0.00    +0.000 OA
ATOM     24  H   UNL     1       6.617   4.238  15.908  0.00  0.00    +0.000 HD
ENDBRANCH  20  23
ENDBRANCH   2  17
TORSDOF 2
ENDMDL
MODEL 8
REMARK VINA RESULT:      -7.4      2.852      8.192
REMARK  Name = 
REMARK  2 active torsions:
REMARK  status: ('A' for Active; 'I' for Inactive)
REMARK    1  A    between atoms: C_2  and  C_3
REMARK    2  A    between atoms: C_6  and  O_7
REMARK                            x       y       z     vdW  Elec       q    Type
REMARK                         _______ _______ _______ _____ _____    ______ ____
ROOT
ATOM      1  O   UNL     1       1.161   8.421  21.754  0.00  0.00    +0.000 OA
ATOM      2  C   UNL     1       1.174   8.839  20.596  0.00  0.00    +0.000 C 
ATOM      3  N   UNL     1       1.858   8.176  19.566  0.00  0.00    +0.000 N 
ATOM      4  C   UNL     1       2.041   8.730  18.204  0.00  0.00    +0.000 C 
ATOM      5  C   UNL     1       3.383   8.381  17.555  0.00  0.00    +0.000 C 
ATOM      6  C   UNL     1       3.624   6.930  17.702  0.00  0.00    +0.000 A 
ATOM      7  C   UNL     1       3.050   6.215  18.731  0.00  0.00    +0.000 A 
ATOM      8  N   UNL     1       3.457   4.913  18.601  0.00  0.00    +0.000 N 
ATOM      9  C   UNL     1       4.277   4.783  17.496  0.00  0.00    +0.000 A 
ATOM     10  C   UNL     1       4.930   3.662  16.967  0.00  0.00    +0.000 A 
ATOM     11  C   UNL     1       5.703   3.845  15.814  0.00  0.00    +0.000 A 
ATOM     12  C   UNL     1       5.818   5.094  15.207  0.00  0.00    +0.000 A 
ATOM     13  C   UNL     1       5.164   6.201  15.744  0.00  0.00    +0.000 A 
ATOM     14  C   UNL     1       4.389   6.047  16.911  0.00  0.00    +0.000 A 
ATOM     15  C   UNL     1       2.129   6.740  19.781  0.00  0.00    +0.000 C 
ATOM     16  H   UNL     1       3.199   4.149  19.210  0.00  0.00    +0.000 HD
ENDROOT
BRANCH   2  17
ATOM     17  C   UNL     1       0.397  10.077  20.298  0.00  0.00    +0.000 A 
ATOM     18  C   UNL     1       0.817  11.306  20.828  0.00  0.00    +0.000 A 
ATOM     19  C   UNL     1       0.083  12.471  20.564  0.00  0.00    +0.000 A 
ATOM     20  C   UNL     1      -1.051  12.402  19.761  0.00  0.00    +0.000 A 
ATOM     21  C   UNL     1      -1.489  11.189  19.253  0.00  0.00    +0.000 A 
ATOM     22  C   UNL     1      -0.793  10.023  19.563  0.00  0.00    +0.000 A 
BRANCH  20  23
ATOM     23  O   UNL     1      -1.786  13.505  19.458  0.00  0.00    +0.000 OA
ATOM     24  H   UNL     1      -1.336  14.290  19.807  0.00  0.00    +0.000 HD
ENDBRANCH  20  23
ENDBRANCH   2  17
TORSDOF 2
ENDMDL
MODEL 9
REMARK VINA RESULT:      -7.4      2.854      8.134
REMARK  Name = 
REMARK  2 active torsions:
REMARK  status: ('A' for Active; 'I' for Inactive)
REMARK    1  A    between atoms: C_2  and  C_3
REMARK    2  A    between atoms: C_6  and  O_7
REMARK                            x       y       z     vdW  Elec       q    Type
REMARK                         _______ _______ _______ _____ _____    ______ ____
ROOT
ATOM      1  O   UNL     1       1.144   8.513  21.773  0.00  0.00    +0.000 OA
ATOM      2  C   UNL     1       1.155   8.917  20.609  0.00  0.00    +0.000 C 
ATOM      3  N   UNL     1       1.837   8.240  19.586  0.00  0.00    +0.000 N 
ATOM      4  C   UNL     1       2.018   8.778  18.217  0.00  0.00    +0.000 C 
ATOM      5  C   UNL     1       3.358   8.418  17.570  0.00  0.00    +0.000 C 
ATOM      6  C   UNL     1       3.597   6.968  17.735  0.00  0.00    +0.000 A 
ATOM      7  C   UNL     1       3.024   6.267  18.774  0.00  0.00    +0.000 A 
ATOM      8  N   UNL     1       3.429   4.963  18.659  0.00  0.00    +0.000 N 
ATOM      9  C   UNL     1       4.247   4.818  17.554  0.00  0.00    +0.000 A 
ATOM     10  C   UNL     1       4.896   3.690  17.038  0.00  0.00    +0.000 A 
ATOM     11  C   UNL     1       5.668   3.857  15.881  0.00  0.00    +0.000 A 
ATOM     12  C   UNL     1       5.784   5.099  15.259  0.00  0.00    +0.000 A 
ATOM     13  C   UNL     1       5.133   6.213  15.783  0.00  0.00    +0.000 A 
ATOM     14  C   UNL     1       4.359   6.074  16.953  0.00  0.00    +0.000 A 
ATOM     15  C   UNL     1       2.106   6.806  19.818  0.00  0.00    +0.000 C 
ATOM     16  H   UNL     1       3.170   4.207  19.277  0.00  0.00    +0.000 HD
ENDROOT
BRANCH   2  17
ATOM     17  C   UNL     1       0.380  10.152  20.297  0.00  0.00    +0.000 A 
ATOM     18  C   UNL     1      -0.812  10.058  19.564  0.00  0.00    +0.000 A 
ATOM     19  C   UNL     1      -1.538  11.217  19.254  0.00  0.00    +0.000 A 
ATOM     20  C   UNL     1      -1.077  12.454  19.693  0.00  0.00    +0.000 A 
ATOM     21  C   UNL     1       0.112  12.562  20.396  0.00  0.00    +0.000 A 
ATOM     22  C   UNL     1       0.863  11.417  20.653  0.00  0.00    +0.000 A 
BRANCH  20  23
ATOM     23  O   UNL     1      -1.754  13.606  19.436  0.00  0.00    +0.000 OA
ATOM     24  H   UNL     1      -1.142  14.252  19.051  0.00  0.00    +0.000 HD
ENDBRANCH  20  23
ENDBRANCH   2  17
TORSDOF 2
ENDMDL
