MODEL 1
REMARK VINA RESULT:      -7.8      0.000      0.000
REMARK  Name = 
REMARK  6 active torsions:
REMARK  status: ('A' for Active; 'I' for Inactive)
REMARK    1  A    between atoms: C_1  and  C_2
REMARK    2  A    between atoms: C_2  and  C_3
REMARK    3  A    between atoms: C_8  and  N_9
REMARK    4  A    between atoms: N_9  and  N_10
REMARK    5  A    between atoms: C_18  and  S_19
REMARK    6  A    between atoms: S_19  and  O_22
REMARK                            x       y       z     vdW  Elec       q    Type
REMARK                         _______ _______ _______ _____ _____    ______ ____
ROOT
ATOM      1  N   UNL     1       2.307   7.623  19.864  0.00  0.00    +0.000 NA
ATOM      2  C   UNL     1       2.572   6.374  19.575  0.00  0.00    +0.000 C 
ATOM      3  C   UNL     1       1.879   5.172  20.271  0.00  0.00    +0.000 C 
ATOM      4  O   UNL     1       0.790   5.179  20.799  0.00  0.00    +0.000 OA
ATOM      5  N   UNL     1       2.696   4.100  20.052  0.00  0.00    +0.000 N 
ATOM      6  C   UNL     1       3.567   4.385  19.014  0.00  0.00    +0.000 A 
ATOM      7  C   UNL     1       4.245   3.410  18.310  0.00  0.00    +0.000 A 
ATOM      8  C   UNL     1       4.928   3.816  17.174  0.00  0.00    +0.000 A 
ATOM      9  C   UNL     1       4.946   5.179  16.807  0.00  0.00    +0.000 A 
ATOM     10  C   UNL     1       4.288   6.180  17.563  0.00  0.00    +0.000 A 
ATOM     11  C   UNL     1       3.564   5.749  18.663  0.00  0.00    +0.000 A 
ATOM     12  H   UNL     1       2.494   3.184  20.423  0.00  0.00    +0.000 HD
ENDROOT
BRANCH   9  13
ATOM     13  S   UNL     1       5.716   5.544  15.246  0.00  0.00    +0.000 S 
ATOM     14  O   UNL     1       5.612   4.377  14.398  0.00  0.00    +0.000 OA
ATOM     15  O   UNL     1       5.276   6.848  14.829  0.00  0.00    +0.000 OA
BRANCH  13  16
ATOM     16  O   UNL     1       7.298   5.656  15.620  0.00  0.00    +0.000 OA
ATOM     17  H   UNL     1       7.736   4.826  15.329  0.00  0.00    +0.000 HD
ENDBRANCH  13  16
ENDBRANCH   9  13
BRANCH   1  18
ATOM     18  N   UNL     1       1.227   7.734  20.707  0.00  0.00    +0.000 N 
ATOM     19  H   UNL     1       0.855   6.875  21.130  0.00  0.00    +0.000 HD
BRANCH  18  25
ATOM     20  C   UNL     1      -0.009   9.911  20.358  0.00  0.00    +0.000 A 
ATOM     21  C   UNL     1      -0.741  10.952  20.983  0.00  0.00    +0.000 A 
ATOM     22  C   UNL     1      -0.938  10.994  22.364  0.00  0.00    +0.000 A 
ATOM     23  C   UNL     1      -0.391   9.998  23.153  0.00  0.00    +0.000 A 
ATOM     24  C   UNL     1       0.317   8.959  22.545  0.00  0.00    +0.000 A 
ATOM     25  C   UNL     1       0.503   8.868  21.138  0.00  0.00    +0.000 A 
BRANCH  20  27
ATOM     26  C   UNL     1      -1.075  10.266  18.142  0.00  0.00    +0.000 C 
ATOM     27  C   UNL     1       0.239  10.045  18.879  0.00  0.00    +0.000 C 
ENDBRANCH  20  27
ENDBRANCH  18  25
ENDBRANCH   1  18
TORSDOF 5
ENDMDL
MODEL 2
REMARK VINA RESULT:      -7.6      0.781      1.010
REMARK  Name = 
REMARK  6 active torsions:
REMARK  status: ('A' for Active; 'I' for Inactive)
REMARK    1  A    between atoms: C_1  and  C_2
REMARK    2  A    between atoms: C_2  and  C_3
REMARK    3  A    between atoms: C_8  and  N_9
REMARK    4  A    between atoms: N_9  and  N_10
REMARK    5  A    between atoms: C_18  and  S_19
REMARK    6  A    between atoms: S_19  and  O_22
REMARK                            x       y       z     vdW  Elec       q    Type
REMARK                         _______ _______ _______ _____ _____    ______ ____
ROOT
ATOM      1  N   UNL     1       2.332   7.701  19.791  0.00  0.00    +0.000 NA
ATOM      2  C   UNL     1       2.719   6.457  19.673  0.00  0.00    +0.000 C 
ATOM      3  C   UNL     1       1.969   5.265  20.326  0.00  0.00    +0.000 C 
ATOM      4  O   UNL     1       0.798   5.233  20.627  0.00  0.00    +0.000 OA
ATOM      5  N   UNL     1       2.873   4.242  20.369  0.00  0.00    +0.000 N 
ATOM      6  C   UNL     1       3.918   4.509  19.501  0.00  0.00    +0.000 A 
ATOM      7  C   UNL     1       4.778   3.534  19.034  0.00  0.00    +0.000 A 
ATOM      8  C   UNL     1       5.652   3.900  18.022  0.00  0.00    +0.000 A 
ATOM      9  C   UNL     1       5.666   5.228  17.544  0.00  0.00    +0.000 A 
ATOM     10  C   UNL     1       4.814   6.234  18.063  0.00  0.00    +0.000 A 
ATOM     11  C   UNL     1       3.908   5.838  19.034  0.00  0.00    +0.000 A 
ATOM     12  H   UNL     1       2.652   3.345  20.774  0.00  0.00    +0.000 HD
ENDROOT
BRANCH   9  13
ATOM     13  S   UNL     1       6.714   5.527  16.139  0.00  0.00    +0.000 S 
ATOM     14  O   UNL     1       7.689   4.461  16.057  0.00  0.00    +0.000 OA
ATOM     15  O   UNL     1       5.875   5.897  15.031  0.00  0.00    +0.000 OA
BRANCH  13  16
ATOM     16  O   UNL     1       7.566   6.846  16.573  0.00  0.00    +0.000 OA
ATOM     17  H   UNL     1       8.486   6.730  16.251  0.00  0.00    +0.000 HD
ENDBRANCH  13  16
ENDBRANCH   9  13
BRANCH   1  18
ATOM     18  N   UNL     1       1.099   7.798  20.391  0.00  0.00    +0.000 N 
ATOM     19  H   UNL     1       0.526   6.948  20.453  0.00  0.00    +0.000 HD
BRANCH  18  25
ATOM     20  C   UNL     1      -0.078  10.035  20.356  0.00  0.00    +0.000 A 
ATOM     21  C   UNL     1      -0.732  11.022  21.134  0.00  0.00    +0.000 A 
ATOM     22  C   UNL     1      -0.843  10.921  22.521  0.00  0.00    +0.000 A 
ATOM     23  C   UNL     1      -0.283   9.831  23.163  0.00  0.00    +0.000 A 
ATOM     24  C   UNL     1       0.349   8.844  22.404  0.00  0.00    +0.000 A 
ATOM     25  C   UNL     1       0.444   8.899  20.986  0.00  0.00    +0.000 A 
BRANCH  20  27
ATOM     26  C   UNL     1       1.390  11.056  18.631  0.00  0.00    +0.000 C 
ATOM     27  C   UNL     1       0.082  10.320  18.887  0.00  0.00    +0.000 C 
ENDBRANCH  20  27
ENDBRANCH  18  25
ENDBRANCH   1  18
TORSDOF 5
ENDMDL
MODEL 3
REMARK VINA RESULT:      -7.5      3.786      7.768
REMARK  Name = 
REMARK  6 active torsions:
REMARK  status: ('A' for Active; 'I' for Inactive)
REMARK    1  A    between atoms: C_1  and  C_2
REMARK    2  A    between atoms: C_2  and  C_3
REMARK    3  A    between atoms: C_8  and  N_9
REMARK    4  A    between atoms: N_9  and  N_10
REMARK    5  A    between atoms: C_18  and  S_19
REMARK    6  A    between atoms: S_19  and  O_22
REMARK                            x       y       z     vdW  Elec       q    Type
REMARK                         _______ _______ _______ _____ _____    ______ ____
ROOT
ATOM      1  N   UNL     1       3.279   6.701  17.382  0.00  0.00    +0.000 NA
ATOM      2  C   UNL     1       2.821   6.965  18.579  0.00  0.00    +0.000 C 
ATOM      3  C   UNL     1       3.047   6.037  19.803  0.00  0.00    +0.000 C 
ATOM      4  O   UNL     1       3.956   5.251  19.948  0.00  0.00    +0.000 OA
ATOM      5  N   UNL     1       2.089   6.385  20.710  0.00  0.00    +0.000 N 
ATOM      6  C   UNL     1       1.570   7.627  20.384  0.00  0.00    +0.000 A 
ATOM      7  C   UNL     1       0.878   8.415  21.283  0.00  0.00    +0.000 A 
ATOM      8  C   UNL     1       0.587   9.711  20.888  0.00  0.00    +0.000 A 
ATOM      9  C   UNL     1       0.958  10.160  19.602  0.00  0.00    +0.000 A 
ATOM     10  C   UNL     1       1.625   9.330  18.668  0.00  0.00    +0.000 A 
ATOM     11  C   UNL     1       1.957   8.056  19.100  0.00  0.00    +0.000 A 
ATOM     12  H   UNL     1       1.990   5.915  21.597  0.00  0.00    +0.000 HD
ENDROOT
BRANCH   9  13
ATOM     13  S   UNL     1       0.675  11.886  19.281  0.00  0.00    +0.000 S 
ATOM     14  O   UNL     1      -0.068  12.445  20.390  0.00  0.00    +0.000 OA
ATOM     15  O   UNL     1       1.907  12.456  18.808  0.00  0.00    +0.000 OA
BRANCH  13  16
ATOM     16  O   UNL     1      -0.372  11.874  18.033  0.00  0.00    +0.000 OA
ATOM     17  H   UNL     1      -0.239  12.700  17.519  0.00  0.00    +0.000 HD
ENDBRANCH  13  16
ENDBRANCH   9  13
BRANCH   1  18
ATOM     18  N   UNL     1       4.129   5.621  17.387  0.00  0.00    +0.000 N 
ATOM     19  H   UNL     1       3.991   4.902  18.108  0.00  0.00    +0.000 HD
BRANCH  18  25
ATOM     20  C   UNL     1       6.571   5.486  16.748  0.00  0.00    +0.000 A 
ATOM     21  C   UNL     1       7.500   5.045  15.772  0.00  0.00    +0.000 A 
ATOM     22  C   UNL     1       7.095   4.448  14.579  0.00  0.00    +0.000 A 
ATOM     23  C   UNL     1       5.743   4.294  14.328  0.00  0.00    +0.000 A 
ATOM     24  C   UNL     1       4.820   4.708  15.290  0.00  0.00    +0.000 A 
ATOM     25  C   UNL     1       5.203   5.285  16.533  0.00  0.00    +0.000 A 
BRANCH  20  27
ATOM     26  C   UNL     1       7.617   7.604  17.518  0.00  0.00    +0.000 C 
ATOM     27  C   UNL     1       7.128   6.224  17.936  0.00  0.00    +0.000 C 
ENDBRANCH  20  27
ENDBRANCH  18  25
ENDBRANCH   1  18
TORSDOF 5
ENDMDL
MODEL 4
REMARK VINA RESULT:      -7.5      2.214      2.643
REMARK  Name = 
REMARK  6 active torsions:
REMARK  status: ('A' for Active; 'I' for Inactive)
REMARK    1  A    between atoms: C_1  and  C_2
REMARK    2  A    between atoms: C_2  and  C_3
REMARK    3  A    between atoms: C_8  and  N_9
REMARK    4  A    between atoms: N_9  and  N_10
REMARK    5  A    between atoms: C_18  and  S_19
REMARK    6  A    between atoms: S_19  and  O_22
REMARK                            x       y       z     vdW  Elec       q    Type
REMARK                         _______ _______ _______ _____ _____    ______ ____
ROOT
ATOM      1  N   UNL     1       2.370   8.717  17.625  0.00  0.00    +0.000 NA
ATOM      2  C   UNL     1       2.840   7.634  18.189  0.00  0.00    +0.000 C 
ATOM      3  C   UNL     1       2.340   7.099  19.558  0.00  0.00    +0.000 C 
ATOM      4  O   UNL     1       1.256   7.302  20.054  0.00  0.00    +0.000 OA
ATOM      5  N   UNL     1       3.325   6.268  20.009  0.00  0.00    +0.000 N 
ATOM      6  C   UNL     1       4.157   5.921  18.958  0.00  0.00    +0.000 A 
ATOM      7  C   UNL     1       4.998   4.826  18.992  0.00  0.00    +0.000 A 
ATOM      8  C   UNL     1       5.626   4.479  17.806  0.00  0.00    +0.000 A 
ATOM      9  C   UNL     1       5.428   5.258  16.645  0.00  0.00    +0.000 A 
ATOM     10  C   UNL     1       4.601   6.408  16.631  0.00  0.00    +0.000 A 
ATOM     11  C   UNL     1       3.937   6.707  17.810  0.00  0.00    +0.000 A 
ATOM     12  H   UNL     1       3.270   5.800  20.901  0.00  0.00    +0.000 HD
ENDROOT
BRANCH   9  13
ATOM     13  S   UNL     1       6.157   4.615  15.155  0.00  0.00    +0.000 S 
ATOM     14  O   UNL     1       5.162   4.649  14.105  0.00  0.00    +0.000 OA
ATOM     15  O   UNL     1       7.459   5.207  15.009  0.00  0.00    +0.000 OA
BRANCH  13  16
ATOM     16  O   UNL     1       6.369   3.035  15.487  0.00  0.00    +0.000 OA
ATOM     17  H   UNL     1       5.588   2.547  15.145  0.00  0.00    +0.000 HD
ENDBRANCH  13  16
ENDBRANCH   9  13
BRANCH   1  18
ATOM     18  N   UNL     1       1.270   9.204  18.291  0.00  0.00    +0.000 N 
ATOM     19  H   UNL     1       0.696   8.539  18.823  0.00  0.00    +0.000 HD
BRANCH  18  25
ATOM     20  C   UNL     1      -0.574  10.927  18.421  0.00  0.00    +0.000 A 
ATOM     21  C   UNL     1      -0.878  12.303  18.574  0.00  0.00    +0.000 A 
ATOM     22  C   UNL     1       0.116  13.276  18.673  0.00  0.00    +0.000 A 
ATOM     23  C   UNL     1       1.443  12.892  18.602  0.00  0.00    +0.000 A 
ATOM     24  C   UNL     1       1.754  11.537  18.469  0.00  0.00    +0.000 A 
ATOM     25  C   UNL     1       0.764  10.518  18.404  0.00  0.00    +0.000 A 
BRANCH  20  27
ATOM     26  C   UNL     1      -2.167  10.019  16.743  0.00  0.00    +0.000 C 
ATOM     27  C   UNL     1      -1.734   9.993  18.203  0.00  0.00    +0.000 C 
ENDBRANCH  20  27
ENDBRANCH  18  25
ENDBRANCH   1  18
TORSDOF 5
ENDMDL
MODEL 5
REMARK VINA RESULT:      -7.4      4.172      8.186
REMARK  Name = 
REMARK  6 active torsions:
REMARK  status: ('A' for Active; 'I' for Inactive)
REMARK    1  A    between atoms: C_1  and  C_2
REMARK    2  A    between atoms: C_2  and  C_3
REMARK    3  A    between atoms: C_8  and  N_9
REMARK    4  A    between atoms: N_9  and  N_10
REMARK    5  A    between atoms: C_18  and  S_19
REMARK    6  A    between atoms: S_19  and  O_22
REMARK                            x       y       z     vdW  Elec       q    Type
REMARK                         _______ _______ _______ _____ _____    ______ ____
ROOT
ATOM      1  N   UNL     1       1.933   7.787  20.458  0.00  0.00    +0.000 NA
ATOM      2  C   UNL     1       1.498   8.828  19.794  0.00  0.00    +0.000 C 
ATOM      3  C   UNL     1       1.737   9.031  18.274  0.00  0.00    +0.000 C 
ATOM      4  O   UNL     1       1.937   8.161  17.457  0.00  0.00    +0.000 OA
ATOM      5  N   UNL     1       1.553  10.365  18.049  0.00  0.00    +0.000 N 
ATOM      6  C   UNL     1       0.868  10.926  19.113  0.00  0.00    +0.000 A 
ATOM      7  C   UNL     1       0.206  12.135  19.032  0.00  0.00    +0.000 A 
ATOM      8  C   UNL     1      -0.600  12.484  20.104  0.00  0.00    +0.000 A 
ATOM      9  C   UNL     1      -0.684  11.638  21.231  0.00  0.00    +0.000 A 
ATOM     10  C   UNL     1       0.036  10.422  21.328  0.00  0.00    +0.000 A 
ATOM     11  C   UNL     1       0.793  10.063  20.224  0.00  0.00    +0.000 A 
ATOM     12  H   UNL     1       1.675  10.780  17.137  0.00  0.00    +0.000 HD
ENDROOT
BRANCH   9  13
ATOM     13  S   UNL     1      -1.875  12.117  22.463  0.00  0.00    +0.000 S 
ATOM     14  O   UNL     1      -3.033  12.667  21.792  0.00  0.00    +0.000 OA
ATOM     15  O   UNL     1      -1.969  11.053  23.425  0.00  0.00    +0.000 OA
BRANCH  13  16
ATOM     16  O   UNL     1      -1.170  13.387  23.200  0.00  0.00    +0.000 OA
ATOM     17  H   UNL     1      -0.197  13.279  23.121  0.00  0.00    +0.000 HD
ENDBRANCH  13  16
ENDBRANCH   9  13
BRANCH   1  18
ATOM     18  N   UNL     1       2.451   6.828  19.621  0.00  0.00    +0.000 N 
ATOM     19  H   UNL     1       3.122   7.126  18.902  0.00  0.00    +0.000 HD
BRANCH  18  25
ATOM     20  C   UNL     1       2.730   4.519  18.631  0.00  0.00    +0.000 A 
ATOM     21  C   UNL     1       2.426   3.142  18.775  0.00  0.00    +0.000 A 
ATOM     22  C   UNL     1       1.618   2.665  19.806  0.00  0.00    +0.000 A 
ATOM     23  C   UNL     1       1.080   3.563  20.711  0.00  0.00    +0.000 A 
ATOM     24  C   UNL     1       1.388   4.920  20.588  0.00  0.00    +0.000 A 
ATOM     25  C   UNL     1       2.239   5.432  19.571  0.00  0.00    +0.000 A 
BRANCH  20  27
ATOM     26  C   UNL     1       4.403   3.775  16.950  0.00  0.00    +0.000 C 
ATOM     27  C   UNL     1       3.511   4.921  17.408  0.00  0.00    +0.000 C 
ENDBRANCH  20  27
ENDBRANCH  18  25
ENDBRANCH   1  18
TORSDOF 5
ENDMDL
MODEL 6
REMARK VINA RESULT:      -7.3      3.754      7.784
REMARK  Name = 
REMARK  6 active torsions:
REMARK  status: ('A' for Active; 'I' for Inactive)
REMARK    1  A    between atoms: C_1  and  C_2
REMARK    2  A    between atoms: C_2  and  C_3
REMARK    3  A    between atoms: C_8  and  N_9
REMARK    4  A    between atoms: N_9  and  N_10
REMARK    5  A    between atoms: C_18  and  S_19
REMARK    6  A    between atoms: S_19  and  O_22
REMARK                            x       y       z     vdW  Elec       q    Type
REMARK                         _______ _______ _______ _____ _____    ______ ____
ROOT
ATOM      1  N   UNL     1       3.355   6.689  17.383  0.00  0.00    +0.000 NA
ATOM      2  C   UNL     1       2.900   6.870  18.596  0.00  0.00    +0.000 C 
ATOM      3  C   UNL     1       3.139   5.866  19.756  0.00  0.00    +0.000 C 
ATOM      4  O   UNL     1       4.054   5.080  19.846  0.00  0.00    +0.000 OA
ATOM      5  N   UNL     1       2.182   6.147  20.688  0.00  0.00    +0.000 N 
ATOM      6  C   UNL     1       1.651   7.403  20.446  0.00  0.00    +0.000 A 
ATOM      7  C   UNL     1       0.957   8.124  21.397  0.00  0.00    +0.000 A 
ATOM      8  C   UNL     1       0.654   9.442  21.089  0.00  0.00    +0.000 A 
ATOM      9  C   UNL     1       1.016   9.976  19.834  0.00  0.00    +0.000 A 
ATOM     10  C   UNL     1       1.685   9.215  18.845  0.00  0.00    +0.000 A 
ATOM     11  C   UNL     1       2.030   7.918  19.191  0.00  0.00    +0.000 A 
ATOM     12  H   UNL     1       2.090   5.619  21.543  0.00  0.00    +0.000 HD
ENDROOT
BRANCH   9  13
ATOM     13  S   UNL     1       0.718  11.718  19.627  0.00  0.00    +0.000 S 
ATOM     14  O   UNL     1       1.573  12.207  18.567  0.00  0.00    +0.000 OA
ATOM     15  O   UNL     1      -0.705  11.927  19.633  0.00  0.00    +0.000 OA
BRANCH  13  16
ATOM     16  O   UNL     1       1.318  12.371  20.992  0.00  0.00    +0.000 OA
ATOM     17  H   UNL     1       1.582  13.296  20.794  0.00  0.00    +0.000 HD
ENDBRANCH  13  16
ENDBRANCH   9  13
BRANCH   1  18
ATOM     18  N   UNL     1       4.214   5.618  17.314  0.00  0.00    +0.000 N 
ATOM     19  H   UNL     1       4.116   4.877  18.018  0.00  0.00    +0.000 HD
BRANCH  18  25
ATOM     20  C   UNL     1       6.585   5.731  16.446  0.00  0.00    +0.000 A 
ATOM     21  C   UNL     1       7.482   5.294  15.440  0.00  0.00    +0.000 A 
ATOM     22  C   UNL     1       7.069   4.493  14.375  0.00  0.00    +0.000 A 
ATOM     23  C   UNL     1       5.739   4.124  14.287  0.00  0.00    +0.000 A 
ATOM     24  C   UNL     1       4.850   4.535  15.282  0.00  0.00    +0.000 A 
ATOM     25  C   UNL     1       5.248   5.320  16.400  0.00  0.00    +0.000 A 
BRANCH  20  27
ATOM     26  C   UNL     1       7.666   5.929  18.675  0.00  0.00    +0.000 C 
ATOM     27  C   UNL     1       7.126   6.691  17.472  0.00  0.00    +0.000 C 
ENDBRANCH  20  27
ENDBRANCH  18  25
ENDBRANCH   1  18
TORSDOF 5
ENDMDL
MODEL 7
REMARK VINA RESULT:      -7.3      1.150      2.276
REMARK  Name = 
REMARK  6 active torsions:
REMARK  status: ('A' for Active; 'I' for Inactive)
REMARK    1  A    between atoms: C_1  and  C_2
REMARK    2  A    between atoms: C_2  and  C_3
REMARK    3  A    between atoms: C_8  and  N_9
REMARK    4  A    between atoms: N_9  and  N_10
REMARK    5  A    between atoms: C_18  and  S_19
REMARK    6  A    between atoms: S_19  and  O_22
REMARK                            x       y       z     vdW  Elec       q    Type
REMARK                         _______ _______ _______ _____ _____    ______ ____
ROOT
ATOM      1  N   UNL     1       2.331   8.273  18.553  0.00  0.00    +0.000 NA
ATOM      2  C   UNL     1       2.801   7.101  18.895  0.00  0.00    +0.000 C 
ATOM      3  C   UNL     1       2.283   6.299  20.120  0.00  0.00    +0.000 C 
ATOM      4  O   UNL     1       1.188   6.392  20.627  0.00  0.00    +0.000 OA
ATOM      5  N   UNL     1       3.267   5.399  20.412  0.00  0.00    +0.000 N 
ATOM      6  C   UNL     1       4.119   5.274  19.328  0.00  0.00    +0.000 A 
ATOM      7  C   UNL     1       4.969   4.199  19.157  0.00  0.00    +0.000 A 
ATOM      8  C   UNL     1       5.620   4.101  17.937  0.00  0.00    +0.000 A 
ATOM      9  C   UNL     1       5.434   5.096  16.953  0.00  0.00    +0.000 A 
ATOM     10  C   UNL     1       4.598   6.222  17.155  0.00  0.00    +0.000 A 
ATOM     11  C   UNL     1       3.912   6.274  18.358  0.00  0.00    +0.000 A 
ATOM     12  H   UNL     1       3.200   4.761  21.191  0.00  0.00    +0.000 HD
ENDROOT
BRANCH   9  13
ATOM     13  S   UNL     1       6.194   4.769  15.378  0.00  0.00    +0.000 S 
ATOM     14  O   UNL     1       5.217   5.012  14.338  0.00  0.00    +0.000 OA
ATOM     15  O   UNL     1       7.494   5.382  15.378  0.00  0.00    +0.000 OA
BRANCH  13  16
ATOM     16  O   UNL     1       6.410   3.155  15.388  0.00  0.00    +0.000 OA
ATOM     17  H   UNL     1       7.080   2.936  14.705  0.00  0.00    +0.000 HD
ENDBRANCH  13  16
ENDBRANCH   9  13
BRANCH   1  18
ATOM     18  N   UNL     1       1.216   8.610  19.283  0.00  0.00    +0.000 N 
ATOM     19  H   UNL     1       0.603   7.851  19.605  0.00  0.00    +0.000 HD
BRANCH  18  25
ATOM     20  C   UNL     1       0.618  10.344  21.022  0.00  0.00    +0.000 A 
ATOM     21  C   UNL     1       0.139  11.659  21.243  0.00  0.00    +0.000 A 
ATOM     22  C   UNL     1      -0.256  12.490  20.195  0.00  0.00    +0.000 A 
ATOM     23  C   UNL     1      -0.196  12.014  18.898  0.00  0.00    +0.000 A 
ATOM     24  C   UNL     1       0.291  10.725  18.668  0.00  0.00    +0.000 A 
ATOM     25  C   UNL     1       0.737   9.868  19.711  0.00  0.00    +0.000 A 
BRANCH  20  27
ATOM     26  C   UNL     1      -0.285   9.561  23.201  0.00  0.00    +0.000 C 
ATOM     27  C   UNL     1       0.896   9.505  22.241  0.00  0.00    +0.000 C 
ENDBRANCH  20  27
ENDBRANCH  18  25
ENDBRANCH   1  18
TORSDOF 5
ENDMDL
MODEL 8
REMARK VINA RESULT:      -7.3      0.960      1.099
REMARK  Name = 
REMARK  6 active torsions:
REMARK  status: ('A' for Active; 'I' for Inactive)
REMARK    1  A    between atoms: C_1  and  C_2
REMARK    2  A    between atoms: C_2  and  C_3
REMARK    3  A    between atoms: C_8  and  N_9
REMARK    4  A    between atoms: N_9  and  N_10
REMARK    5  A    between atoms: C_18  and  S_19
REMARK    6  A    between atoms: S_19  and  O_22
REMARK                            x       y       z     vdW  Elec       q    Type
REMARK                         _______ _______ _______ _____ _____    ______ ____
ROOT
ATOM      1  N   UNL     1       2.092   8.262  19.278  0.00  0.00    +0.000 NA
ATOM      2  C   UNL     1       2.530   7.036  19.410  0.00  0.00    +0.000 C 
ATOM      3  C   UNL     1       1.951   6.030  20.440  0.00  0.00    +0.000 C 
ATOM      4  O   UNL     1       0.838   6.050  20.913  0.00  0.00    +0.000 OA
ATOM      5  N   UNL     1       2.909   5.069  20.594  0.00  0.00    +0.000 N 
ATOM      6  C   UNL     1       3.804   5.132  19.539  0.00  0.00    +0.000 A 
ATOM      7  C   UNL     1       4.644   4.090  19.199  0.00  0.00    +0.000 A 
ATOM      8  C   UNL     1       5.344   4.210  18.009  0.00  0.00    +0.000 A 
ATOM      9  C   UNL     1       5.213   5.377  17.225  0.00  0.00    +0.000 A 
ATOM     10  C   UNL     1       4.386   6.462  17.605  0.00  0.00    +0.000 A 
ATOM     11  C   UNL     1       3.651   6.302  18.769  0.00  0.00    +0.000 A 
ATOM     12  H   UNL     1       2.801   4.297  21.235  0.00  0.00    +0.000 HD
ENDROOT
BRANCH   9  13
ATOM     13  S   UNL     1       6.033   5.337  15.647  0.00  0.00    +0.000 S 
ATOM     14  O   UNL     1       6.273   3.955  15.288  0.00  0.00    +0.000 OA
ATOM     15  O   UNL     1       5.357   6.257  14.773  0.00  0.00    +0.000 OA
BRANCH  13  16
ATOM     16  O   UNL     1       7.506   5.953  15.968  0.00  0.00    +0.000 OA
ATOM     17  H   UNL     1       7.384   6.744  16.536  0.00  0.00    +0.000 HD
ENDBRANCH  13  16
ENDBRANCH   9  13
BRANCH   1  18
ATOM     18  N   UNL     1       0.953   8.480  20.016  0.00  0.00    +0.000 N 
ATOM     19  H   UNL     1       0.544   7.682  20.517  0.00  0.00    +0.000 HD
BRANCH  18  25
ATOM     20  C   UNL     1      -0.598  10.357  19.336  0.00  0.00    +0.000 A 
ATOM     21  C   UNL     1      -1.293  11.513  19.771  0.00  0.00    +0.000 A 
ATOM     22  C   UNL     1      -1.171  12.006  21.070  0.00  0.00    +0.000 A 
ATOM     23  C   UNL     1      -0.333  11.359  21.961  0.00  0.00    +0.000 A 
ATOM     24  C   UNL     1       0.342  10.209  21.547  0.00  0.00    +0.000 A 
ATOM     25  C   UNL     1       0.209   9.659  20.242  0.00  0.00    +0.000 A 
BRANCH  20  27
ATOM     26  C   UNL     1      -2.179   9.990  17.454  0.00  0.00    +0.000 C 
ATOM     27  C   UNL     1      -0.717   9.997  17.879  0.00  0.00    +0.000 C 
ENDBRANCH  20  27
ENDBRANCH  18  25
ENDBRANCH   1  18
TORSDOF 5
ENDMDL
MODEL 9
REMARK VINA RESULT:      -7.3      0.990      2.176
REMARK  Name = 
REMARK  6 active torsions:
REMARK  status: ('A' for Active; 'I' for Inactive)
REMARK    1  A    between atoms: C_1  and  C_2
REMARK    2  A    between atoms: C_2  and  C_3
REMARK    3  A    between atoms: C_8  and  N_9
REMARK    4  A    between atoms: N_9  and  N_10
REMARK    5  A    between atoms: C_18  and  S_19
REMARK    6  A    between atoms: S_19  and  O_22
REMARK                            x       y       z     vdW  Elec       q    Type
REMARK                         _______ _______ _______ _____ _____    ______ ____
ROOT
ATOM      1  N   UNL     1       2.151   8.482  19.047  0.00  0.00    +0.000 NA
ATOM      2  C   UNL     1       2.567   7.258  19.245  0.00  0.00    +0.000 C 
ATOM      3  C   UNL     1       2.000   6.334  20.356  0.00  0.00    +0.000 C 
ATOM      4  O   UNL     1       0.905   6.411  20.864  0.00  0.00    +0.000 OA
ATOM      5  N   UNL     1       2.942   5.363  20.541  0.00  0.00    +0.000 N 
ATOM      6  C   UNL     1       3.802   5.336  19.457  0.00  0.00    +0.000 A 
ATOM      7  C   UNL     1       4.608   4.255  19.159  0.00  0.00    +0.000 A 
ATOM      8  C   UNL     1       5.269   4.281  17.940  0.00  0.00    +0.000 A 
ATOM      9  C   UNL     1       5.137   5.397  17.087  0.00  0.00    +0.000 A 
ATOM     10  C   UNL     1       4.347   6.524  17.422  0.00  0.00    +0.000 A 
ATOM     11  C   UNL     1       3.649   6.457  18.617  0.00  0.00    +0.000 A 
ATOM     12  H   UNL     1       2.839   4.636  21.235  0.00  0.00    +0.000 HD
ENDROOT
BRANCH   9  13
ATOM     13  S   UNL     1       5.901   5.236  15.489  0.00  0.00    +0.000 S 
ATOM     14  O   UNL     1       5.896   3.838  15.116  0.00  0.00    +0.000 OA
ATOM     15  O   UNL     1       5.371   6.267  14.638  0.00  0.00    +0.000 OA
BRANCH  13  16
ATOM     16  O   UNL     1       7.465   5.591  15.778  0.00  0.00    +0.000 OA
ATOM     17  H   UNL     1       7.706   6.364  15.223  0.00  0.00    +0.000 HD
ENDBRANCH  13  16
ENDBRANCH   9  13
BRANCH   1  18
ATOM     18  N   UNL     1       1.043   8.775  19.806  0.00  0.00    +0.000 N 
ATOM     19  H   UNL     1       0.792   8.126  20.562  0.00  0.00    +0.000 HD
BRANCH  18  25
ATOM     20  C   UNL     1      -0.378  10.603  20.818  0.00  0.00    +0.000 A 
ATOM     21  C   UNL     1      -1.248  11.690  20.550  0.00  0.00    +0.000 A 
ATOM     22  C   UNL     1      -1.633  12.030  19.254  0.00  0.00    +0.000 A 
ATOM     23  C   UNL     1      -1.166  11.273  18.193  0.00  0.00    +0.000 A 
ATOM     24  C   UNL     1      -0.295  10.211  18.445  0.00  0.00    +0.000 A 
ATOM     25  C   UNL     1       0.146   9.864  19.752  0.00  0.00    +0.000 A 
BRANCH  20  27
ATOM     26  C   UNL     1      -1.233  10.861  23.138  0.00  0.00    +0.000 C 
ATOM     27  C   UNL     1      -0.137  10.264  22.265  0.00  0.00    +0.000 C 
ENDBRANCH  20  27
ENDBRANCH  18  25
ENDBRANCH   1  18
TORSDOF 5
ENDMDL
