MODEL 1
REMARK VINA RESULT:      -7.0      0.000      0.000
REMARK  Name = 
REMARK  9 active torsions:
REMARK  status: ('A' for Active; 'I' for Inactive)
REMARK    1  A    between atoms: C_1  and  C_2
REMARK    2  A    between atoms: C_4  and  C_5
REMARK    3  A    between atoms: C_8  and  C_10
REMARK    4  A    between atoms: C_10  and  S_11
REMARK    5  A    between atoms: S_11  and  C_12
REMARK    6  A    between atoms: C_15  and  C_16
REMARK    7  A    between atoms: C_16  and  S_17
REMARK    8  A    between atoms: S_17  and  C_18
REMARK    9  A    between atoms: N_24  and  C_25
REMARK                            x       y       z     vdW  Elec       q    Type
REMARK                         _______ _______ _______ _____ _____    ______ ____
ROOT
ATOM      1  C   UNL     1       7.335   6.136  17.382  0.00  0.00    +0.000 A 
ATOM      2  N   UNL     1       7.081   7.094  16.525  0.00  0.00    +0.000 NA
ATOM      3  N   UNL     1       7.575   8.262  17.054  0.00  0.00    +0.000 NA
ATOM      4  C   UNL     1       8.131   8.000  18.226  0.00  0.00    +0.000 A 
ATOM      5  N   UNL     1       7.955   6.657  18.491  0.00  0.00    +0.000 N 
ATOM      6  C   UNL     1       8.332   5.925  19.673  0.00  0.00    +0.000 C 
ENDROOT
BRANCH   1   7
ATOM      7  S   UNL     1       6.973   4.456  17.197  0.00  0.00    +0.000 S 
BRANCH   7   8
ATOM      8  C   UNL     1       5.230   4.494  16.657  0.00  0.00    +0.000 C 
BRANCH   8  16
ATOM      9  C   UNL     1       2.166   6.646  18.382  0.00  0.00    +0.000 C 
ATOM     10  C   UNL     1       2.920   6.199  19.638  0.00  0.00    +0.000 C 
ATOM     11  C   UNL     1       2.028   5.354  20.563  0.00  0.00    +0.000 C 
ATOM     12  C   UNL     1       1.737   3.965  19.973  0.00  0.00    +0.000 C 
ATOM     13  C   UNL     1       0.911   3.127  20.947  0.00  0.00    +0.000 C 
ATOM     14  C   UNL     1       3.050   3.259  19.601  0.00  0.00    +0.000 C 
ATOM     15  N   UNL     1       3.877   4.103  18.729  0.00  0.00    +0.000 N 
ATOM     16  C   UNL     1       4.352   3.581  17.523  0.00  0.00    +0.000 C 
ATOM     17  O   UNL     1       4.060   2.432  17.178  0.00  0.00    +0.000 OA
ATOM     18  C   UNL     1       4.195   5.426  19.266  0.00  0.00    +0.000 C 
ENDBRANCH   8  16
ENDBRANCH   7   8
ENDBRANCH   1   7
BRANCH   4  19
ATOM     19  C   UNL     1       8.782   9.022  19.110  0.00  0.00    +0.000 C 
BRANCH  19  20
ATOM     20  S   UNL     1       9.256  10.528  18.208  0.00  0.00    +0.000 S 
BRANCH  20  21
ATOM     21  C   UNL     1       9.383  11.694  19.547  0.00  0.00    +0.000 A 
ATOM     22  N   UNL     1       9.711  12.971  19.292  0.00  0.00    +0.000 NA
ATOM     23  C   UNL     1       9.826  13.781  20.362  0.00  0.00    +0.000 A 
ATOM     24  C   UNL     1       9.616  13.375  21.662  0.00  0.00    +0.000 A 
ATOM     25  C   UNL     1       9.263  12.057  21.808  0.00  0.00    +0.000 A 
ATOM     26  N   UNL     1       9.138  11.202  20.775  0.00  0.00    +0.000 NA
ENDBRANCH  20  21
ENDBRANCH  19  20
ENDBRANCH   4  19
TORSDOF 6
ENDMDL
MODEL 2
REMARK VINA RESULT:      -6.7      5.949      9.447
REMARK  Name = 
REMARK  9 active torsions:
REMARK  status: ('A' for Active; 'I' for Inactive)
REMARK    1  A    between atoms: C_1  and  C_2
REMARK    2  A    between atoms: C_4  and  C_5
REMARK    3  A    between atoms: C_8  and  C_10
REMARK    4  A    between atoms: C_10  and  S_11
REMARK    5  A    between atoms: S_11  and  C_12
REMARK    6  A    between atoms: C_15  and  C_16
REMARK    7  A    between atoms: C_16  and  S_17
REMARK    8  A    between atoms: S_17  and  C_18
REMARK    9  A    between atoms: N_24  and  C_25
REMARK                            x       y       z     vdW  Elec       q    Type
REMARK                         _______ _______ _______ _____ _____    ______ ____
ROOT
ATOM      1  C   UNL     1       1.679   9.044  18.966  0.00  0.00    +0.000 A 
ATOM      2  N   UNL     1       2.066   9.344  17.750  0.00  0.00    +0.000 NA
ATOM      3  N   UNL     1       2.691   8.236  17.231  0.00  0.00    +0.000 NA
ATOM      4  C   UNL     1       2.671   7.270  18.136  0.00  0.00    +0.000 A 
ATOM      5  N   UNL     1       2.072   7.766  19.277  0.00  0.00    +0.000 N 
ATOM      6  C   UNL     1       1.885   7.106  20.544  0.00  0.00    +0.000 C 
ENDROOT
BRANCH   1   7
ATOM      7  S   UNL     1       0.800  10.060  20.054  0.00  0.00    +0.000 S 
BRANCH   7   8
ATOM      8  C   UNL     1      -0.063  11.192  18.913  0.00  0.00    +0.000 C 
BRANCH   8  16
ATOM      9  C   UNL     1      -2.759   9.409  16.353  0.00  0.00    +0.000 C 
ATOM     10  C   UNL     1      -3.126  10.881  16.146  0.00  0.00    +0.000 C 
ATOM     11  C   UNL     1      -4.592  11.157  16.518  0.00  0.00    +0.000 C 
ATOM     12  C   UNL     1      -4.828  11.082  18.034  0.00  0.00    +0.000 C 
ATOM     13  C   UNL     1      -6.275  11.431  18.375  0.00  0.00    +0.000 C 
ATOM     14  C   UNL     1      -3.842  12.000  18.772  0.00  0.00    +0.000 C 
ATOM     15  N   UNL     1      -2.456  11.714  18.380  0.00  0.00    +0.000 N 
ATOM     16  C   UNL     1      -1.503  11.464  19.371  0.00  0.00    +0.000 C 
ATOM     17  O   UNL     1      -1.824  11.457  20.563  0.00  0.00    +0.000 OA
ATOM     18  C   UNL     1      -2.187  11.799  16.945  0.00  0.00    +0.000 C 
ENDBRANCH   8  16
ENDBRANCH   7   8
ENDBRANCH   1   7
BRANCH   4  19
ATOM     19  C   UNL     1       3.256   5.903  17.940  0.00  0.00    +0.000 C 
BRANCH  19  20
ATOM     20  S   UNL     1       1.984   4.623  17.714  0.00  0.00    +0.000 S 
BRANCH  20  21
ATOM     21  C   UNL     1       2.099   3.759  19.265  0.00  0.00    +0.000 A 
ATOM     22  N   UNL     1       1.002   3.595  20.022  0.00  0.00    +0.000 NA
ATOM     23  C   UNL     1       1.179   2.966  21.200  0.00  0.00    +0.000 A 
ATOM     24  C   UNL     1       2.392   2.487  21.642  0.00  0.00    +0.000 A 
ATOM     25  C   UNL     1       3.443   2.686  20.782  0.00  0.00    +0.000 A 
ATOM     26  N   UNL     1       3.324   3.312  19.596  0.00  0.00    +0.000 NA
ENDBRANCH  20  21
ENDBRANCH  19  20
ENDBRANCH   4  19
TORSDOF 6
ENDMDL
MODEL 3
REMARK VINA RESULT:      -6.7      5.163      7.251
REMARK  Name = 
REMARK  9 active torsions:
REMARK  status: ('A' for Active; 'I' for Inactive)
REMARK    1  A    between atoms: C_1  and  C_2
REMARK    2  A    between atoms: C_4  and  C_5
REMARK    3  A    between atoms: C_8  and  C_10
REMARK    4  A    between atoms: C_10  and  S_11
REMARK    5  A    between atoms: S_11  and  C_12
REMARK    6  A    between atoms: C_15  and  C_16
REMARK    7  A    between atoms: C_16  and  S_17
REMARK    8  A    between atoms: S_17  and  C_18
REMARK    9  A    between atoms: N_24  and  C_25
REMARK                            x       y       z     vdW  Elec       q    Type
REMARK                         _______ _______ _______ _____ _____    ______ ____
ROOT
ATOM      1  C   UNL     1       2.151   7.139  19.294  0.00  0.00    +0.000 A 
ATOM      2  N   UNL     1       2.395   7.407  18.034  0.00  0.00    +0.000 NA
ATOM      3  N   UNL     1       2.051   8.720  17.817  0.00  0.00    +0.000 NA
ATOM      4  C   UNL     1       1.607   9.239  18.951  0.00  0.00    +0.000 A 
ATOM      5  N   UNL     1       1.613   8.243  19.907  0.00  0.00    +0.000 N 
ATOM      6  C   UNL     1       1.156   8.316  21.272  0.00  0.00    +0.000 C 
ENDROOT
BRANCH   1   7
ATOM      7  S   UNL     1       2.447   5.646  20.112  0.00  0.00    +0.000 S 
BRANCH   7   8
ATOM      8  C   UNL     1       4.068   5.150  19.438  0.00  0.00    +0.000 C 
BRANCH   8  16
ATOM      9  C   UNL     1       7.785   4.634  17.732  0.00  0.00    +0.000 C 
ATOM     10  C   UNL     1       7.192   5.671  16.773  0.00  0.00    +0.000 C 
ATOM     11  C   UNL     1       7.132   5.141  15.332  0.00  0.00    +0.000 C 
ATOM     12  C   UNL     1       6.065   4.048  15.162  0.00  0.00    +0.000 C 
ATOM     13  C   UNL     1       5.981   3.594  13.706  0.00  0.00    +0.000 C 
ATOM     14  C   UNL     1       4.705   4.548  15.672  0.00  0.00    +0.000 C 
ATOM     15  N   UNL     1       4.808   5.058  17.045  0.00  0.00    +0.000 N 
ATOM     16  C   UNL     1       3.936   4.571  18.022  0.00  0.00    +0.000 C 
ATOM     17  O   UNL     1       3.103   3.703  17.744  0.00  0.00    +0.000 OA
ATOM     18  C   UNL     1       5.798   6.117  17.241  0.00  0.00    +0.000 C 
ENDBRANCH   8  16
ENDBRANCH   7   8
ENDBRANCH   1   7
BRANCH   4  19
ATOM     19  C   UNL     1       1.136  10.653  19.116  0.00  0.00    +0.000 C 
BRANCH  19  20
ATOM     20  S   UNL     1      -0.671  10.774  19.282  0.00  0.00    +0.000 S 
BRANCH  20  21
ATOM     21  C   UNL     1      -0.806  11.814  20.720  0.00  0.00    +0.000 A 
ATOM     22  N   UNL     1      -0.447  13.106  20.647  0.00  0.00    +0.000 NA
ATOM     23  C   UNL     1      -0.542  13.815  21.788  0.00  0.00    +0.000 A 
ATOM     24  C   UNL     1      -0.988  13.297  22.983  0.00  0.00    +0.000 A 
ATOM     25  C   UNL     1      -1.351  11.974  22.942  0.00  0.00    +0.000 A 
ATOM     26  N   UNL     1      -1.274  11.216  21.832  0.00  0.00    +0.000 NA
ENDBRANCH  20  21
ENDBRANCH  19  20
ENDBRANCH   4  19
TORSDOF 6
ENDMDL
MODEL 4
REMARK VINA RESULT:      -6.7      4.550      7.104
REMARK  Name = 
REMARK  9 active torsions:
REMARK  status: ('A' for Active; 'I' for Inactive)
REMARK    1  A    between atoms: C_1  and  C_2
REMARK    2  A    between atoms: C_4  and  C_5
REMARK    3  A    between atoms: C_8  and  C_10
REMARK    4  A    between atoms: C_10  and  S_11
REMARK    5  A    between atoms: S_11  and  C_12
REMARK    6  A    between atoms: C_15  and  C_16
REMARK    7  A    between atoms: C_16  and  S_17
REMARK    8  A    between atoms: S_17  and  C_18
REMARK    9  A    between atoms: N_24  and  C_25
REMARK                            x       y       z     vdW  Elec       q    Type
REMARK                         _______ _______ _______ _____ _____    ______ ____
ROOT
ATOM      1  C   UNL     1       2.879   6.290  18.993  0.00  0.00    +0.000 A 
ATOM      2  N   UNL     1       3.201   6.966  17.918  0.00  0.00    +0.000 NA
ATOM      3  N   UNL     1       3.860   6.106  17.072  0.00  0.00    +0.000 NA
ATOM      4  C   UNL     1       3.926   4.913  17.642  0.00  0.00    +0.000 A 
ATOM      5  N   UNL     1       3.349   5.004  18.893  0.00  0.00    +0.000 N 
ATOM      6  C   UNL     1       3.247   3.983  19.904  0.00  0.00    +0.000 C 
ENDROOT
BRANCH   1   7
ATOM      7  S   UNL     1       1.993   6.875  20.358  0.00  0.00    +0.000 S 
BRANCH   7   8
ATOM      8  C   UNL     1       1.534   8.559  19.827  0.00  0.00    +0.000 C 
BRANCH   8  16
ATOM      9  C   UNL     1      -1.760  10.631  18.465  0.00  0.00    +0.000 C 
ATOM     10  C   UNL     1      -0.866  11.799  18.891  0.00  0.00    +0.000 C 
ATOM     11  C   UNL     1      -1.536  12.658  19.976  0.00  0.00    +0.000 C 
ATOM     12  C   UNL     1      -1.607  11.931  21.328  0.00  0.00    +0.000 C 
ATOM     13  C   UNL     1      -2.211  12.837  22.399  0.00  0.00    +0.000 C 
ATOM     14  C   UNL     1      -0.213  11.431  21.737  0.00  0.00    +0.000 C 
ATOM     15  N   UNL     1       0.396  10.627  20.671  0.00  0.00    +0.000 N 
ATOM     16  C   UNL     1       0.885   9.353  20.971  0.00  0.00    +0.000 C 
ATOM     17  O   UNL     1       0.785   8.894  22.112  0.00  0.00    +0.000 OA
ATOM     18  C   UNL     1       0.503  11.294  19.374  0.00  0.00    +0.000 C 
ENDBRANCH   8  16
ENDBRANCH   7   8
ENDBRANCH   1   7
BRANCH   4  19
ATOM     19  C   UNL     1       4.572   3.707  17.027  0.00  0.00    +0.000 C 
BRANCH  19  20
ATOM     20  S   UNL     1       6.017   4.132  16.007  0.00  0.00    +0.000 S 
BRANCH  20  21
ATOM     21  C   UNL     1       6.885   5.237  17.100  0.00  0.00    +0.000 A 
ATOM     22  N   UNL     1       7.309   4.798  18.296  0.00  0.00    +0.000 NA
ATOM     23  C   UNL     1       7.921   5.705  19.080  0.00  0.00    +0.000 A 
ATOM     24  C   UNL     1       8.138   7.016  18.717  0.00  0.00    +0.000 A 
ATOM     25  C   UNL     1       7.687   7.354  17.465  0.00  0.00    +0.000 A 
ATOM     26  N   UNL     1       7.065   6.489  16.642  0.00  0.00    +0.000 NA
ENDBRANCH  20  21
ENDBRANCH  19  20
ENDBRANCH   4  19
TORSDOF 6
ENDMDL
MODEL 5
REMARK VINA RESULT:      -6.7      5.350      8.043
REMARK  Name = 
REMARK  9 active torsions:
REMARK  status: ('A' for Active; 'I' for Inactive)
REMARK    1  A    between atoms: C_1  and  C_2
REMARK    2  A    between atoms: C_4  and  C_5
REMARK    3  A    between atoms: C_8  and  C_10
REMARK    4  A    between atoms: C_10  and  S_11
REMARK    5  A    between atoms: S_11  and  C_12
REMARK    6  A    between atoms: C_15  and  C_16
REMARK    7  A    between atoms: C_16  and  S_17
REMARK    8  A    between atoms: S_17  and  C_18
REMARK    9  A    between atoms: N_24  and  C_25
REMARK                            x       y       z     vdW  Elec       q    Type
REMARK                         _______ _______ _______ _____ _____    ______ ____
ROOT
ATOM      1  C   UNL     1       2.035   7.458  19.599  0.00  0.00    +0.000 A 
ATOM      2  N   UNL     1       2.612   7.845  18.487  0.00  0.00    +0.000 NA
ATOM      3  N   UNL     1       3.055   6.717  17.839  0.00  0.00    +0.000 NA
ATOM      4  C   UNL     1       2.736   5.655  18.561  0.00  0.00    +0.000 A 
ATOM      5  N   UNL     1       2.123   6.093  19.718  0.00  0.00    +0.000 N 
ATOM      6  C   UNL     1       1.662   5.308  20.835  0.00  0.00    +0.000 C 
ENDROOT
BRANCH   1   7
ATOM      7  S   UNL     1       1.261   8.467  20.770  0.00  0.00    +0.000 S 
BRANCH   7   8
ATOM      8  C   UNL     1       0.781   9.918  19.773  0.00  0.00    +0.000 C 
BRANCH   8  16
ATOM      9  C   UNL     1      -2.786   9.710  17.717  0.00  0.00    +0.000 C 
ATOM     10  C   UNL     1      -2.486  11.206  17.583  0.00  0.00    +0.000 C 
ATOM     11  C   UNL     1      -3.599  12.065  18.207  0.00  0.00    +0.000 C 
ATOM     12  C   UNL     1      -3.605  11.977  19.741  0.00  0.00    +0.000 C 
ATOM     13  C   UNL     1      -4.674  12.895  20.332  0.00  0.00    +0.000 C 
ATOM     14  C   UNL     1      -2.212  12.307  20.299  0.00  0.00    +0.000 C 
ATOM     15  N   UNL     1      -1.179  11.476  19.669  0.00  0.00    +0.000 N 
ATOM     16  C   UNL     1      -0.296  10.754  20.477  0.00  0.00    +0.000 C 
ATOM     17  O   UNL     1      -0.398  10.791  21.707  0.00  0.00    +0.000 OA
ATOM     18  C   UNL     1      -1.126  11.551  18.209  0.00  0.00    +0.000 C 
ENDBRANCH   8  16
ENDBRANCH   7   8
ENDBRANCH   1   7
BRANCH   4  19
ATOM     19  C   UNL     1       3.051   4.238  18.182  0.00  0.00    +0.000 C 
BRANCH  19  20
ATOM     20  S   UNL     1       4.448   3.556  19.126  0.00  0.00    +0.000 S 
BRANCH  20  21
ATOM     21  C   UNL     1       5.756   4.656  18.630  0.00  0.00    +0.000 A 
ATOM     22  N   UNL     1       5.929   4.945  17.330  0.00  0.00    +0.000 NA
ATOM     23  C   UNL     1       6.965   5.753  17.032  0.00  0.00    +0.000 A 
ATOM     24  C   UNL     1       7.818   6.290  17.971  0.00  0.00    +0.000 A 
ATOM     25  C   UNL     1       7.538   5.950  19.271  0.00  0.00    +0.000 A 
ATOM     26  N   UNL     1       6.519   5.144  19.625  0.00  0.00    +0.000 NA
ENDBRANCH  20  21
ENDBRANCH  19  20
ENDBRANCH   4  19
TORSDOF 6
ENDMDL
MODEL 6
REMARK VINA RESULT:      -6.7      4.150      6.992
REMARK  Name = 
REMARK  9 active torsions:
REMARK  status: ('A' for Active; 'I' for Inactive)
REMARK    1  A    between atoms: C_1  and  C_2
REMARK    2  A    between atoms: C_4  and  C_5
REMARK    3  A    between atoms: C_8  and  C_10
REMARK    4  A    between atoms: C_10  and  S_11
REMARK    5  A    between atoms: S_11  and  C_12
REMARK    6  A    between atoms: C_15  and  C_16
REMARK    7  A    between atoms: C_16  and  S_17
REMARK    8  A    between atoms: S_17  and  C_18
REMARK    9  A    between atoms: N_24  and  C_25
REMARK                            x       y       z     vdW  Elec       q    Type
REMARK                         _______ _______ _______ _____ _____    ______ ____
ROOT
ATOM      1  C   UNL     1       2.104   5.022  19.053  0.00  0.00    +0.000 A 
ATOM      2  N   UNL     1       1.353   4.483  18.125  0.00  0.00    +0.000 NA
ATOM      3  N   UNL     1       2.182   3.807  17.263  0.00  0.00    +0.000 NA
ATOM      4  C   UNL     1       3.431   3.937  17.681  0.00  0.00    +0.000 A 
ATOM      5  N   UNL     1       3.425   4.748  18.798  0.00  0.00    +0.000 N 
ATOM      6  C   UNL     1       4.552   5.224  19.560  0.00  0.00    +0.000 C 
ENDROOT
BRANCH   1   7
ATOM      7  S   UNL     1       1.570   5.942  20.415  0.00  0.00    +0.000 S 
BRANCH   7   8
ATOM      8  C   UNL     1       1.765   7.657  19.823  0.00  0.00    +0.000 C 
BRANCH   8  16
ATOM      9  C   UNL     1      -1.323   9.889  18.249  0.00  0.00    +0.000 C 
ATOM     10  C   UNL     1      -0.288  10.993  18.486  0.00  0.00    +0.000 C 
ATOM     11  C   UNL     1      -0.816  12.066  19.451  0.00  0.00    +0.000 C 
ATOM     12  C   UNL     1      -0.919  11.546  20.894  0.00  0.00    +0.000 C 
ATOM     13  C   UNL     1      -1.377  12.656  21.838  0.00  0.00    +0.000 C 
ATOM     14  C   UNL     1       0.424  10.949  21.341  0.00  0.00    +0.000 C 
ATOM     15  N   UNL     1       0.899   9.940  20.388  0.00  0.00    +0.000 N 
ATOM     16  C   UNL     1       1.253   8.671  20.855  0.00  0.00    +0.000 C 
ATOM     17  O   UNL     1       1.143   8.390  22.052  0.00  0.00    +0.000 OA
ATOM     18  C   UNL     1       1.033  10.404  19.007  0.00  0.00    +0.000 C 
ENDBRANCH   8  16
ENDBRANCH   7   8
ENDBRANCH   1   7
BRANCH   4  19
ATOM     19  C   UNL     1       4.627   3.338  17.001  0.00  0.00    +0.000 C 
BRANCH  19  20
ATOM     20  S   UNL     1       5.366   4.458  15.773  0.00  0.00    +0.000 S 
BRANCH  20  21
ATOM     21  C   UNL     1       6.444   5.425  16.808  0.00  0.00    +0.000 A 
ATOM     22  N   UNL     1       7.225   4.815  17.714  0.00  0.00    +0.000 NA
ATOM     23  C   UNL     1       7.982   5.620  18.486  0.00  0.00    +0.000 A 
ATOM     24  C   UNL     1       8.000   6.993  18.381  0.00  0.00    +0.000 A 
ATOM     25  C   UNL     1       7.183   7.512  17.408  0.00  0.00    +0.000 A 
ATOM     26  N   UNL     1       6.403   6.756  16.612  0.00  0.00    +0.000 NA
ENDBRANCH  20  21
ENDBRANCH  19  20
ENDBRANCH   4  19
TORSDOF 6
ENDMDL
MODEL 7
REMARK VINA RESULT:      -6.6      5.686      8.278
REMARK  Name = 
REMARK  9 active torsions:
REMARK  status: ('A' for Active; 'I' for Inactive)
REMARK    1  A    between atoms: C_1  and  C_2
REMARK    2  A    between atoms: C_4  and  C_5
REMARK    3  A    between atoms: C_8  and  C_10
REMARK    4  A    between atoms: C_10  and  S_11
REMARK    5  A    between atoms: S_11  and  C_12
REMARK    6  A    between atoms: C_15  and  C_16
REMARK    7  A    between atoms: C_16  and  S_17
REMARK    8  A    between atoms: S_17  and  C_18
REMARK    9  A    between atoms: N_24  and  C_25
REMARK                            x       y       z     vdW  Elec       q    Type
REMARK                         _______ _______ _______ _____ _____    ______ ____
ROOT
ATOM      1  C   UNL     1       1.992   7.361  19.945  0.00  0.00    +0.000 A 
ATOM      2  N   UNL     1       2.492   7.964  18.894  0.00  0.00    +0.000 NA
ATOM      3  N   UNL     1       2.897   6.990  18.013  0.00  0.00    +0.000 NA
ATOM      4  C   UNL     1       2.633   5.803  18.537  0.00  0.00    +0.000 A 
ATOM      5  N   UNL     1       2.097   6.001  19.793  0.00  0.00    +0.000 N 
ATOM      6  C   UNL     1       1.715   5.008  20.766  0.00  0.00    +0.000 C 
ENDROOT
BRANCH   1   7
ATOM      7  S   UNL     1       1.292   8.113  21.335  0.00  0.00    +0.000 S 
BRANCH   7   8
ATOM      8  C   UNL     1       0.872   9.773  20.706  0.00  0.00    +0.000 C 
BRANCH   8  16
ATOM      9  C   UNL     1      -2.390  11.838  19.260  0.00  0.00    +0.000 C 
ATOM     10  C   UNL     1      -1.460  13.008  19.598  0.00  0.00    +0.000 C 
ATOM     11  C   UNL     1      -2.092  13.951  20.635  0.00  0.00    +0.000 C 
ATOM     12  C   UNL     1      -2.161  13.313  22.031  0.00  0.00    +0.000 C 
ATOM     13  C   UNL     1      -2.725  14.300  23.050  0.00  0.00    +0.000 C 
ATOM     14  C   UNL     1      -0.774  12.804  22.452  0.00  0.00    +0.000 C 
ATOM     15  N   UNL     1      -0.201  11.919  21.431  0.00  0.00    +0.000 N 
ATOM     16  C   UNL     1       0.261  10.654  21.805  0.00  0.00    +0.000 C 
ATOM     17  O   UNL     1       0.167  10.271  22.975  0.00  0.00    +0.000 OA
ATOM     18  C   UNL     1      -0.097  12.500  20.093  0.00  0.00    +0.000 C 
ENDBRANCH   8  16
ENDBRANCH   7   8
ENDBRANCH   1   7
BRANCH   4  19
ATOM     19  C   UNL     1       2.931   4.491  17.874  0.00  0.00    +0.000 C 
BRANCH  19  20
ATOM     20  S   UNL     1       4.294   3.595  18.678  0.00  0.00    +0.000 S 
BRANCH  20  21
ATOM     21  C   UNL     1       5.654   4.699  18.360  0.00  0.00    +0.000 A 
ATOM     22  N   UNL     1       6.459   5.074  19.367  0.00  0.00    +0.000 NA
ATOM     23  C   UNL     1       7.440   5.942  19.053  0.00  0.00    +0.000 A 
ATOM     24  C   UNL     1       7.656   6.435  17.785  0.00  0.00    +0.000 A 
ATOM     25  C   UNL     1       6.792   5.968  16.826  0.00  0.00    +0.000 A 
ATOM     26  N   UNL     1       5.792   5.104  17.085  0.00  0.00    +0.000 NA
ENDBRANCH  20  21
ENDBRANCH  19  20
ENDBRANCH   4  19
TORSDOF 6
ENDMDL
MODEL 8
REMARK VINA RESULT:      -6.6      5.252      7.849
REMARK  Name = 
REMARK  9 active torsions:
REMARK  status: ('A' for Active; 'I' for Inactive)
REMARK    1  A    between atoms: C_1  and  C_2
REMARK    2  A    between atoms: C_4  and  C_5
REMARK    3  A    between atoms: C_8  and  C_10
REMARK    4  A    between atoms: C_10  and  S_11
REMARK    5  A    between atoms: S_11  and  C_12
REMARK    6  A    between atoms: C_15  and  C_16
REMARK    7  A    between atoms: C_16  and  S_17
REMARK    8  A    between atoms: S_17  and  C_18
REMARK    9  A    between atoms: N_24  and  C_25
REMARK                            x       y       z     vdW  Elec       q    Type
REMARK                         _______ _______ _______ _____ _____    ______ ____
ROOT
ATOM      1  C   UNL     1       2.162   7.189  19.693  0.00  0.00    +0.000 A 
ATOM      2  N   UNL     1       2.565   7.778  18.594  0.00  0.00    +0.000 NA
ATOM      3  N   UNL     1       3.187   6.828  17.820  0.00  0.00    +0.000 NA
ATOM      4  C   UNL     1       3.149   5.668  18.456  0.00  0.00    +0.000 A 
ATOM      5  N   UNL     1       2.542   5.870  19.679  0.00  0.00    +0.000 N 
ATOM      6  C   UNL     1       2.335   4.917  20.740  0.00  0.00    +0.000 C 
ENDROOT
BRANCH   1   7
ATOM      7  S   UNL     1       1.278   7.911  20.992  0.00  0.00    +0.000 S 
BRANCH   7   8
ATOM      8  C   UNL     1       0.493   9.341  20.176  0.00  0.00    +0.000 C 
BRANCH   8  16
ATOM      9  C   UNL     1      -1.990  12.346  18.832  0.00  0.00    +0.000 C 
ATOM     10  C   UNL     1      -0.627  12.934  18.454  0.00  0.00    +0.000 C 
ATOM     11  C   UNL     1      -0.380  14.284  19.148  0.00  0.00    +0.000 C 
ATOM     12  C   UNL     1      -0.139  14.122  20.657  0.00  0.00    +0.000 C 
ATOM     13  C   UNL     1       0.175  15.470  21.302  0.00  0.00    +0.000 C 
ATOM     14  C   UNL     1       0.985  13.105  20.910  0.00  0.00    +0.000 C 
ATOM     15  N   UNL     1       0.718  11.837  20.220  0.00  0.00    +0.000 N 
ATOM     16  C   UNL     1       0.757  10.643  20.946  0.00  0.00    +0.000 C 
ATOM     17  O   UNL     1       0.987  10.653  22.158  0.00  0.00    +0.000 OA
ATOM     18  C   UNL     1       0.506  11.948  18.777  0.00  0.00    +0.000 C 
ENDBRANCH   8  16
ENDBRANCH   7   8
ENDBRANCH   1   7
BRANCH   4  19
ATOM     19  C   UNL     1       3.726   4.387  17.930  0.00  0.00    +0.000 C 
BRANCH  19  20
ATOM     20  S   UNL     1       4.893   4.655  16.561  0.00  0.00    +0.000 S 
BRANCH  20  21
ATOM     21  C   UNL     1       6.204   5.516  17.403  0.00  0.00    +0.000 A 
ATOM     22  N   UNL     1       6.749   4.987  18.510  0.00  0.00    +0.000 NA
ATOM     23  C   UNL     1       7.707   5.719  19.110  0.00  0.00    +0.000 A 
ATOM     24  C   UNL     1       8.149   6.938  18.647  0.00  0.00    +0.000 A 
ATOM     25  C   UNL     1       7.543   7.376  17.496  0.00  0.00    +0.000 A 
ATOM     26  N   UNL     1       6.577   6.689  16.857  0.00  0.00    +0.000 NA
ENDBRANCH  20  21
ENDBRANCH  19  20
ENDBRANCH   4  19
TORSDOF 6
ENDMDL
MODEL 9
REMARK VINA RESULT:      -6.6      6.621      9.821
REMARK  Name = 
REMARK  9 active torsions:
REMARK  status: ('A' for Active; 'I' for Inactive)
REMARK    1  A    between atoms: C_1  and  C_2
REMARK    2  A    between atoms: C_4  and  C_5
REMARK    3  A    between atoms: C_8  and  C_10
REMARK    4  A    between atoms: C_10  and  S_11
REMARK    5  A    between atoms: S_11  and  C_12
REMARK    6  A    between atoms: C_15  and  C_16
REMARK    7  A    between atoms: C_16  and  S_17
REMARK    8  A    between atoms: S_17  and  C_18
REMARK    9  A    between atoms: N_24  and  C_25
REMARK                            x       y       z     vdW  Elec       q    Type
REMARK                         _______ _______ _______ _____ _____    ______ ____
ROOT
ATOM      1  C   UNL     1       0.960   9.627  18.748  0.00  0.00    +0.000 A 
ATOM      2  N   UNL     1       1.591   9.684  17.601  0.00  0.00    +0.000 NA
ATOM      3  N   UNL     1       2.508   8.660  17.583  0.00  0.00    +0.000 NA
ATOM      4  C   UNL     1       2.419   7.986  18.718  0.00  0.00    +0.000 A 
ATOM      5  N   UNL     1       1.471   8.605  19.509  0.00  0.00    +0.000 N 
ATOM      6  C   UNL     1       1.078   8.271  20.854  0.00  0.00    +0.000 C 
ENDROOT
BRANCH   1   7
ATOM      7  S   UNL     1      -0.329  10.651  19.274  0.00  0.00    +0.000 S 
BRANCH   7   8
ATOM      8  C   UNL     1       0.498  11.709  20.510  0.00  0.00    +0.000 C 
BRANCH   8  16
ATOM      9  C   UNL     1      -3.523  12.480  20.022  0.00  0.00    +0.000 C 
ATOM     10  C   UNL     1      -3.123  13.677  20.890  0.00  0.00    +0.000 C 
ATOM     11  C   UNL     1      -3.903  13.701  22.215  0.00  0.00    +0.000 C 
ATOM     12  C   UNL     1      -3.459  12.579  23.167  0.00  0.00    +0.000 C 
ATOM     13  C   UNL     1      -4.201  12.676  24.499  0.00  0.00    +0.000 C 
ATOM     14  C   UNL     1      -1.937  12.625  23.369  0.00  0.00    +0.000 C 
ATOM     15  N   UNL     1      -1.231  12.613  22.083  0.00  0.00    +0.000 N 
ATOM     16  C   UNL     1      -0.227  11.667  21.862  0.00  0.00    +0.000 C 
ATOM     17  O   UNL     1       0.048  10.830  22.728  0.00  0.00    +0.000 OA
ATOM     18  C   UNL     1      -1.610  13.681  21.157  0.00  0.00    +0.000 C 
ENDBRANCH   8  16
ENDBRANCH   7   8
ENDBRANCH   1   7
BRANCH   4  19
ATOM     19  C   UNL     1       3.258   6.795  19.073  0.00  0.00    +0.000 C 
BRANCH  19  20
ATOM     20  S   UNL     1       3.676   5.778  17.624  0.00  0.00    +0.000 S 
BRANCH  20  21
ATOM     21  C   UNL     1       2.871   4.248  18.046  0.00  0.00    +0.000 A 
ATOM     22  N   UNL     1       3.384   3.083  17.617  0.00  0.00    +0.000 NA
ATOM     23  C   UNL     1       2.694   1.973  17.945  0.00  0.00    +0.000 A 
ATOM     24  C   UNL     1       1.533   1.978  18.687  0.00  0.00    +0.000 A 
ATOM     25  C   UNL     1       1.110   3.218  19.094  0.00  0.00    +0.000 A 
ATOM     26  N   UNL     1       1.757   4.360  18.792  0.00  0.00    +0.000 NA
ENDBRANCH  20  21
ENDBRANCH  19  20
ENDBRANCH   4  19
TORSDOF 6
ENDMDL
