MODEL 1
REMARK VINA RESULT:      -8.0      0.000      0.000
REMARK  Name = 
REMARK  6 active torsions:
REMARK  status: ('A' for Active; 'I' for Inactive)
REMARK    1  A    between atoms: C_1  and  C_2
REMARK    2  A    between atoms: N_4  and  N_5
REMARK    3  A    between atoms: C_8  and  C_9
REMARK    4  A    between atoms: C_12  and  N_13
REMARK    5  A    between atoms: C_18  and  C_19
REMARK    6  A    between atoms: N_23  and  C_24
REMARK                            x       y       z     vdW  Elec       q    Type
REMARK                         _______ _______ _______ _____ _____    ______ ____
ROOT
ATOM      1  N   UNL     1       6.217   6.408  16.141  0.00  0.00    +0.000 N 
ATOM      2  C   UNL     1       5.140   5.921  16.852  0.00  0.00    +0.000 A 
ATOM      3  N   UNL     1       4.364   6.755  17.492  0.00  0.00    +0.000 NA
ATOM      4  C   UNL     1       3.268   6.269  18.160  0.00  0.00    +0.000 A 
ATOM      5  C   UNL     1       2.932   4.971  18.210  0.00  0.00    +0.000 A 
ATOM      6  C   UNL     1       3.796   4.013  17.504  0.00  0.00    +0.000 A 
ATOM      7  O   UNL     1       3.521   2.815  17.513  0.00  0.00    +0.000 OA
ATOM      8  N   UNL     1       4.898   4.551  16.858  0.00  0.00    +0.000 N 
ATOM      9  C   UNL     1       5.789   3.622  16.176  0.00  0.00    +0.000 C 
ATOM     10  H   UNL     1       6.932   5.771  15.790  0.00  0.00    +0.000 HD
ENDROOT
BRANCH   4  11
ATOM     11  C   UNL     1       2.446   7.288  18.849  0.00  0.00    +0.000 A 
ATOM     12  C   UNL     1       2.177   7.170  20.220  0.00  0.00    +0.000 A 
ATOM     13  C   UNL     1       1.427   8.147  20.883  0.00  0.00    +0.000 A 
ATOM     14  C   UNL     1       0.945   9.252  20.169  0.00  0.00    +0.000 A 
ATOM     15  C   UNL     1       1.197   9.376  18.796  0.00  0.00    +0.000 A 
ATOM     16  C   UNL     1       1.948   8.393  18.141  0.00  0.00    +0.000 A 
BRANCH  14  17
ATOM     17  N   UNL     1       0.188  10.297  20.870  0.00  0.00    +0.000 N 
ATOM     18  O   UNL     1       0.600  10.659  21.982  0.00  0.00    +0.000 OA
ATOM     19  O   UNL     1      -0.809  10.766  20.303  0.00  0.00    +0.000 OA
ENDBRANCH  14  17
ENDBRANCH   4  11
BRANCH   1  23
ATOM     20  C   UNL     1       8.175   8.832  18.154  0.00  0.00    +0.000 C 
ATOM     21  C   UNL     1       7.667   7.515  17.642  0.00  0.00    +0.000 C 
ATOM     22  O   UNL     1       8.013   6.431  18.110  0.00  0.00    +0.000 OA
ATOM     23  N   UNL     1       6.779   7.617  16.591  0.00  0.00    +0.000 N 
ATOM     24  H   UNL     1       6.288   8.469  16.325  0.00  0.00    +0.000 HD
ENDBRANCH   1  23
BRANCH   5  25
ATOM     25  C   UNL     1       1.746   4.438  18.998  0.00  0.00    +0.000 C 
ATOM     26  N   UNL     1       0.764   3.995  19.650  0.00  0.00    +0.000 NA
ENDBRANCH   5  25
TORSDOF 4
ENDMDL
MODEL 2
REMARK VINA RESULT:      -7.9      0.099      1.180
REMARK  Name = 
REMARK  6 active torsions:
REMARK  status: ('A' for Active; 'I' for Inactive)
REMARK    1  A    between atoms: C_1  and  C_2
REMARK    2  A    between atoms: N_4  and  N_5
REMARK    3  A    between atoms: C_8  and  C_9
REMARK    4  A    between atoms: C_12  and  N_13
REMARK    5  A    between atoms: C_18  and  C_19
REMARK    6  A    between atoms: N_23  and  C_24
REMARK                            x       y       z     vdW  Elec       q    Type
REMARK                         _______ _______ _______ _____ _____    ______ ____
ROOT
ATOM      1  N   UNL     1       6.198   6.315  16.138  0.00  0.00    +0.000 N 
ATOM      2  C   UNL     1       5.119   5.859  16.867  0.00  0.00    +0.000 A 
ATOM      3  N   UNL     1       4.375   6.717  17.514  0.00  0.00    +0.000 NA
ATOM      4  C   UNL     1       3.276   6.262  18.200  0.00  0.00    +0.000 A 
ATOM      5  C   UNL     1       2.906   4.974  18.260  0.00  0.00    +0.000 A 
ATOM      6  C   UNL     1       3.734   3.990  17.545  0.00  0.00    +0.000 A 
ATOM      7  O   UNL     1       3.428   2.800  17.563  0.00  0.00    +0.000 OA
ATOM      8  N   UNL     1       4.841   4.497  16.882  0.00  0.00    +0.000 N 
ATOM      9  C   UNL     1       5.697   3.542  16.190  0.00  0.00    +0.000 C 
ATOM     10  H   UNL     1       6.890   5.658  15.779  0.00  0.00    +0.000 HD
ENDROOT
BRANCH   4  11
ATOM     11  C   UNL     1       2.491   7.305  18.896  0.00  0.00    +0.000 A 
ATOM     12  C   UNL     1       2.011   8.416  18.190  0.00  0.00    +0.000 A 
ATOM     13  C   UNL     1       1.240   9.389  18.836  0.00  0.00    +0.000 A 
ATOM     14  C   UNL     1       0.947   9.247  20.198  0.00  0.00    +0.000 A 
ATOM     15  C   UNL     1       1.430   8.146  20.919  0.00  0.00    +0.000 A 
ATOM     16  C   UNL     1       2.201   7.179  20.264  0.00  0.00    +0.000 A 
BRANCH  14  17
ATOM     17  N   UNL     1       0.108  10.248  20.870  0.00  0.00    +0.000 N 
ATOM     18  O   UNL     1      -0.938  10.597  20.304  0.00  0.00    +0.000 OA
ATOM     19  O   UNL     1       0.488  10.675  21.970  0.00  0.00    +0.000 OA
ENDBRANCH  14  17
ENDBRANCH   4  11
BRANCH   1  23
ATOM     20  C   UNL     1       8.192   8.707  18.154  0.00  0.00    +0.000 C 
ATOM     21  C   UNL     1       7.643   7.400  17.660  0.00  0.00    +0.000 C 
ATOM     22  O   UNL     1       7.921   6.316  18.171  0.00  0.00    +0.000 OA
ATOM     23  N   UNL     1       6.799   7.510  16.575  0.00  0.00    +0.000 N 
ATOM     24  H   UNL     1       6.357   8.375  16.267  0.00  0.00    +0.000 HD
ENDBRANCH   1  23
BRANCH   5  25
ATOM     25  C   UNL     1       1.719   4.475  19.067  0.00  0.00    +0.000 C 
ATOM     26  N   UNL     1       0.734   4.061  19.735  0.00  0.00    +0.000 NA
ENDBRANCH   5  25
TORSDOF 4
ENDMDL
MODEL 3
REMARK VINA RESULT:      -7.4      3.173      8.177
REMARK  Name = 
REMARK  6 active torsions:
REMARK  status: ('A' for Active; 'I' for Inactive)
REMARK    1  A    between atoms: C_1  and  C_2
REMARK    2  A    between atoms: N_4  and  N_5
REMARK    3  A    between atoms: C_8  and  C_9
REMARK    4  A    between atoms: C_12  and  N_13
REMARK    5  A    between atoms: C_18  and  C_19
REMARK    6  A    between atoms: N_23  and  C_24
REMARK                            x       y       z     vdW  Elec       q    Type
REMARK                         _______ _______ _______ _____ _____    ______ ____
ROOT
ATOM      1  N   UNL     1      -1.839  12.175  17.501  0.00  0.00    +0.000 N 
ATOM      2  C   UNL     1      -1.201  11.610  18.586  0.00  0.00    +0.000 A 
ATOM      3  N   UNL     1      -0.327  10.658  18.391  0.00  0.00    +0.000 NA
ATOM      4  C   UNL     1       0.337  10.131  19.471  0.00  0.00    +0.000 A 
ATOM      5  C   UNL     1       0.147  10.526  20.738  0.00  0.00    +0.000 A 
ATOM      6  C   UNL     1      -0.839  11.591  20.982  0.00  0.00    +0.000 A 
ATOM      7  O   UNL     1      -1.039  11.993  22.126  0.00  0.00    +0.000 OA
ATOM      8  N   UNL     1      -1.495  12.079  19.862  0.00  0.00    +0.000 N 
ATOM      9  C   UNL     1      -2.499  13.113  20.077  0.00  0.00    +0.000 C 
ATOM     10  H   UNL     1      -2.646  12.783  17.639  0.00  0.00    +0.000 HD
ENDROOT
BRANCH   4  11
ATOM     11  C   UNL     1       1.311   9.064  19.152  0.00  0.00    +0.000 A 
ATOM     12  C   UNL     1       1.451   7.959  20.003  0.00  0.00    +0.000 A 
ATOM     13  C   UNL     1       2.347   6.931  19.689  0.00  0.00    +0.000 A 
ATOM     14  C   UNL     1       3.107   7.009  18.515  0.00  0.00    +0.000 A 
ATOM     15  C   UNL     1       2.985   8.114  17.662  0.00  0.00    +0.000 A 
ATOM     16  C   UNL     1       2.086   9.138  17.984  0.00  0.00    +0.000 A 
BRANCH  14  17
ATOM     17  N   UNL     1       4.022   5.915  18.166  0.00  0.00    +0.000 N 
ATOM     18  O   UNL     1       4.154   5.635  16.966  0.00  0.00    +0.000 OA
ATOM     19  O   UNL     1       4.620   5.345  19.091  0.00  0.00    +0.000 OA
ENDBRANCH  14  17
ENDBRANCH   4  11
BRANCH   1  23
ATOM     20  C   UNL     1      -3.407  10.078  14.874  0.00  0.00    +0.000 C 
ATOM     21  C   UNL     1      -3.288  11.019  16.038  0.00  0.00    +0.000 C 
ATOM     22  O   UNL     1      -4.260  11.455  16.654  0.00  0.00    +0.000 OA
ATOM     23  N   UNL     1      -1.993  11.364  16.363  0.00  0.00    +0.000 N 
ATOM     24  H   UNL     1      -1.163  10.863  16.050  0.00  0.00    +0.000 HD
ENDBRANCH   1  23
BRANCH   5  25
ATOM     25  C   UNL     1       0.849   9.899  21.931  0.00  0.00    +0.000 C 
ATOM     26  N   UNL     1       1.431   9.379  22.920  0.00  0.00    +0.000 NA
ENDBRANCH   5  25
TORSDOF 4
ENDMDL
MODEL 4
REMARK VINA RESULT:      -7.4      3.183      8.201
REMARK  Name = 
REMARK  6 active torsions:
REMARK  status: ('A' for Active; 'I' for Inactive)
REMARK    1  A    between atoms: C_1  and  C_2
REMARK    2  A    between atoms: N_4  and  N_5
REMARK    3  A    between atoms: C_8  and  C_9
REMARK    4  A    between atoms: C_12  and  N_13
REMARK    5  A    between atoms: C_18  and  C_19
REMARK    6  A    between atoms: N_23  and  C_24
REMARK                            x       y       z     vdW  Elec       q    Type
REMARK                         _______ _______ _______ _____ _____    ______ ____
ROOT
ATOM      1  N   UNL     1      -1.805  12.125  17.453  0.00  0.00    +0.000 N 
ATOM      2  C   UNL     1      -1.150  11.572  18.534  0.00  0.00    +0.000 A 
ATOM      3  N   UNL     1      -0.301  10.598  18.339  0.00  0.00    +0.000 NA
ATOM      4  C   UNL     1       0.381  10.083  19.413  0.00  0.00    +0.000 A 
ATOM      5  C   UNL     1       0.233  10.511  20.675  0.00  0.00    +0.000 A 
ATOM      6  C   UNL     1      -0.723  11.602  20.919  0.00  0.00    +0.000 A 
ATOM      7  O   UNL     1      -0.885  12.034  22.058  0.00  0.00    +0.000 OA
ATOM      8  N   UNL     1      -1.400  12.077  19.806  0.00  0.00    +0.000 N 
ATOM      9  C   UNL     1      -2.376  13.136  20.022  0.00  0.00    +0.000 C 
ATOM     10  H   UNL     1      -2.596  12.753  17.598  0.00  0.00    +0.000 HD
ENDROOT
BRANCH   4  11
ATOM     11  C   UNL     1       1.325   8.988  19.094  0.00  0.00    +0.000 A 
ATOM     12  C   UNL     1       2.107   9.047  17.933  0.00  0.00    +0.000 A 
ATOM     13  C   UNL     1       3.025   8.030  17.643  0.00  0.00    +0.000 A 
ATOM     14  C   UNL     1       3.161   6.950  18.524  0.00  0.00    +0.000 A 
ATOM     15  C   UNL     1       2.377   6.874  19.682  0.00  0.00    +0.000 A 
ATOM     16  C   UNL     1       1.461   7.895  19.963  0.00  0.00    +0.000 A 
BRANCH  14  17
ATOM     17  N   UNL     1       4.149   5.900  18.240  0.00  0.00    +0.000 N 
ATOM     18  O   UNL     1       4.809   5.459  19.192  0.00  0.00    +0.000 OA
ATOM     19  O   UNL     1       4.254   5.508  17.070  0.00  0.00    +0.000 OA
ENDBRANCH  14  17
ENDBRANCH   4  11
BRANCH   1  23
ATOM     20  C   UNL     1      -3.498  10.097  14.849  0.00  0.00    +0.000 C 
ATOM     21  C   UNL     1      -3.320  11.065  15.983  0.00  0.00    +0.000 C 
ATOM     22  O   UNL     1      -4.261  11.619  16.550  0.00  0.00    +0.000 OA
ATOM     23  N   UNL     1      -2.007  11.291  16.339  0.00  0.00    +0.000 N 
ATOM     24  H   UNL     1      -1.222  10.698  16.072  0.00  0.00    +0.000 HD
ENDBRANCH   1  23
BRANCH   5  25
ATOM     25  C   UNL     1       0.955   9.897  21.864  0.00  0.00    +0.000 C 
ATOM     26  N   UNL     1       1.552   9.388  22.849  0.00  0.00    +0.000 NA
ENDBRANCH   5  25
TORSDOF 4
ENDMDL
MODEL 5
REMARK VINA RESULT:      -6.6      1.352      1.731
REMARK  Name = 
REMARK  6 active torsions:
REMARK  status: ('A' for Active; 'I' for Inactive)
REMARK    1  A    between atoms: C_1  and  C_2
REMARK    2  A    between atoms: N_4  and  N_5
REMARK    3  A    between atoms: C_8  and  C_9
REMARK    4  A    between atoms: C_12  and  N_13
REMARK    5  A    between atoms: C_18  and  C_19
REMARK    6  A    between atoms: N_23  and  C_24
REMARK                            x       y       z     vdW  Elec       q    Type
REMARK                         _______ _______ _______ _____ _____    ______ ____
ROOT
ATOM      1  N   UNL     1       7.608   6.561  17.324  0.00  0.00    +0.000 N 
ATOM      2  C   UNL     1       6.328   6.048  17.370  0.00  0.00    +0.000 A 
ATOM      3  N   UNL     1       5.387   6.729  17.969  0.00  0.00    +0.000 NA
ATOM      4  C   UNL     1       4.106   6.234  17.973  0.00  0.00    +0.000 A 
ATOM      5  C   UNL     1       3.744   5.077  17.399  0.00  0.00    +0.000 A 
ATOM      6  C   UNL     1       4.789   4.291  16.726  0.00  0.00    +0.000 A 
ATOM      7  O   UNL     1       4.503   3.229  16.178  0.00  0.00    +0.000 OA
ATOM      8  N   UNL     1       6.069   4.823  16.765  0.00  0.00    +0.000 N 
ATOM      9  C   UNL     1       7.130   4.050  16.133  0.00  0.00    +0.000 C 
ATOM     10  H   UNL     1       8.387   5.973  17.027  0.00  0.00    +0.000 HD
ENDROOT
BRANCH   4  11
ATOM     11  C   UNL     1       3.108   7.076  18.668  0.00  0.00    +0.000 A 
ATOM     12  C   UNL     1       2.603   8.229  18.050  0.00  0.00    +0.000 A 
ATOM     13  C   UNL     1       1.635   9.011  18.689  0.00  0.00    +0.000 A 
ATOM     14  C   UNL     1       1.166   8.634  19.954  0.00  0.00    +0.000 A 
ATOM     15  C   UNL     1       1.670   7.491  20.588  0.00  0.00    +0.000 A 
ATOM     16  C   UNL     1       2.639   6.715  19.941  0.00  0.00    +0.000 A 
BRANCH  14  17
ATOM     17  N   UNL     1       0.123   9.433  20.612  0.00  0.00    +0.000 N 
ATOM     18  O   UNL     1      -0.238   9.087  21.746  0.00  0.00    +0.000 OA
ATOM     19  O   UNL     1      -0.323  10.414  20.000  0.00  0.00    +0.000 OA
ENDBRANCH  14  17
ENDBRANCH   4  11
BRANCH   1  23
ATOM     20  C   UNL     1       8.752   9.592  19.130  0.00  0.00    +0.000 C 
ATOM     21  C   UNL     1       8.267   8.724  18.005  0.00  0.00    +0.000 C 
ATOM     22  O   UNL     1       8.124   9.132  16.853  0.00  0.00    +0.000 OA
ATOM     23  N   UNL     1       7.984   7.424  18.369  0.00  0.00    +0.000 N 
ATOM     24  H   UNL     1       8.299   6.980  19.230  0.00  0.00    +0.000 HD
ENDBRANCH   1  23
BRANCH   5  25
ATOM     25  C   UNL     1       2.333   4.514  17.455  0.00  0.00    +0.000 C 
ATOM     26  N   UNL     1       1.164   4.047  17.502  0.00  0.00    +0.000 NA
ENDBRANCH   5  25
TORSDOF 4
ENDMDL
MODEL 6
REMARK VINA RESULT:      -6.6      7.467      9.878
REMARK  Name = 
REMARK  6 active torsions:
REMARK  status: ('A' for Active; 'I' for Inactive)
REMARK    1  A    between atoms: C_1  and  C_2
REMARK    2  A    between atoms: N_4  and  N_5
REMARK    3  A    between atoms: C_8  and  C_9
REMARK    4  A    between atoms: C_12  and  N_13
REMARK    5  A    between atoms: C_18  and  C_19
REMARK    6  A    between atoms: N_23  and  C_24
REMARK                            x       y       z     vdW  Elec       q    Type
REMARK                         _______ _______ _______ _____ _____    ______ ____
ROOT
ATOM      1  N   UNL     1      -0.446  12.298  18.373  0.00  0.00    +0.000 N 
ATOM      2  C   UNL     1      -0.549  12.846  19.635  0.00  0.00    +0.000 A 
ATOM      3  N   UNL     1      -1.693  12.797  20.264  0.00  0.00    +0.000 NA
ATOM      4  C   UNL     1      -1.777  13.304  21.536  0.00  0.00    +0.000 A 
ATOM      5  C   UNL     1      -0.750  13.863  22.193  0.00  0.00    +0.000 A 
ATOM      6  C   UNL     1       0.546  13.937  21.501  0.00  0.00    +0.000 A 
ATOM      7  O   UNL     1       1.518  14.431  22.068  0.00  0.00    +0.000 OA
ATOM      8  N   UNL     1       0.576  13.427  20.213  0.00  0.00    +0.000 N 
ATOM      9  C   UNL     1       1.838  13.514  19.491  0.00  0.00    +0.000 C 
ATOM     10  H   UNL     1       0.375  12.483  17.797  0.00  0.00    +0.000 HD
ENDROOT
BRANCH   4  11
ATOM     11  C   UNL     1      -3.110  13.198  22.171  0.00  0.00    +0.000 A 
ATOM     12  C   UNL     1      -4.230  13.782  21.563  0.00  0.00    +0.000 A 
ATOM     13  C   UNL     1      -5.498  13.657  22.141  0.00  0.00    +0.000 A 
ATOM     14  C   UNL     1      -5.645  12.940  23.336  0.00  0.00    +0.000 A 
ATOM     15  C   UNL     1      -4.532  12.362  23.960  0.00  0.00    +0.000 A 
ATOM     16  C   UNL     1      -3.268  12.492  23.374  0.00  0.00    +0.000 A 
BRANCH  14  17
ATOM     17  N   UNL     1      -6.980  12.777  23.926  0.00  0.00    +0.000 N 
ATOM     18  O   UNL     1      -7.546  13.792  24.358  0.00  0.00    +0.000 OA
ATOM     19  O   UNL     1      -7.468  11.638  23.945  0.00  0.00    +0.000 OA
ENDBRANCH  14  17
ENDBRANCH   4  11
BRANCH   1  23
ATOM     20  C   UNL     1      -3.240  11.018  16.296  0.00  0.00    +0.000 C 
ATOM     21  C   UNL     1      -2.038  11.010  17.195  0.00  0.00    +0.000 C 
ATOM     22  O   UNL     1      -1.470   9.979  17.551  0.00  0.00    +0.000 OA
ATOM     23  N   UNL     1      -1.620  12.261  17.600  0.00  0.00    +0.000 N 
ATOM     24  H   UNL     1      -1.898  13.137  17.160  0.00  0.00    +0.000 HD
ENDBRANCH   1  23
BRANCH   5  25
ATOM     25  C   UNL     1      -0.868  14.470  23.582  0.00  0.00    +0.000 C 
ATOM     26  N   UNL     1      -0.966  14.973  24.733  0.00  0.00    +0.000 NA
ENDBRANCH   5  25
TORSDOF 4
ENDMDL
MODEL 7
REMARK VINA RESULT:      -6.6      1.316      1.512
REMARK  Name = 
REMARK  6 active torsions:
REMARK  status: ('A' for Active; 'I' for Inactive)
REMARK    1  A    between atoms: C_1  and  C_2
REMARK    2  A    between atoms: N_4  and  N_5
REMARK    3  A    between atoms: C_8  and  C_9
REMARK    4  A    between atoms: C_12  and  N_13
REMARK    5  A    between atoms: C_18  and  C_19
REMARK    6  A    between atoms: N_23  and  C_24
REMARK                            x       y       z     vdW  Elec       q    Type
REMARK                         _______ _______ _______ _____ _____    ______ ____
ROOT
ATOM      1  N   UNL     1       7.583   6.566  17.331  0.00  0.00    +0.000 N 
ATOM      2  C   UNL     1       6.307   6.043  17.373  0.00  0.00    +0.000 A 
ATOM      3  N   UNL     1       5.357   6.719  17.963  0.00  0.00    +0.000 NA
ATOM      4  C   UNL     1       4.081   6.214  17.963  0.00  0.00    +0.000 A 
ATOM      5  C   UNL     1       3.731   5.051  17.393  0.00  0.00    +0.000 A 
ATOM      6  C   UNL     1       4.787   4.270  16.730  0.00  0.00    +0.000 A 
ATOM      7  O   UNL     1       4.512   3.203  16.186  0.00  0.00    +0.000 OA
ATOM      8  N   UNL     1       6.061   4.813  16.772  0.00  0.00    +0.000 N 
ATOM      9  C   UNL     1       7.132   4.046  16.151  0.00  0.00    +0.000 C 
ATOM     10  H   UNL     1       8.368   5.984  17.041  0.00  0.00    +0.000 HD
ENDROOT
BRANCH   4  11
ATOM     11  C   UNL     1       3.071   7.051  18.648  0.00  0.00    +0.000 A 
ATOM     12  C   UNL     1       2.631   6.714  19.935  0.00  0.00    +0.000 A 
ATOM     13  C   UNL     1       1.701   7.520  20.601  0.00  0.00    +0.000 A 
ATOM     14  C   UNL     1       1.210   8.672  19.975  0.00  0.00    +0.000 A 
ATOM     15  C   UNL     1       1.633   9.015  18.683  0.00  0.00    +0.000 A 
ATOM     16  C   UNL     1       2.564   8.202  18.025  0.00  0.00    +0.000 A 
BRANCH  14  17
ATOM     17  N   UNL     1       0.261   9.539  20.686  0.00  0.00    +0.000 N 
ATOM     18  O   UNL     1      -0.471  10.272  20.004  0.00  0.00    +0.000 OA
ATOM     19  O   UNL     1       0.237   9.476  21.923  0.00  0.00    +0.000 OA
ENDBRANCH  14  17
ENDBRANCH   4  11
BRANCH   1  23
ATOM     20  C   UNL     1       8.756   9.595  19.123  0.00  0.00    +0.000 C 
ATOM     21  C   UNL     1       8.286   8.721  17.996  0.00  0.00    +0.000 C 
ATOM     22  O   UNL     1       8.203   9.109  16.832  0.00  0.00    +0.000 OA
ATOM     23  N   UNL     1       7.946   7.439  18.373  0.00  0.00    +0.000 N 
ATOM     24  H   UNL     1       8.212   7.002  19.255  0.00  0.00    +0.000 HD
ENDBRANCH   1  23
BRANCH   5  25
ATOM     25  C   UNL     1       2.325   4.476  17.445  0.00  0.00    +0.000 C 
ATOM     26  N   UNL     1       1.159   4.000  17.488  0.00  0.00    +0.000 NA
ENDBRANCH   5  25
TORSDOF 4
ENDMDL
MODEL 8
REMARK VINA RESULT:      -6.4      6.994     10.017
REMARK  Name = 
REMARK  6 active torsions:
REMARK  status: ('A' for Active; 'I' for Inactive)
REMARK    1  A    between atoms: C_1  and  C_2
REMARK    2  A    between atoms: N_4  and  N_5
REMARK    3  A    between atoms: C_8  and  C_9
REMARK    4  A    between atoms: C_12  and  N_13
REMARK    5  A    between atoms: C_18  and  C_19
REMARK    6  A    between atoms: N_23  and  C_24
REMARK                            x       y       z     vdW  Elec       q    Type
REMARK                         _______ _______ _______ _____ _____    ______ ____
ROOT
ATOM      1  N   UNL     1      -4.598  11.467  17.365  0.00  0.00    +0.000 N 
ATOM      2  C   UNL     1      -3.475  11.517  18.166  0.00  0.00    +0.000 A 
ATOM      3  N   UNL     1      -3.515  12.193  19.284  0.00  0.00    +0.000 NA
ATOM      4  C   UNL     1      -2.409  12.201  20.097  0.00  0.00    +0.000 A 
ATOM      5  C   UNL     1      -1.266  11.557  19.821  0.00  0.00    +0.000 A 
ATOM      6  C   UNL     1      -1.197  10.796  18.563  0.00  0.00    +0.000 A 
ATOM      7  O   UNL     1      -0.173  10.182  18.272  0.00  0.00    +0.000 OA
ATOM      8  N   UNL     1      -2.332  10.832  17.768  0.00  0.00    +0.000 N 
ATOM      9  C   UNL     1      -2.281  10.113  16.503  0.00  0.00    +0.000 C 
ATOM     10  H   UNL     1      -4.536  11.103  16.415  0.00  0.00    +0.000 HD
ENDROOT
BRANCH   4  11
ATOM     11  C   UNL     1      -2.549  12.987  21.343  0.00  0.00    +0.000 A 
ATOM     12  C   UNL     1      -2.292  14.365  21.341  0.00  0.00    +0.000 A 
ATOM     13  C   UNL     1      -2.454  15.118  22.509  0.00  0.00    +0.000 A 
ATOM     14  C   UNL     1      -2.879  14.489  23.686  0.00  0.00    +0.000 A 
ATOM     15  C   UNL     1      -3.129  13.110  23.704  0.00  0.00    +0.000 A 
ATOM     16  C   UNL     1      -2.964  12.364  22.531  0.00  0.00    +0.000 A 
BRANCH  14  17
ATOM     17  N   UNL     1      -3.085  15.284  24.904  0.00  0.00    +0.000 N 
ATOM     18  O   UNL     1      -4.047  16.065  24.925  0.00  0.00    +0.000 OA
ATOM     19  O   UNL     1      -2.293  15.117  25.842  0.00  0.00    +0.000 OA
ENDBRANCH  14  17
ENDBRANCH   4  11
BRANCH   1  23
ATOM     20  C   UNL     1      -7.704  13.441  17.829  0.00  0.00    +0.000 C 
ATOM     21  C   UNL     1      -6.767  12.268  17.847  0.00  0.00    +0.000 C 
ATOM     22  O   UNL     1      -7.109  11.139  18.197  0.00  0.00    +0.000 OA
ATOM     23  N   UNL     1      -5.481  12.559  17.443  0.00  0.00    +0.000 N 
ATOM     24  H   UNL     1      -5.208  13.397  16.931  0.00  0.00    +0.000 HD
ENDBRANCH   1  23
BRANCH   5  25
ATOM     25  C   UNL     1      -0.030  11.617  20.703  0.00  0.00    +0.000 C 
ATOM     26  N   UNL     1       0.995  11.667  21.434  0.00  0.00    +0.000 NA
ENDBRANCH   5  25
TORSDOF 4
ENDMDL
MODEL 9
REMARK VINA RESULT:      -6.3      7.006      9.952
REMARK  Name = 
REMARK  6 active torsions:
REMARK  status: ('A' for Active; 'I' for Inactive)
REMARK    1  A    between atoms: C_1  and  C_2
REMARK    2  A    between atoms: N_4  and  N_5
REMARK    3  A    between atoms: C_8  and  C_9
REMARK    4  A    between atoms: C_12  and  N_13
REMARK    5  A    between atoms: C_18  and  C_19
REMARK    6  A    between atoms: N_23  and  C_24
REMARK                            x       y       z     vdW  Elec       q    Type
REMARK                         _______ _______ _______ _____ _____    ______ ____
ROOT
ATOM      1  N   UNL     1      -4.568  11.448  17.373  0.00  0.00    +0.000 N 
ATOM      2  C   UNL     1      -3.459  11.502  18.193  0.00  0.00    +0.000 A 
ATOM      3  N   UNL     1      -3.514  12.197  19.299  0.00  0.00    +0.000 NA
ATOM      4  C   UNL     1      -2.424  12.210  20.132  0.00  0.00    +0.000 A 
ATOM      5  C   UNL     1      -1.281  11.551  19.888  0.00  0.00    +0.000 A 
ATOM      6  C   UNL     1      -1.195  10.769  18.645  0.00  0.00    +0.000 A 
ATOM      7  O   UNL     1      -0.171  10.141  18.384  0.00  0.00    +0.000 OA
ATOM      8  N   UNL     1      -2.315  10.801  17.829  0.00  0.00    +0.000 N 
ATOM      9  C   UNL     1      -2.246  10.060  16.576  0.00  0.00    +0.000 C 
ATOM     10  H   UNL     1      -4.491  11.068  16.430  0.00  0.00    +0.000 HD
ENDROOT
BRANCH   4  11
ATOM     11  C   UNL     1      -2.580  13.017  21.362  0.00  0.00    +0.000 A 
ATOM     12  C   UNL     1      -3.055  12.425  22.540  0.00  0.00    +0.000 A 
ATOM     13  C   UNL     1      -3.174  13.176  23.715  0.00  0.00    +0.000 A 
ATOM     14  C   UNL     1      -2.812  14.529  23.710  0.00  0.00    +0.000 A 
ATOM     15  C   UNL     1      -2.347  15.137  22.536  0.00  0.00    +0.000 A 
ATOM     16  C   UNL     1      -2.231  14.377  21.366  0.00  0.00    +0.000 A 
BRANCH  14  17
ATOM     17  N   UNL     1      -2.903  15.311  24.950  0.00  0.00    +0.000 N 
ATOM     18  O   UNL     1      -1.997  15.171  25.786  0.00  0.00    +0.000 OA
ATOM     19  O   UNL     1      -3.870  16.074  25.083  0.00  0.00    +0.000 OA
ENDBRANCH  14  17
ENDBRANCH   4  11
BRANCH   1  23
ATOM     20  C   UNL     1      -7.664  13.456  17.744  0.00  0.00    +0.000 C 
ATOM     21  C   UNL     1      -6.738  12.275  17.800  0.00  0.00    +0.000 C 
ATOM     22  O   UNL     1      -7.095  11.155  18.162  0.00  0.00    +0.000 OA
ATOM     23  N   UNL     1      -5.442  12.549  17.415  0.00  0.00    +0.000 N 
ATOM     24  H   UNL     1      -5.153  13.375  16.895  0.00  0.00    +0.000 HD
ENDBRANCH   1  23
BRANCH   5  25
ATOM     25  C   UNL     1      -0.061  11.616  20.792  0.00  0.00    +0.000 C 
ATOM     26  N   UNL     1       0.950  11.669  21.542  0.00  0.00    +0.000 NA
ENDBRANCH   5  25
TORSDOF 4
ENDMDL
