MODEL 1
REMARK VINA RESULT:      -8.3      0.000      0.000
REMARK  Name = 
REMARK  4 active torsions:
REMARK  status: ('A' for Active; 'I' for Inactive)
REMARK    1  A    between atoms: C_1  and  C_2
REMARK    2  A    between atoms: C_5  and  C_7
REMARK    3  A    between atoms: C_16  and  C_17
REMARK    4  A    between atoms: C_18  and  C_19
REMARK                            x       y       z     vdW  Elec       q    Type
REMARK                         _______ _______ _______ _____ _____    ______ ____
ROOT
ATOM      1  C   UNL     1       0.048   8.840  22.264  0.00  0.00    +0.000 C 
ATOM      2  C   UNL     1       0.669   9.010  20.926  0.00  0.00    +0.000 A 
ATOM      3  N   UNL     1       1.247   7.962  20.330  0.00  0.00    +0.000 NA
ATOM      4  N   UNL     1       1.798   8.459  19.186  0.00  0.00    +0.000 N 
ATOM      5  C   UNL     1       2.589   7.630  18.363  0.00  0.00    +0.000 C 
ATOM      6  O   UNL     1       3.267   8.165  17.484  0.00  0.00    +0.000 OA
ATOM      7  C   UNL     1       1.517   9.802  19.058  0.00  0.00    +0.000 A 
ATOM      8  C   UNL     1       0.773  10.186  20.144  0.00  0.00    +0.000 A 
ATOM      9  C   UNL     1       0.310  11.575  20.418  0.00  0.00    +0.000 C 
ATOM     10  S   UNL     1       0.683  12.779  19.091  0.00  0.00    +0.000 S 
ATOM     11  C   UNL     1       1.888  11.961  18.119  0.00  0.00    +0.000 C 
ATOM     12  N   UNL     1       2.685  12.711  17.439  0.00  0.00    +0.000 NA
ATOM     13  N   UNL     1       1.968  10.605  18.078  0.00  0.00    +0.000 N 
ATOM     14  H   UNL     1       2.433  13.683  17.657  0.00  0.00    +0.000 HD
ATOM     15  H   UNL     1       2.657  10.257  17.407  0.00  0.00    +0.000 HD
ENDROOT
BRANCH   5  16
ATOM     16  C   UNL     1       2.646   6.156  18.543  0.00  0.00    +0.000 A 
ATOM     17  C   UNL     1       3.644   5.597  19.352  0.00  0.00    +0.000 A 
ATOM     18  C   UNL     1       3.772   4.213  19.450  0.00  0.00    +0.000 A 
ATOM     19  C   UNL     1       2.888   3.390  18.759  0.00  0.00    +0.000 A 
ATOM     20 CL   UNL     1       3.087   1.683  18.835  0.00  0.00    +0.000 Cl
ATOM     21  C   UNL     1       1.856   3.939  17.994  0.00  0.00    +0.000 A 
ATOM     22  C   UNL     1       1.723   5.332  17.891  0.00  0.00    +0.000 A 
ENDBRANCH   5  16
BRANCH   9  23
ATOM     23  C   UNL     1      -1.179  11.617  20.663  0.00  0.00    +0.000 C 
ATOM     24  C   UNL     1      -1.992  12.590  20.220  0.00  0.00    +0.000 C 
BRANCH  24  25
ATOM     25  C   UNL     1      -3.413  12.616  20.565  0.00  0.00    +0.000 A 
ATOM     26  C   UNL     1      -3.800  12.855  21.889  0.00  0.00    +0.000 A 
ATOM     27  C   UNL     1      -5.151  12.866  22.239  0.00  0.00    +0.000 A 
ATOM     28  C   UNL     1      -6.123  12.639  21.266  0.00  0.00    +0.000 A 
ATOM     29  C   UNL     1      -5.744  12.404  19.944  0.00  0.00    +0.000 A 
ATOM     30  C   UNL     1      -4.392  12.390  19.594  0.00  0.00    +0.000 A 
ENDBRANCH  24  25
ENDBRANCH   9  23
TORSDOF 3
ENDMDL
MODEL 2
REMARK VINA RESULT:      -8.3      1.052      1.738
REMARK  Name = 
REMARK  4 active torsions:
REMARK  status: ('A' for Active; 'I' for Inactive)
REMARK    1  A    between atoms: C_1  and  C_2
REMARK    2  A    between atoms: C_5  and  C_7
REMARK    3  A    between atoms: C_16  and  C_17
REMARK    4  A    between atoms: C_18  and  C_19
REMARK                            x       y       z     vdW  Elec       q    Type
REMARK                         _______ _______ _______ _____ _____    ______ ____
ROOT
ATOM      1  C   UNL     1       0.092   9.350  22.770  0.00  0.00    +0.000 C 
ATOM      2  C   UNL     1       0.594   9.436  21.375  0.00  0.00    +0.000 A 
ATOM      3  N   UNL     1       1.056   8.335  20.772  0.00  0.00    +0.000 NA
ATOM      4  N   UNL     1       1.524   8.758  19.564  0.00  0.00    +0.000 N 
ATOM      5  C   UNL     1       2.188   7.856  18.706  0.00  0.00    +0.000 C 
ATOM      6  O   UNL     1       2.809   8.319  17.748  0.00  0.00    +0.000 OA
ATOM      7  C   UNL     1       1.305  10.110  19.406  0.00  0.00    +0.000 A 
ATOM      8  C   UNL     1       0.688  10.575  20.540  0.00  0.00    +0.000 A 
ATOM      9  C   UNL     1       0.329  11.997  20.797  0.00  0.00    +0.000 C 
ATOM     10  S   UNL     1       0.642  13.129  19.394  0.00  0.00    +0.000 S 
ATOM     11  C   UNL     1       1.704  12.209  18.351  0.00  0.00    +0.000 C 
ATOM     12  N   UNL     1       2.474  12.887  17.570  0.00  0.00    +0.000 NA
ATOM     13  N   UNL     1       1.706  10.850  18.357  0.00  0.00    +0.000 N 
ATOM     14  H   UNL     1       2.297  13.879  17.770  0.00  0.00    +0.000 HD
ATOM     15  H   UNL     1       2.309  10.439  17.641  0.00  0.00    +0.000 HD
ENDROOT
BRANCH   5  16
ATOM     16  C   UNL     1       2.181   6.389  18.940  0.00  0.00    +0.000 A 
ATOM     17  C   UNL     1       2.080   5.516  17.848  0.00  0.00    +0.000 A 
ATOM     18  C   UNL     1       1.971   4.142  18.058  0.00  0.00    +0.000 A 
ATOM     19  C   UNL     1       1.988   3.641  19.356  0.00  0.00    +0.000 A 
ATOM     20 CL   UNL     1       1.793   1.951  19.613  0.00  0.00    +0.000 Cl
ATOM     21  C   UNL     1       2.145   4.500  20.447  0.00  0.00    +0.000 A 
ATOM     22  C   UNL     1       2.254   5.883  20.243  0.00  0.00    +0.000 A 
ENDBRANCH   5  16
BRANCH   9  23
ATOM     23  C   UNL     1      -1.126  12.134  21.175  0.00  0.00    +0.000 C 
ATOM     24  C   UNL     1      -1.564  12.721  22.302  0.00  0.00    +0.000 C 
BRANCH  24  25
ATOM     25  C   UNL     1      -2.984  12.745  22.649  0.00  0.00    +0.000 A 
ATOM     26  C   UNL     1      -3.944  12.861  21.636  0.00  0.00    +0.000 A 
ATOM     27  C   UNL     1      -5.302  12.900  21.952  0.00  0.00    +0.000 A 
ATOM     28  C   UNL     1      -5.709  12.824  23.283  0.00  0.00    +0.000 A 
ATOM     29  C   UNL     1      -4.759  12.704  24.296  0.00  0.00    +0.000 A 
ATOM     30  C   UNL     1      -3.398  12.667  23.981  0.00  0.00    +0.000 A 
ENDBRANCH  24  25
ENDBRANCH   9  23
TORSDOF 3
ENDMDL
MODEL 3
REMARK VINA RESULT:      -8.2      0.278      1.322
REMARK  Name = 
REMARK  4 active torsions:
REMARK  status: ('A' for Active; 'I' for Inactive)
REMARK    1  A    between atoms: C_1  and  C_2
REMARK    2  A    between atoms: C_5  and  C_7
REMARK    3  A    between atoms: C_16  and  C_17
REMARK    4  A    between atoms: C_18  and  C_19
REMARK                            x       y       z     vdW  Elec       q    Type
REMARK                         _______ _______ _______ _____ _____    ______ ____
ROOT
ATOM      1  C   UNL     1      -0.025   8.921  22.265  0.00  0.00    +0.000 C 
ATOM      2  C   UNL     1       0.604   9.097  20.931  0.00  0.00    +0.000 A 
ATOM      3  N   UNL     1       1.184   8.051  20.333  0.00  0.00    +0.000 NA
ATOM      4  N   UNL     1       1.742   8.553  19.195  0.00  0.00    +0.000 N 
ATOM      5  C   UNL     1       2.537   7.726  18.372  0.00  0.00    +0.000 C 
ATOM      6  O   UNL     1       3.220   8.265  17.500  0.00  0.00    +0.000 OA
ATOM      7  C   UNL     1       1.464   9.897  19.072  0.00  0.00    +0.000 A 
ATOM      8  C   UNL     1       0.714  10.276  20.156  0.00  0.00    +0.000 A 
ATOM      9  C   UNL     1       0.252  11.665  20.434  0.00  0.00    +0.000 C 
ATOM     10  S   UNL     1       0.634  12.875  19.115  0.00  0.00    +0.000 S 
ATOM     11  C   UNL     1       1.843  12.060  18.146  0.00  0.00    +0.000 C 
ATOM     12  N   UNL     1       2.646  12.813  17.474  0.00  0.00    +0.000 NA
ATOM     13  N   UNL     1       1.922  10.704  18.098  0.00  0.00    +0.000 N 
ATOM     14  H   UNL     1       2.394  13.784  17.696  0.00  0.00    +0.000 HD
ATOM     15  H   UNL     1       2.614  10.359  17.429  0.00  0.00    +0.000 HD
ENDROOT
BRANCH   5  16
ATOM     16  C   UNL     1       2.591   6.252  18.545  0.00  0.00    +0.000 A 
ATOM     17  C   UNL     1       1.689   5.441  17.842  0.00  0.00    +0.000 A 
ATOM     18  C   UNL     1       1.660   4.066  18.069  0.00  0.00    +0.000 A 
ATOM     19  C   UNL     1       2.548   3.501  18.980  0.00  0.00    +0.000 A 
ATOM     20 CL   UNL     1       2.469   1.813  19.301  0.00  0.00    +0.000 Cl
ATOM     21  C   UNL     1       3.488   4.294  19.642  0.00  0.00    +0.000 A 
ATOM     22  C   UNL     1       3.520   5.679  19.419  0.00  0.00    +0.000 A 
ENDBRANCH   5  16
BRANCH   9  23
ATOM     23  C   UNL     1      -1.239  11.707  20.670  0.00  0.00    +0.000 C 
ATOM     24  C   UNL     1      -2.101  12.436  19.941  0.00  0.00    +0.000 C 
BRANCH  24  25
ATOM     25  C   UNL     1      -3.523  12.500  20.277  0.00  0.00    +0.000 A 
ATOM     26  C   UNL     1      -4.480  12.215  19.296  0.00  0.00    +0.000 A 
ATOM     27  C   UNL     1      -5.841  12.287  19.596  0.00  0.00    +0.000 A 
ATOM     28  C   UNL     1      -6.252  12.644  20.879  0.00  0.00    +0.000 A 
ATOM     29  C   UNL     1      -5.304  12.925  21.862  0.00  0.00    +0.000 A 
ATOM     30  C   UNL     1      -3.941  12.855  21.562  0.00  0.00    +0.000 A 
ENDBRANCH  24  25
ENDBRANCH   9  23
TORSDOF 3
ENDMDL
MODEL 4
REMARK VINA RESULT:      -8.1      0.906      1.164
REMARK  Name = 
REMARK  4 active torsions:
REMARK  status: ('A' for Active; 'I' for Inactive)
REMARK    1  A    between atoms: C_1  and  C_2
REMARK    2  A    between atoms: C_5  and  C_7
REMARK    3  A    between atoms: C_16  and  C_17
REMARK    4  A    between atoms: C_18  and  C_19
REMARK                            x       y       z     vdW  Elec       q    Type
REMARK                         _______ _______ _______ _____ _____    ______ ____
ROOT
ATOM      1  C   UNL     1       0.135   9.331  22.670  0.00  0.00    +0.000 C 
ATOM      2  C   UNL     1       0.644   9.425  21.278  0.00  0.00    +0.000 A 
ATOM      3  N   UNL     1       1.101   8.326  20.668  0.00  0.00    +0.000 NA
ATOM      4  N   UNL     1       1.578   8.756  19.465  0.00  0.00    +0.000 N 
ATOM      5  C   UNL     1       2.239   7.856  18.603  0.00  0.00    +0.000 C 
ATOM      6  O   UNL     1       2.868   8.322  17.651  0.00  0.00    +0.000 OA
ATOM      7  C   UNL     1       1.371  10.111  19.319  0.00  0.00    +0.000 A 
ATOM      8  C   UNL     1       0.752  10.571  20.453  0.00  0.00    +0.000 A 
ATOM      9  C   UNL     1       0.403  11.993  20.721  0.00  0.00    +0.000 C 
ATOM     10  S   UNL     1       0.730  13.135  19.329  0.00  0.00    +0.000 S 
ATOM     11  C   UNL     1       1.791  12.216  18.283  0.00  0.00    +0.000 C 
ATOM     12  N   UNL     1       2.570  12.894  17.512  0.00  0.00    +0.000 NA
ATOM     13  N   UNL     1       1.782  10.856  18.278  0.00  0.00    +0.000 N 
ATOM     14  H   UNL     1       2.399  13.886  17.720  0.00  0.00    +0.000 HD
ATOM     15  H   UNL     1       2.386  10.447  17.561  0.00  0.00    +0.000 HD
ENDROOT
BRANCH   5  16
ATOM     16  C   UNL     1       2.220   6.387  18.824  0.00  0.00    +0.000 A 
ATOM     17  C   UNL     1       2.726   5.862  20.021  0.00  0.00    +0.000 A 
ATOM     18  C   UNL     1       2.807   4.482  20.201  0.00  0.00    +0.000 A 
ATOM     19  C   UNL     1       2.360   3.630  19.196  0.00  0.00    +0.000 A 
ATOM     20 CL   UNL     1       2.516   1.929  19.397  0.00  0.00    +0.000 Cl
ATOM     21  C   UNL     1       1.802   4.145  18.023  0.00  0.00    +0.000 A 
ATOM     22  C   UNL     1       1.719   5.533  17.835  0.00  0.00    +0.000 A 
ENDBRANCH   5  16
BRANCH   9  23
ATOM     23  C   UNL     1      -1.054  12.138  21.094  0.00  0.00    +0.000 C 
ATOM     24  C   UNL     1      -1.492  12.716  22.225  0.00  0.00    +0.000 C 
BRANCH  24  25
ATOM     25  C   UNL     1      -2.914  12.747  22.566  0.00  0.00    +0.000 A 
ATOM     26  C   UNL     1      -3.307  12.666  23.907  0.00  0.00    +0.000 A 
ATOM     27  C   UNL     1      -4.660  12.679  24.248  0.00  0.00    +0.000 A 
ATOM     28  C   UNL     1      -5.628  12.773  23.249  0.00  0.00    +0.000 A 
ATOM     29  C   UNL     1      -5.243  12.858  21.912  0.00  0.00    +0.000 A 
ATOM     30  C   UNL     1      -3.889  12.844  21.569  0.00  0.00    +0.000 A 
ENDBRANCH  24  25
ENDBRANCH   9  23
TORSDOF 3
ENDMDL
MODEL 5
REMARK VINA RESULT:      -8.1      0.678      1.259
REMARK  Name = 
REMARK  4 active torsions:
REMARK  status: ('A' for Active; 'I' for Inactive)
REMARK    1  A    between atoms: C_1  and  C_2
REMARK    2  A    between atoms: C_5  and  C_7
REMARK    3  A    between atoms: C_16  and  C_17
REMARK    4  A    between atoms: C_18  and  C_19
REMARK                            x       y       z     vdW  Elec       q    Type
REMARK                         _______ _______ _______ _____ _____    ______ ____
ROOT
ATOM      1  C   UNL     1      -0.451   8.929  21.963  0.00  0.00    +0.000 C 
ATOM      2  C   UNL     1       0.353   9.090  20.725  0.00  0.00    +0.000 A 
ATOM      3  N   UNL     1       0.984   8.030  20.207  0.00  0.00    +0.000 NA
ATOM      4  N   UNL     1       1.699   8.518  19.154  0.00  0.00    +0.000 N 
ATOM      5  C   UNL     1       2.577   7.673  18.442  0.00  0.00    +0.000 C 
ATOM      6  O   UNL     1       3.382   8.195  17.669  0.00  0.00    +0.000 OA
ATOM      7  C   UNL     1       1.471   9.868  18.998  0.00  0.00    +0.000 A 
ATOM      8  C   UNL     1       0.593  10.266  19.974  0.00  0.00    +0.000 A 
ATOM      9  C   UNL     1       0.130  11.664  20.191  0.00  0.00    +0.000 C 
ATOM     10  S   UNL     1       0.711  12.864  18.938  0.00  0.00    +0.000 S 
ATOM     11  C   UNL     1       2.019  12.021  18.137  0.00  0.00    +0.000 C 
ATOM     12  N   UNL     1       2.921  12.754  17.579  0.00  0.00    +0.000 NA
ATOM     13  N   UNL     1       2.072  10.663  18.096  0.00  0.00    +0.000 N 
ATOM     14  H   UNL     1       2.664  13.731  17.767  0.00  0.00    +0.000 HD
ATOM     15  H   UNL     1       2.839  10.302  17.524  0.00  0.00    +0.000 HD
ENDROOT
BRANCH   5  16
ATOM     16  C   UNL     1       2.573   6.198  18.617  0.00  0.00    +0.000 A 
ATOM     17  C   UNL     1       1.726   5.411  17.825  0.00  0.00    +0.000 A 
ATOM     18  C   UNL     1       1.637   4.037  18.045  0.00  0.00    +0.000 A 
ATOM     19  C   UNL     1       2.413   3.449  19.041  0.00  0.00    +0.000 A 
ATOM     20 CL   UNL     1       2.256   1.764  19.350  0.00  0.00    +0.000 Cl
ATOM     21  C   UNL     1       3.301   4.218  19.797  0.00  0.00    +0.000 A 
ATOM     22  C   UNL     1       3.393   5.601  19.580  0.00  0.00    +0.000 A 
ENDBRANCH   5  16
BRANCH   9  23
ATOM     23  C   UNL     1      -1.378  11.742  20.228  0.00  0.00    +0.000 C 
ATOM     24  C   UNL     1      -2.155  11.888  19.142  0.00  0.00    +0.000 C 
BRANCH  24  25
ATOM     25  C   UNL     1      -3.605  12.042  19.255  0.00  0.00    +0.000 A 
ATOM     26  C   UNL     1      -4.145  12.744  20.340  0.00  0.00    +0.000 A 
ATOM     27  C   UNL     1      -5.526  12.887  20.471  0.00  0.00    +0.000 A 
ATOM     28  C   UNL     1      -6.377  12.329  19.518  0.00  0.00    +0.000 A 
ATOM     29  C   UNL     1      -5.846  11.632  18.433  0.00  0.00    +0.000 A 
ATOM     30  C   UNL     1      -4.463  11.486  18.302  0.00  0.00    +0.000 A 
ENDBRANCH  24  25
ENDBRANCH   9  23
TORSDOF 3
ENDMDL
MODEL 6
REMARK VINA RESULT:      -7.4      5.022     10.190
REMARK  Name = 
REMARK  4 active torsions:
REMARK  status: ('A' for Active; 'I' for Inactive)
REMARK    1  A    between atoms: C_1  and  C_2
REMARK    2  A    between atoms: C_5  and  C_7
REMARK    3  A    between atoms: C_16  and  C_17
REMARK    4  A    between atoms: C_18  and  C_19
REMARK                            x       y       z     vdW  Elec       q    Type
REMARK                         _______ _______ _______ _____ _____    ______ ____
ROOT
ATOM      1  C   UNL     1       5.787   6.718  17.809  0.00  0.00    +0.000 C 
ATOM      2  C   UNL     1       4.469   6.203  18.260  0.00  0.00    +0.000 A 
ATOM      3  N   UNL     1       3.609   7.033  18.860  0.00  0.00    +0.000 NA
ATOM      4  N   UNL     1       2.557   6.249  19.234  0.00  0.00    +0.000 N 
ATOM      5  C   UNL     1       1.505   6.795  20.000  0.00  0.00    +0.000 C 
ATOM      6  O   UNL     1       0.708   6.016  20.525  0.00  0.00    +0.000 OA
ATOM      7  C   UNL     1       2.752   4.949  18.821  0.00  0.00    +0.000 A 
ATOM      8  C   UNL     1       3.958   4.886  18.171  0.00  0.00    +0.000 A 
ATOM      9  C   UNL     1       4.569   3.645  17.619  0.00  0.00    +0.000 C 
ATOM     10  S   UNL     1       3.511   2.157  17.733  0.00  0.00    +0.000 S 
ATOM     11  C   UNL     1       2.280   2.614  18.891  0.00  0.00    +0.000 C 
ATOM     12  N   UNL     1       1.713   1.654  19.538  0.00  0.00    +0.000 NA
ATOM     13  N   UNL     1       1.936   3.914  19.087  0.00  0.00    +0.000 N 
ATOM     14  H   UNL     1       2.160   0.783  19.225  0.00  0.00    +0.000 HD
ATOM     15  H   UNL     1       1.146   4.035  19.726  0.00  0.00    +0.000 HD
ENDROOT
BRANCH   5  16
ATOM     16  C   UNL     1       1.352   8.258  20.208  0.00  0.00    +0.000 A 
ATOM     17  C   UNL     1       1.254   8.764  21.511  0.00  0.00    +0.000 A 
ATOM     18  C   UNL     1       1.009  10.120  21.720  0.00  0.00    +0.000 A 
ATOM     19  C   UNL     1       0.887  10.972  20.626  0.00  0.00    +0.000 A 
ATOM     20 CL   UNL     1       0.525  12.634  20.885  0.00  0.00    +0.000 Cl
ATOM     21  C   UNL     1       1.039  10.486  19.325  0.00  0.00    +0.000 A 
ATOM     22  C   UNL     1       1.284   9.122  19.109  0.00  0.00    +0.000 A 
ENDBRANCH   5  16
BRANCH   9  23
ATOM     23  C   UNL     1       4.949   3.821  16.168  0.00  0.00    +0.000 C 
ATOM     24  C   UNL     1       6.208   3.761  15.702  0.00  0.00    +0.000 C 
BRANCH  24  25
ATOM     25  C   UNL     1       6.517   4.025  14.298  0.00  0.00    +0.000 A 
ATOM     26  C   UNL     1       7.439   5.026  13.968  0.00  0.00    +0.000 A 
ATOM     27  C   UNL     1       7.733   5.302  12.632  0.00  0.00    +0.000 A 
ATOM     28  C   UNL     1       7.106   4.579  11.618  0.00  0.00    +0.000 A 
ATOM     29  C   UNL     1       6.190   3.579  11.940  0.00  0.00    +0.000 A 
ATOM     30  C   UNL     1       5.893   3.303  13.277  0.00  0.00    +0.000 A 
ENDBRANCH  24  25
ENDBRANCH   9  23
TORSDOF 3
ENDMDL
MODEL 7
REMARK VINA RESULT:      -7.3      4.954     10.166
REMARK  Name = 
REMARK  4 active torsions:
REMARK  status: ('A' for Active; 'I' for Inactive)
REMARK    1  A    between atoms: C_1  and  C_2
REMARK    2  A    between atoms: C_5  and  C_7
REMARK    3  A    between atoms: C_16  and  C_17
REMARK    4  A    between atoms: C_18  and  C_19
REMARK                            x       y       z     vdW  Elec       q    Type
REMARK                         _______ _______ _______ _____ _____    ______ ____
ROOT
ATOM      1  C   UNL     1       5.776   7.110  17.396  0.00  0.00    +0.000 C 
ATOM      2  C   UNL     1       4.533   6.596  18.027  0.00  0.00    +0.000 A 
ATOM      3  N   UNL     1       3.652   7.459  18.542  0.00  0.00    +0.000 NA
ATOM      4  N   UNL     1       2.691   6.685  19.122  0.00  0.00    +0.000 N 
ATOM      5  C   UNL     1       1.650   7.285  19.863  0.00  0.00    +0.000 C 
ATOM      6  O   UNL     1       0.951   6.559  20.572  0.00  0.00    +0.000 OA
ATOM      7  C   UNL     1       2.959   5.349  18.921  0.00  0.00    +0.000 A 
ATOM      8  C   UNL     1       4.122   5.253  18.200  0.00  0.00    +0.000 A 
ATOM      9  C   UNL     1       4.792   3.978  17.820  0.00  0.00    +0.000 C 
ATOM     10  S   UNL     1       3.862   2.466  18.264  0.00  0.00    +0.000 S 
ATOM     11  C   UNL     1       2.676   3.035  19.419  0.00  0.00    +0.000 C 
ATOM     12  N   UNL     1       2.228   2.167  20.260  0.00  0.00    +0.000 NA
ATOM     13  N   UNL     1       2.244   4.324  19.419  0.00  0.00    +0.000 N 
ATOM     14  H   UNL     1       2.720   1.287  20.065  0.00  0.00    +0.000 HD
ATOM     15  H   UNL     1       1.490   4.502  20.086  0.00  0.00    +0.000 HD
ENDROOT
BRANCH   5  16
ATOM     16  C   UNL     1       1.397   8.749  19.833  0.00  0.00    +0.000 A 
ATOM     17  C   UNL     1       1.154   9.432  21.031  0.00  0.00    +0.000 A 
ATOM     18  C   UNL     1       0.816  10.785  21.010  0.00  0.00    +0.000 A 
ATOM     19  C   UNL     1       0.745  11.456  19.793  0.00  0.00    +0.000 A 
ATOM     20 CL   UNL     1       0.269  13.110  19.767  0.00  0.00    +0.000 Cl
ATOM     21  C   UNL     1       1.040  10.796  18.598  0.00  0.00    +0.000 A 
ATOM     22  C   UNL     1       1.380   9.435  18.613  0.00  0.00    +0.000 A 
ENDBRANCH   5  16
BRANCH   9  23
ATOM     23  C   UNL     1       5.063   3.924  16.336  0.00  0.00    +0.000 C 
ATOM     24  C   UNL     1       6.271   4.119  15.779  0.00  0.00    +0.000 C 
BRANCH  24  25
ATOM     25  C   UNL     1       6.449   4.138  14.328  0.00  0.00    +0.000 A 
ATOM     26  C   UNL     1       5.627   3.346  13.518  0.00  0.00    +0.000 A 
ATOM     27  C   UNL     1       5.794   3.341  12.133  0.00  0.00    +0.000 A 
ATOM     28  C   UNL     1       6.786   4.128  11.549  0.00  0.00    +0.000 A 
ATOM     29  C   UNL     1       7.606   4.922  12.350  0.00  0.00    +0.000 A 
ATOM     30  C   UNL     1       7.440   4.927  13.737  0.00  0.00    +0.000 A 
ENDBRANCH  24  25
ENDBRANCH   9  23
TORSDOF 3
ENDMDL
MODEL 8
REMARK VINA RESULT:      -7.2      4.939     10.156
REMARK  Name = 
REMARK  4 active torsions:
REMARK  status: ('A' for Active; 'I' for Inactive)
REMARK    1  A    between atoms: C_1  and  C_2
REMARK    2  A    between atoms: C_5  and  C_7
REMARK    3  A    between atoms: C_16  and  C_17
REMARK    4  A    between atoms: C_18  and  C_19
REMARK                            x       y       z     vdW  Elec       q    Type
REMARK                         _______ _______ _______ _____ _____    ______ ____
ROOT
ATOM      1  C   UNL     1       5.702   7.167  17.238  0.00  0.00    +0.000 C 
ATOM      2  C   UNL     1       4.490   6.656  17.928  0.00  0.00    +0.000 A 
ATOM      3  N   UNL     1       3.608   7.523  18.437  0.00  0.00    +0.000 NA
ATOM      4  N   UNL     1       2.681   6.755  19.077  0.00  0.00    +0.000 N 
ATOM      5  C   UNL     1       1.653   7.366  19.827  0.00  0.00    +0.000 C 
ATOM      6  O   UNL     1       0.990   6.655  20.586  0.00  0.00    +0.000 OA
ATOM      7  C   UNL     1       2.969   5.417  18.920  0.00  0.00    +0.000 A 
ATOM      8  C   UNL     1       4.110   5.314  18.167  0.00  0.00    +0.000 A 
ATOM      9  C   UNL     1       4.792   4.037  17.816  0.00  0.00    +0.000 C 
ATOM     10  S   UNL     1       3.906   2.527  18.349  0.00  0.00    +0.000 S 
ATOM     11  C   UNL     1       2.747   3.120  19.518  0.00  0.00    +0.000 C 
ATOM     12  N   UNL     1       2.341   2.279  20.406  0.00  0.00    +0.000 NA
ATOM     13  N   UNL     1       2.290   4.400  19.481  0.00  0.00    +0.000 N 
ATOM     14  H   UNL     1       2.845   1.400  20.230  0.00  0.00    +0.000 HD
ATOM     15  H   UNL     1       1.554   4.591  20.165  0.00  0.00    +0.000 HD
ENDROOT
BRANCH   5  16
ATOM     16  C   UNL     1       1.370   8.822  19.747  0.00  0.00    +0.000 A 
ATOM     17  C   UNL     1       1.478   9.480  18.515  0.00  0.00    +0.000 A 
ATOM     18  C   UNL     1       1.315  10.862  18.442  0.00  0.00    +0.000 A 
ATOM     19  C   UNL     1       1.019  11.581  19.597  0.00  0.00    +0.000 A 
ATOM     20 CL   UNL     1       0.877  13.293  19.514  0.00  0.00    +0.000 Cl
ATOM     21  C   UNL     1       0.854  10.925  20.820  0.00  0.00    +0.000 A 
ATOM     22  C   UNL     1       1.019   9.534  20.899  0.00  0.00    +0.000 A 
ENDBRANCH   5  16
BRANCH   9  23
ATOM     23  C   UNL     1       5.018   3.929  16.327  0.00  0.00    +0.000 C 
ATOM     24  C   UNL     1       6.211   4.085  15.729  0.00  0.00    +0.000 C 
BRANCH  24  25
ATOM     25  C   UNL     1       6.346   4.053  14.273  0.00  0.00    +0.000 A 
ATOM     26  C   UNL     1       7.358   4.797  13.654  0.00  0.00    +0.000 A 
ATOM     27  C   UNL     1       7.491   4.789  12.265  0.00  0.00    +0.000 A 
ATOM     28  C   UNL     1       6.612   4.038  11.487  0.00  0.00    +0.000 A 
ATOM     29  C   UNL     1       5.605   3.291  12.097  0.00  0.00    +0.000 A 
ATOM     30  C   UNL     1       5.469   3.300  13.487  0.00  0.00    +0.000 A 
ENDBRANCH  24  25
ENDBRANCH   9  23
TORSDOF 3
ENDMDL
MODEL 9
REMARK VINA RESULT:      -6.9      4.263      8.707
REMARK  Name = 
REMARK  4 active torsions:
REMARK  status: ('A' for Active; 'I' for Inactive)
REMARK    1  A    between atoms: C_1  and  C_2
REMARK    2  A    between atoms: C_5  and  C_7
REMARK    3  A    between atoms: C_16  and  C_17
REMARK    4  A    between atoms: C_18  and  C_19
REMARK                            x       y       z     vdW  Elec       q    Type
REMARK                         _______ _______ _______ _____ _____    ______ ____
ROOT
ATOM      1  C   UNL     1      -1.511  10.033  18.614  0.00  0.00    +0.000 C 
ATOM      2  C   UNL     1      -1.157  11.318  19.270  0.00  0.00    +0.000 A 
ATOM      3  N   UNL     1      -2.030  11.894  20.102  0.00  0.00    +0.000 NA
ATOM      4  N   UNL     1      -1.459  13.082  20.453  0.00  0.00    +0.000 N 
ATOM      5  C   UNL     1      -2.173  14.003  21.248  0.00  0.00    +0.000 C 
ATOM      6  O   UNL     1      -1.736  15.152  21.338  0.00  0.00    +0.000 OA
ATOM      7  C   UNL     1      -0.216  13.212  19.872  0.00  0.00    +0.000 A 
ATOM      8  C   UNL     1       0.023  12.087  19.124  0.00  0.00    +0.000 A 
ATOM      9  C   UNL     1       1.233  11.856  18.288  0.00  0.00    +0.000 C 
ATOM     10  S   UNL     1       2.517  13.152  18.428  0.00  0.00    +0.000 S 
ATOM     11  C   UNL     1       1.672  14.490  19.176  0.00  0.00    +0.000 C 
ATOM     12  N   UNL     1       2.144  15.668  18.952  0.00  0.00    +0.000 NA
ATOM     13  N   UNL     1       0.580  14.292  19.962  0.00  0.00    +0.000 N 
ATOM     14  H   UNL     1       2.947  15.548  18.322  0.00  0.00    +0.000 HD
ATOM     15  H   UNL     1       0.236  15.147  20.405  0.00  0.00    +0.000 HD
ENDROOT
BRANCH   5  16
ATOM     16  C   UNL     1      -3.431  13.637  21.948  0.00  0.00    +0.000 A 
ATOM     17  C   UNL     1      -4.661  13.836  21.306  0.00  0.00    +0.000 A 
ATOM     18  C   UNL     1      -5.854  13.592  21.986  0.00  0.00    +0.000 A 
ATOM     19  C   UNL     1      -5.814  13.129  23.298  0.00  0.00    +0.000 A 
ATOM     20 CL   UNL     1      -7.287  12.886  24.154  0.00  0.00    +0.000 Cl
ATOM     21  C   UNL     1      -4.592  12.875  23.926  0.00  0.00    +0.000 A 
ATOM     22  C   UNL     1      -3.389  13.120  23.247  0.00  0.00    +0.000 A 
ENDBRANCH   5  16
BRANCH   9  23
ATOM     23  C   UNL     1       1.885  10.535  18.623  0.00  0.00    +0.000 C 
ATOM     24  C   UNL     1       1.865   9.456  17.822  0.00  0.00    +0.000 C 
BRANCH  24  25
ATOM     25  C   UNL     1       2.441   8.180  18.244  0.00  0.00    +0.000 A 
ATOM     26  C   UNL     1       2.020   7.591  19.442  0.00  0.00    +0.000 A 
ATOM     27  C   UNL     1       2.571   6.382  19.867  0.00  0.00    +0.000 A 
ATOM     28  C   UNL     1       3.548   5.754  19.095  0.00  0.00    +0.000 A 
ATOM     29  C   UNL     1       3.969   6.333  17.899  0.00  0.00    +0.000 A 
ATOM     30  C   UNL     1       3.419   7.545  17.474  0.00  0.00    +0.000 A 
ENDBRANCH  24  25
ENDBRANCH   9  23
TORSDOF 3
ENDMDL
