MODEL 1
REMARK VINA RESULT:      -7.9      0.000      0.000
REMARK  Name = 
REMARK  8 active torsions:
REMARK  status: ('A' for Active; 'I' for Inactive)
REMARK    1  A    between atoms: C_1  and  C_2
REMARK    2  A    between atoms: C_7  and  C_8
REMARK    3  A    between atoms: C_9  and  C_10
REMARK    4  A    between atoms: N_12  and  C_13
REMARK    5  A    between atoms: C_13  and  C_14
REMARK    6  A    between atoms: C_14  and  O_15
REMARK    7  A    between atoms: O_15  and  C_16
REMARK    8  A    between atoms: C_19  and  N_20
REMARK                            x       y       z     vdW  Elec       q    Type
REMARK                         _______ _______ _______ _____ _____    ______ ____
ROOT
ATOM      1  C   UNL     1       7.091   5.717  18.322  0.00  0.00    +0.000 C 
ATOM      2  O   UNL     1       7.721   5.188  19.233  0.00  0.00    +0.000 OA
ATOM      3  N   UNL     1       7.380   7.006  17.922  0.00  0.00    +0.000 N 
ATOM      4  H   UNL     1       6.992   7.343  17.054  0.00  0.00    +0.000 HD
ENDROOT
BRANCH   1  13
ATOM      5  C   UNL     1       2.284   4.794  20.924  0.00  0.00    +0.000 C 
ATOM      6  C   UNL     1       2.944   4.592  19.596  0.00  0.00    +0.000 A 
ATOM      7  C   UNL     1       2.192   3.941  18.530  0.00  0.00    +0.000 A 
ATOM      8  C   UNL     1       2.734   3.722  17.318  0.00  0.00    +0.000 A 
ATOM      9  C   UNL     1       4.072   4.128  17.053  0.00  0.00    +0.000 A 
ATOM     10  N   UNL     1       4.795   4.004  15.968  0.00  0.00    +0.000 NA
ATOM     11  C   UNL     1       6.008   4.578  16.262  0.00  0.00    +0.000 A 
ATOM     12  C   UNL     1       7.015   4.648  15.174  0.00  0.00    +0.000 C 
ATOM     13  C   UNL     1       6.047   5.043  17.577  0.00  0.00    +0.000 A 
ATOM     14  N   UNL     1       4.775   4.760  18.075  0.00  0.00    +0.000 N 
ATOM     15  C   UNL     1       4.209   4.986  19.338  0.00  0.00    +0.000 A 
ENDBRANCH   1  13
BRANCH   3  16
ATOM     16  C   UNL     1       8.439   7.795  18.538  0.00  0.00    +0.000 C 
BRANCH  16  17
ATOM     17  C   UNL     1       8.358   9.278  18.164  0.00  0.00    +0.000 C 
BRANCH  17  18
ATOM     18  O   UNL     1       9.014  10.075  19.158  0.00  0.00    +0.000 OA
BRANCH  18  19
ATOM     19  C   UNL     1       9.533  11.271  18.730  0.00  0.00    +0.000 A 
ATOM     20  C   UNL     1      10.499  11.422  17.732  0.00  0.00    +0.000 A 
ATOM     21  C   UNL     1      10.976  12.691  17.387  0.00  0.00    +0.000 A 
ATOM     22  C   UNL     1      10.478  13.821  18.045  0.00  0.00    +0.000 A 
ATOM     23  C   UNL     1       9.494  13.687  19.033  0.00  0.00    +0.000 A 
ATOM     24  C   UNL     1       9.028  12.411  19.370  0.00  0.00    +0.000 A 
BRANCH  22  25
ATOM     25  N   UNL     1      11.002  15.148  17.700  0.00  0.00    +0.000 N 
ATOM     26  O   UNL     1      11.873  15.212  16.818  0.00  0.00    +0.000 OA
ATOM     27  O   UNL     1      10.547  16.125  18.310  0.00  0.00    +0.000 OA
ENDBRANCH  22  25
ENDBRANCH  18  19
ENDBRANCH  17  18
ENDBRANCH  16  17
ENDBRANCH   3  16
TORSDOF 6
ENDMDL
MODEL 2
REMARK VINA RESULT:      -7.9      5.648      7.825
REMARK  Name = 
REMARK  8 active torsions:
REMARK  status: ('A' for Active; 'I' for Inactive)
REMARK    1  A    between atoms: C_1  and  C_2
REMARK    2  A    between atoms: C_7  and  C_8
REMARK    3  A    between atoms: C_9  and  C_10
REMARK    4  A    between atoms: N_12  and  C_13
REMARK    5  A    between atoms: C_13  and  C_14
REMARK    6  A    between atoms: C_14  and  O_15
REMARK    7  A    between atoms: O_15  and  C_16
REMARK    8  A    between atoms: C_19  and  N_20
REMARK                            x       y       z     vdW  Elec       q    Type
REMARK                         _______ _______ _______ _____ _____    ______ ____
ROOT
ATOM      1  C   UNL     1       4.505   4.141  16.938  0.00  0.00    +0.000 C 
ATOM      2  O   UNL     1       4.402   2.985  17.339  0.00  0.00    +0.000 OA
ATOM      3  N   UNL     1       3.507   5.063  17.183  0.00  0.00    +0.000 N 
ATOM      4  H   UNL     1       3.700   6.039  17.022  0.00  0.00    +0.000 HD
ENDROOT
BRANCH   1  13
ATOM      5  C   UNL     1       5.007   2.795  11.584  0.00  0.00    +0.000 C 
ATOM      6  C   UNL     1       5.699   3.577  12.655  0.00  0.00    +0.000 A 
ATOM      7  C   UNL     1       6.940   4.270  12.328  0.00  0.00    +0.000 A 
ATOM      8  C   UNL     1       7.613   4.982  13.250  0.00  0.00    +0.000 A 
ATOM      9  C   UNL     1       7.119   5.070  14.581  0.00  0.00    +0.000 A 
ATOM     10  N   UNL     1       7.611   5.684  15.628  0.00  0.00    +0.000 NA
ATOM     11  C   UNL     1       6.723   5.449  16.649  0.00  0.00    +0.000 A 
ATOM     12  C   UNL     1       6.993   6.098  17.956  0.00  0.00    +0.000 C 
ATOM     13  C   UNL     1       5.667   4.640  16.230  0.00  0.00    +0.000 A 
ATOM     14  N   UNL     1       5.927   4.414  14.878  0.00  0.00    +0.000 N 
ATOM     15  C   UNL     1       5.227   3.672  13.916  0.00  0.00    +0.000 A 
ENDBRANCH   1  13
BRANCH   3  16
ATOM     16  C   UNL     1       2.301   4.728  17.929  0.00  0.00    +0.000 C 
BRANCH  16  17
ATOM     17  C   UNL     1       2.387   5.146  19.400  0.00  0.00    +0.000 C 
BRANCH  17  18
ATOM     18  O   UNL     1       3.048   6.412  19.516  0.00  0.00    +0.000 OA
BRANCH  18  19
ATOM     19  C   UNL     1       2.235   7.515  19.587  0.00  0.00    +0.000 A 
ATOM     20  C   UNL     1       1.556   7.947  20.730  0.00  0.00    +0.000 A 
ATOM     21  C   UNL     1       0.733   9.077  20.686  0.00  0.00    +0.000 A 
ATOM     22  C   UNL     1       0.589   9.784  19.488  0.00  0.00    +0.000 A 
ATOM     23  C   UNL     1       1.279   9.376  18.339  0.00  0.00    +0.000 A 
ATOM     24  C   UNL     1       2.098   8.241  18.396  0.00  0.00    +0.000 A 
BRANCH  22  25
ATOM     25  N   UNL     1      -0.299  10.952  19.440  0.00  0.00    +0.000 N 
ATOM     26  O   UNL     1      -1.069  11.131  20.396  0.00  0.00    +0.000 OA
ATOM     27  O   UNL     1      -0.230  11.689  18.447  0.00  0.00    +0.000 OA
ENDBRANCH  22  25
ENDBRANCH  18  19
ENDBRANCH  17  18
ENDBRANCH  16  17
ENDBRANCH   3  16
TORSDOF 6
ENDMDL
MODEL 3
REMARK VINA RESULT:      -7.9      5.475      7.641
REMARK  Name = 
REMARK  8 active torsions:
REMARK  status: ('A' for Active; 'I' for Inactive)
REMARK    1  A    between atoms: C_1  and  C_2
REMARK    2  A    between atoms: C_7  and  C_8
REMARK    3  A    between atoms: C_9  and  C_10
REMARK    4  A    between atoms: N_12  and  C_13
REMARK    5  A    between atoms: C_13  and  C_14
REMARK    6  A    between atoms: C_14  and  O_15
REMARK    7  A    between atoms: O_15  and  C_16
REMARK    8  A    between atoms: C_19  and  N_20
REMARK                            x       y       z     vdW  Elec       q    Type
REMARK                         _______ _______ _______ _____ _____    ______ ____
ROOT
ATOM      1  C   UNL     1       4.527   4.073  17.048  0.00  0.00    +0.000 C 
ATOM      2  O   UNL     1       4.506   2.948  17.539  0.00  0.00    +0.000 OA
ATOM      3  N   UNL     1       3.434   4.910  17.159  0.00  0.00    +0.000 N 
ATOM      4  H   UNL     1       3.545   5.885  16.926  0.00  0.00    +0.000 HD
ENDROOT
BRANCH   1  13
ATOM      5  C   UNL     1       5.224   2.734  11.714  0.00  0.00    +0.000 C 
ATOM      6  C   UNL     1       5.851   3.553  12.798  0.00  0.00    +0.000 A 
ATOM      7  C   UNL     1       7.064   4.305  12.497  0.00  0.00    +0.000 A 
ATOM      8  C   UNL     1       7.679   5.053  13.432  0.00  0.00    +0.000 A 
ATOM      9  C   UNL     1       7.148   5.121  14.750  0.00  0.00    +0.000 A 
ATOM     10  N   UNL     1       7.584   5.763  15.806  0.00  0.00    +0.000 NA
ATOM     11  C   UNL     1       6.684   5.488  16.806  0.00  0.00    +0.000 A 
ATOM     12  C   UNL     1       6.890   6.155  18.116  0.00  0.00    +0.000 C 
ATOM     13  C   UNL     1       5.679   4.626  16.365  0.00  0.00    +0.000 A 
ATOM     14  N   UNL     1       5.983   4.409  15.022  0.00  0.00    +0.000 N 
ATOM     15  C   UNL     1       5.344   3.629  14.047  0.00  0.00    +0.000 A 
ENDBRANCH   1  13
BRANCH   3  16
ATOM     16  C   UNL     1       2.219   4.518  17.862  0.00  0.00    +0.000 C 
BRANCH  16  17
ATOM     17  C   UNL     1       2.188   5.027  19.306  0.00  0.00    +0.000 C 
BRANCH  17  18
ATOM     18  O   UNL     1       2.954   6.233  19.421  0.00  0.00    +0.000 OA
BRANCH  18  19
ATOM     19  C   UNL     1       2.261   7.407  19.266  0.00  0.00    +0.000 A 
ATOM     20  C   UNL     1       2.114   8.106  18.064  0.00  0.00    +0.000 A 
ATOM     21  C   UNL     1       1.402   9.309  18.022  0.00  0.00    +0.000 A 
ATOM     22  C   UNL     1       0.829   9.818  19.192  0.00  0.00    +0.000 A 
ATOM     23  C   UNL     1       0.950   9.119  20.400  0.00  0.00    +0.000 A 
ATOM     24  C   UNL     1       1.668   7.916  20.429  0.00  0.00    +0.000 A 
BRANCH  22  25
ATOM     25  N   UNL     1       0.108  11.096  19.147  0.00  0.00    +0.000 N 
ATOM     26  O   UNL     1       0.736  12.100  18.779  0.00  0.00    +0.000 OA
ATOM     27  O   UNL     1      -1.084  11.098  19.483  0.00  0.00    +0.000 OA
ENDBRANCH  22  25
ENDBRANCH  18  19
ENDBRANCH  17  18
ENDBRANCH  16  17
ENDBRANCH   3  16
TORSDOF 6
ENDMDL
MODEL 4
REMARK VINA RESULT:      -7.8      5.830      8.054
REMARK  Name = 
REMARK  8 active torsions:
REMARK  status: ('A' for Active; 'I' for Inactive)
REMARK    1  A    between atoms: C_1  and  C_2
REMARK    2  A    between atoms: C_7  and  C_8
REMARK    3  A    between atoms: C_9  and  C_10
REMARK    4  A    between atoms: N_12  and  C_13
REMARK    5  A    between atoms: C_13  and  C_14
REMARK    6  A    between atoms: C_14  and  O_15
REMARK    7  A    between atoms: O_15  and  C_16
REMARK    8  A    between atoms: C_19  and  N_20
REMARK                            x       y       z     vdW  Elec       q    Type
REMARK                         _______ _______ _______ _____ _____    ______ ____
ROOT
ATOM      1  C   UNL     1       2.011   5.799  20.257  0.00  0.00    +0.000 C 
ATOM      2  O   UNL     1       2.569   5.560  21.324  0.00  0.00    +0.000 OA
ATOM      3  N   UNL     1       1.357   4.799  19.566  0.00  0.00    +0.000 N 
ATOM      4  H   UNL     1       0.744   5.055  18.807  0.00  0.00    +0.000 HD
ENDROOT
BRANCH   1  13
ATOM      5  C   UNL     1      -0.643   9.751  23.096  0.00  0.00    +0.000 C 
ATOM      6  C   UNL     1       0.120   9.547  21.825  0.00  0.00    +0.000 A 
ATOM      7  C   UNL     1       0.303  10.681  20.927  0.00  0.00    +0.000 A 
ATOM      8  C   UNL     1       0.972  10.558  19.765  0.00  0.00    +0.000 A 
ATOM      9  C   UNL     1       1.516   9.299  19.388  0.00  0.00    +0.000 A 
ATOM     10  N   UNL     1       2.179   8.951  18.313  0.00  0.00    +0.000 NA
ATOM     11  C   UNL     1       2.474   7.619  18.472  0.00  0.00    +0.000 A 
ATOM     12  C   UNL     1       3.297   6.968  17.423  0.00  0.00    +0.000 C 
ATOM     13  C   UNL     1       1.951   7.120  19.665  0.00  0.00    +0.000 A 
ATOM     14  N   UNL     1       1.346   8.226  20.260  0.00  0.00    +0.000 N 
ATOM     15  C   UNL     1       0.648   8.356  21.470  0.00  0.00    +0.000 A 
ENDBRANCH   1  13
BRANCH   3  16
ATOM     16  C   UNL     1       1.282   3.429  20.059  0.00  0.00    +0.000 C 
BRANCH  16  17
ATOM     17  C   UNL     1       2.251   2.492  19.333  0.00  0.00    +0.000 C 
BRANCH  17  18
ATOM     18  O   UNL     1       3.603   2.813  19.683  0.00  0.00    +0.000 OA
BRANCH  18  19
ATOM     19  C   UNL     1       4.361   3.395  18.699  0.00  0.00    +0.000 A 
ATOM     20  C   UNL     1       4.169   3.227  17.324  0.00  0.00    +0.000 A 
ATOM     21  C   UNL     1       5.017   3.852  16.404  0.00  0.00    +0.000 A 
ATOM     22  C   UNL     1       6.065   4.656  16.863  0.00  0.00    +0.000 A 
ATOM     23  C   UNL     1       6.258   4.851  18.236  0.00  0.00    +0.000 A 
ATOM     24  C   UNL     1       5.404   4.217  19.147  0.00  0.00    +0.000 A 
BRANCH  22  25
ATOM     25  N   UNL     1       6.970   5.287  15.893  0.00  0.00    +0.000 N 
ATOM     26  O   UNL     1       7.126   4.724  14.800  0.00  0.00    +0.000 OA
ATOM     27  O   UNL     1       7.526   6.343  16.225  0.00  0.00    +0.000 OA
ENDBRANCH  22  25
ENDBRANCH  18  19
ENDBRANCH  17  18
ENDBRANCH  16  17
ENDBRANCH   3  16
TORSDOF 6
ENDMDL
MODEL 5
REMARK VINA RESULT:      -7.7      5.367      8.155
REMARK  Name = 
REMARK  8 active torsions:
REMARK  status: ('A' for Active; 'I' for Inactive)
REMARK    1  A    between atoms: C_1  and  C_2
REMARK    2  A    between atoms: C_7  and  C_8
REMARK    3  A    between atoms: C_9  and  C_10
REMARK    4  A    between atoms: N_12  and  C_13
REMARK    5  A    between atoms: C_13  and  C_14
REMARK    6  A    between atoms: C_14  and  O_15
REMARK    7  A    between atoms: O_15  and  C_16
REMARK    8  A    between atoms: C_19  and  N_20
REMARK                            x       y       z     vdW  Elec       q    Type
REMARK                         _______ _______ _______ _____ _____    ______ ____
ROOT
ATOM      1  C   UNL     1       4.304   6.375  18.067  0.00  0.00    +0.000 C 
ATOM      2  O   UNL     1       4.114   7.134  17.121  0.00  0.00    +0.000 OA
ATOM      3  N   UNL     1       5.583   5.988  18.414  0.00  0.00    +0.000 N 
ATOM      4  H   UNL     1       5.728   5.533  19.302  0.00  0.00    +0.000 HD
ENDROOT
BRANCH   1  13
ATOM      5  C   UNL     1       3.828   0.872  18.530  0.00  0.00    +0.000 C 
ATOM      6  C   UNL     1       3.201   2.138  19.024  0.00  0.00    +0.000 A 
ATOM      7  C   UNL     1       2.070   2.051  19.940  0.00  0.00    +0.000 A 
ATOM      8  C   UNL     1       1.458   3.153  20.411  0.00  0.00    +0.000 A 
ATOM      9  C   UNL     1       1.913   4.442  20.015  0.00  0.00    +0.000 A 
ATOM     10  N   UNL     1       1.465   5.632  20.332  0.00  0.00    +0.000 NA
ATOM     11  C   UNL     1       2.279   6.523  19.678  0.00  0.00    +0.000 A 
ATOM     12  C   UNL     1       2.047   7.969  19.917  0.00  0.00    +0.000 C 
ATOM     13  C   UNL     1       3.240   5.866  18.909  0.00  0.00    +0.000 A 
ATOM     14  N   UNL     1       3.002   4.513  19.150  0.00  0.00    +0.000 N 
ATOM     15  C   UNL     1       3.637   3.363  18.659  0.00  0.00    +0.000 A 
ENDBRANCH   1  13
BRANCH   3  16
ATOM     16  C   UNL     1       6.762   6.459  17.698  0.00  0.00    +0.000 C 
BRANCH  16  17
ATOM     17  C   UNL     1       7.390   5.371  16.823  0.00  0.00    +0.000 C 
BRANCH  17  18
ATOM     18  O   UNL     1       7.460   5.811  15.461  0.00  0.00    +0.000 OA
BRANCH  18  19
ATOM     19  C   UNL     1       6.817   5.026  14.537  0.00  0.00    +0.000 A 
ATOM     20  C   UNL     1       5.562   4.437  14.711  0.00  0.00    +0.000 A 
ATOM     21  C   UNL     1       5.006   3.635  13.709  0.00  0.00    +0.000 A 
ATOM     22  C   UNL     1       5.712   3.422  12.520  0.00  0.00    +0.000 A 
ATOM     23  C   UNL     1       6.962   4.022  12.323  0.00  0.00    +0.000 A 
ATOM     24  C   UNL     1       7.508   4.821  13.335  0.00  0.00    +0.000 A 
BRANCH  22  25
ATOM     25  N   UNL     1       5.137   2.555  11.484  0.00  0.00    +0.000 N 
ATOM     26  O   UNL     1       5.769   1.535  11.169  0.00  0.00    +0.000 OA
ATOM     27  O   UNL     1       4.057   2.894  10.981  0.00  0.00    +0.000 OA
ENDBRANCH  22  25
ENDBRANCH  18  19
ENDBRANCH  17  18
ENDBRANCH  16  17
ENDBRANCH   3  16
TORSDOF 6
ENDMDL
MODEL 6
REMARK VINA RESULT:      -7.7      6.016      7.894
REMARK  Name = 
REMARK  8 active torsions:
REMARK  status: ('A' for Active; 'I' for Inactive)
REMARK    1  A    between atoms: C_1  and  C_2
REMARK    2  A    between atoms: C_7  and  C_8
REMARK    3  A    between atoms: C_9  and  C_10
REMARK    4  A    between atoms: N_12  and  C_13
REMARK    5  A    between atoms: C_13  and  C_14
REMARK    6  A    between atoms: C_14  and  O_15
REMARK    7  A    between atoms: O_15  and  C_16
REMARK    8  A    between atoms: C_19  and  N_20
REMARK                            x       y       z     vdW  Elec       q    Type
REMARK                         _______ _______ _______ _____ _____    ______ ____
ROOT
ATOM      1  C   UNL     1       2.056   5.957  20.089  0.00  0.00    +0.000 C 
ATOM      2  O   UNL     1       1.071   5.289  20.389  0.00  0.00    +0.000 OA
ATOM      3  N   UNL     1       3.325   5.421  20.179  0.00  0.00    +0.000 N 
ATOM      4  H   UNL     1       4.091   5.912  19.744  0.00  0.00    +0.000 HD
ENDROOT
BRANCH   1  13
ATOM      5  C   UNL     1      -0.504   9.716  23.257  0.00  0.00    +0.000 C 
ATOM      6  C   UNL     1       0.217   9.594  21.952  0.00  0.00    +0.000 A 
ATOM      7  C   UNL     1       0.373  10.784  21.122  0.00  0.00    +0.000 A 
ATOM      8  C   UNL     1       1.004  10.736  19.935  0.00  0.00    +0.000 A 
ATOM      9  C   UNL     1       1.536   9.504  19.461  0.00  0.00    +0.000 A 
ATOM     10  N   UNL     1       2.164   9.227  18.345  0.00  0.00    +0.000 NA
ATOM     11  C   UNL     1       2.463   7.888  18.409  0.00  0.00    +0.000 A 
ATOM     12  C   UNL     1       3.252   7.307  17.295  0.00  0.00    +0.000 C 
ATOM     13  C   UNL     1       1.978   7.313  19.584  0.00  0.00    +0.000 A 
ATOM     14  N   UNL     1       1.392   8.378  20.268  0.00  0.00    +0.000 N 
ATOM     15  C   UNL     1       0.733   8.429  21.505  0.00  0.00    +0.000 A 
ENDBRANCH   1  13
BRANCH   3  16
ATOM     16  C   UNL     1       3.565   4.052  20.618  0.00  0.00    +0.000 C 
BRANCH  16  17
ATOM     17  C   UNL     1       4.493   3.287  19.671  0.00  0.00    +0.000 C 
BRANCH  17  18
ATOM     18  O   UNL     1       5.626   4.096  19.330  0.00  0.00    +0.000 OA
BRANCH  18  19
ATOM     19  C   UNL     1       5.880   4.249  17.991  0.00  0.00    +0.000 A 
ATOM     20  C   UNL     1       4.947   4.069  16.966  0.00  0.00    +0.000 A 
ATOM     21  C   UNL     1       5.319   4.231  15.627  0.00  0.00    +0.000 A 
ATOM     22  C   UNL     1       6.636   4.579  15.310  0.00  0.00    +0.000 A 
ATOM     23  C   UNL     1       7.577   4.783  16.327  0.00  0.00    +0.000 A 
ATOM     24  C   UNL     1       7.193   4.615  17.663  0.00  0.00    +0.000 A 
BRANCH  22  25
ATOM     25  N   UNL     1       7.028   4.719  13.902  0.00  0.00    +0.000 N 
ATOM     26  O   UNL     1       7.885   5.571  13.625  0.00  0.00    +0.000 OA
ATOM     27  O   UNL     1       6.478   3.981  13.074  0.00  0.00    +0.000 OA
ENDBRANCH  22  25
ENDBRANCH  18  19
ENDBRANCH  17  18
ENDBRANCH  16  17
ENDBRANCH   3  16
TORSDOF 6
ENDMDL
MODEL 7
REMARK VINA RESULT:      -7.7      5.638      8.003
REMARK  Name = 
REMARK  8 active torsions:
REMARK  status: ('A' for Active; 'I' for Inactive)
REMARK    1  A    between atoms: C_1  and  C_2
REMARK    2  A    between atoms: C_7  and  C_8
REMARK    3  A    between atoms: C_9  and  C_10
REMARK    4  A    between atoms: N_12  and  C_13
REMARK    5  A    between atoms: C_13  and  C_14
REMARK    6  A    between atoms: C_14  and  O_15
REMARK    7  A    between atoms: O_15  and  C_16
REMARK    8  A    between atoms: C_19  and  N_20
REMARK                            x       y       z     vdW  Elec       q    Type
REMARK                         _______ _______ _______ _____ _____    ______ ____
ROOT
ATOM      1  C   UNL     1       3.991   6.760  17.569  0.00  0.00    +0.000 C 
ATOM      2  O   UNL     1       4.399   7.171  16.487  0.00  0.00    +0.000 OA
ATOM      3  N   UNL     1       2.912   7.359  18.188  0.00  0.00    +0.000 N 
ATOM      4  H   UNL     1       2.476   6.886  18.965  0.00  0.00    +0.000 HD
ENDROOT
BRANCH   1  13
ATOM      5  C   UNL     1       0.586   2.551  18.759  0.00  0.00    +0.000 C 
ATOM      6  C   UNL     1       2.019   2.958  18.890  0.00  0.00    +0.000 A 
ATOM      7  C   UNL     1       2.954   2.040  19.532  0.00  0.00    +0.000 A 
ATOM      8  C   UNL     1       4.253   2.354  19.688  0.00  0.00    +0.000 A 
ATOM      9  C   UNL     1       4.743   3.606  19.224  0.00  0.00    +0.000 A 
ATOM     10  N   UNL     1       5.948   4.118  19.283  0.00  0.00    +0.000 NA
ATOM     11  C   UNL     1       5.860   5.347  18.675  0.00  0.00    +0.000 A 
ATOM     12  C   UNL     1       7.112   6.131  18.531  0.00  0.00    +0.000 C 
ATOM     13  C   UNL     1       4.558   5.616  18.255  0.00  0.00    +0.000 A 
ATOM     14  N   UNL     1       3.844   4.468  18.602  0.00  0.00    +0.000 N 
ATOM     15  C   UNL     1       2.490   4.141  18.441  0.00  0.00    +0.000 A 
ENDBRANCH   1  13
BRANCH   3  16
ATOM     16  C   UNL     1       2.200   8.486  17.599  0.00  0.00    +0.000 C 
BRANCH  16  17
ATOM     17  C   UNL     1       1.741   9.502  18.648  0.00  0.00    +0.000 C 
BRANCH  17  18
ATOM     18  O   UNL     1       1.372   8.830  19.859  0.00  0.00    +0.000 OA
BRANCH  18  19
ATOM     19  C   UNL     1       0.631   9.559  20.755  0.00  0.00    +0.000 A 
ATOM     20  C   UNL     1       0.270   9.137  22.037  0.00  0.00    +0.000 A 
ATOM     21  C   UNL     1      -0.509   9.954  22.863  0.00  0.00    +0.000 A 
ATOM     22  C   UNL     1      -0.928  11.207  22.404  0.00  0.00    +0.000 A 
ATOM     23  C   UNL     1      -0.556  11.653  21.129  0.00  0.00    +0.000 A 
ATOM     24  C   UNL     1       0.222  10.824  20.311  0.00  0.00    +0.000 A 
BRANCH  22  25
ATOM     25  N   UNL     1      -1.769  12.048  23.264  0.00  0.00    +0.000 N 
ATOM     26  O   UNL     1      -2.904  11.634  23.542  0.00  0.00    +0.000 OA
ATOM     27  O   UNL     1      -1.298  13.124  23.658  0.00  0.00    +0.000 OA
ENDBRANCH  22  25
ENDBRANCH  18  19
ENDBRANCH  17  18
ENDBRANCH  16  17
ENDBRANCH   3  16
TORSDOF 6
ENDMDL
MODEL 8
REMARK VINA RESULT:      -7.7      6.059      7.954
REMARK  Name = 
REMARK  8 active torsions:
REMARK  status: ('A' for Active; 'I' for Inactive)
REMARK    1  A    between atoms: C_1  and  C_2
REMARK    2  A    between atoms: C_7  and  C_8
REMARK    3  A    between atoms: C_9  and  C_10
REMARK    4  A    between atoms: N_12  and  C_13
REMARK    5  A    between atoms: C_13  and  C_14
REMARK    6  A    between atoms: C_14  and  O_15
REMARK    7  A    between atoms: O_15  and  C_16
REMARK    8  A    between atoms: C_19  and  N_20
REMARK                            x       y       z     vdW  Elec       q    Type
REMARK                         _______ _______ _______ _____ _____    ______ ____
ROOT
ATOM      1  C   UNL     1       2.086   6.076  20.171  0.00  0.00    +0.000 C 
ATOM      2  O   UNL     1       1.189   5.531  20.806  0.00  0.00    +0.000 OA
ATOM      3  N   UNL     1       3.269   5.412  19.913  0.00  0.00    +0.000 N 
ATOM      4  H   UNL     1       3.903   5.799  19.230  0.00  0.00    +0.000 HD
ENDROOT
BRANCH   1  13
ATOM      5  C   UNL     1      -0.608   9.882  23.169  0.00  0.00    +0.000 C 
ATOM      6  C   UNL     1       0.130   9.730  21.876  0.00  0.00    +0.000 A 
ATOM      7  C   UNL     1       0.260  10.890  21.002  0.00  0.00    +0.000 A 
ATOM      8  C   UNL     1       0.903  10.814  19.822  0.00  0.00    +0.000 A 
ATOM      9  C   UNL     1       1.473   9.581  19.401  0.00  0.00    +0.000 A 
ATOM     10  N   UNL     1       2.120   9.278  18.303  0.00  0.00    +0.000 NA
ATOM     11  C   UNL     1       2.455   7.952  18.422  0.00  0.00    +0.000 A 
ATOM     12  C   UNL     1       3.271   7.350  17.337  0.00  0.00    +0.000 C 
ATOM     13  C   UNL     1       1.975   7.409  19.614  0.00  0.00    +0.000 A 
ATOM     14  N   UNL     1       1.354   8.483  20.250  0.00  0.00    +0.000 N 
ATOM     15  C   UNL     1       0.682   8.564  21.479  0.00  0.00    +0.000 A 
ENDBRANCH   1  13
BRANCH   3  16
ATOM     16  C   UNL     1       3.512   4.047  20.360  0.00  0.00    +0.000 C 
BRANCH  16  17
ATOM     17  C   UNL     1       4.608   3.351  19.549  0.00  0.00    +0.000 C 
BRANCH  17  18
ATOM     18  O   UNL     1       5.652   4.279  19.230  0.00  0.00    +0.000 OA
BRANCH  18  19
ATOM     19  C   UNL     1       6.021   4.346  17.910  0.00  0.00    +0.000 A 
ATOM     20  C   UNL     1       7.298   4.671  17.444  0.00  0.00    +0.000 A 
ATOM     21  C   UNL     1       7.561   4.731  16.071  0.00  0.00    +0.000 A 
ATOM     22  C   UNL     1       6.539   4.461  15.156  0.00  0.00    +0.000 A 
ATOM     23  C   UNL     1       5.259   4.113  15.609  0.00  0.00    +0.000 A 
ATOM     24  C   UNL     1       5.009   4.059  16.985  0.00  0.00    +0.000 A 
BRANCH  22  25
ATOM     25  N   UNL     1       6.813   4.554  13.717  0.00  0.00    +0.000 N 
ATOM     26  O   UNL     1       6.220   3.765  12.965  0.00  0.00    +0.000 OA
ATOM     27  O   UNL     1       7.622   5.411  13.338  0.00  0.00    +0.000 OA
ENDBRANCH  22  25
ENDBRANCH  18  19
ENDBRANCH  17  18
ENDBRANCH  16  17
ENDBRANCH   3  16
TORSDOF 6
ENDMDL
MODEL 9
REMARK VINA RESULT:      -7.6      5.873      9.118
REMARK  Name = 
REMARK  8 active torsions:
REMARK  status: ('A' for Active; 'I' for Inactive)
REMARK    1  A    between atoms: C_1  and  C_2
REMARK    2  A    between atoms: C_7  and  C_8
REMARK    3  A    between atoms: C_9  and  C_10
REMARK    4  A    between atoms: N_12  and  C_13
REMARK    5  A    between atoms: C_13  and  C_14
REMARK    6  A    between atoms: C_14  and  O_15
REMARK    7  A    between atoms: O_15  and  C_16
REMARK    8  A    between atoms: C_19  and  N_20
REMARK                            x       y       z     vdW  Elec       q    Type
REMARK                         _______ _______ _______ _____ _____    ______ ____
ROOT
ATOM      1  C   UNL     1       1.273   9.447  18.460  0.00  0.00    +0.000 C 
ATOM      2  O   UNL     1       1.927   9.719  17.458  0.00  0.00    +0.000 OA
ATOM      3  N   UNL     1       1.590   8.345  19.229  0.00  0.00    +0.000 N 
ATOM      4  H   UNL     1       1.172   8.256  20.143  0.00  0.00    +0.000 HD
ENDROOT
BRANCH   1  13
ATOM      5  C   UNL     1      -3.198   9.844  15.207  0.00  0.00    +0.000 C 
ATOM      6  C   UNL     1      -2.683  10.303  16.535  0.00  0.00    +0.000 A 
ATOM      7  C   UNL     1      -3.532  11.152  17.362  0.00  0.00    +0.000 A 
ATOM      8  C   UNL     1      -3.121  11.604  18.561  0.00  0.00    +0.000 A 
ATOM      9  C   UNL     1      -1.830  11.257  19.047  0.00  0.00    +0.000 A 
ATOM     10  N   UNL     1      -1.227  11.592  20.161  0.00  0.00    +0.000 NA
ATOM     11  C   UNL     1      -0.003  10.970  20.123  0.00  0.00    +0.000 A 
ATOM     12  C   UNL     1       0.877  11.115  21.309  0.00  0.00    +0.000 C 
ATOM     13  C   UNL     1       0.169  10.255  18.938  0.00  0.00    +0.000 A 
ATOM     14  N   UNL     1      -1.033  10.435  18.254  0.00  0.00    +0.000 N 
ATOM     15  C   UNL     1      -1.463   9.966  17.004  0.00  0.00    +0.000 A 
ENDBRANCH   1  13
BRANCH   3  16
ATOM     16  C   UNL     1       2.706   7.465  18.910  0.00  0.00    +0.000 C 
BRANCH  16  17
ATOM     17  C   UNL     1       2.476   6.029  19.390  0.00  0.00    +0.000 C 
BRANCH  17  18
ATOM     18  O   UNL     1       3.732   5.386  19.642  0.00  0.00    +0.000 OA
BRANCH  18  19
ATOM     19  C   UNL     1       4.555   5.218  18.557  0.00  0.00    +0.000 A 
ATOM     20  C   UNL     1       5.885   5.638  18.479  0.00  0.00    +0.000 A 
ATOM     21  C   UNL     1       6.630   5.436  17.312  0.00  0.00    +0.000 A 
ATOM     22  C   UNL     1       6.039   4.803  16.213  0.00  0.00    +0.000 A 
ATOM     23  C   UNL     1       4.713   4.357  16.284  0.00  0.00    +0.000 A 
ATOM     24  C   UNL     1       3.978   4.569  17.457  0.00  0.00    +0.000 A 
BRANCH  22  25
ATOM     25  N   UNL     1       6.815   4.618  14.981  0.00  0.00    +0.000 N 
ATOM     26  O   UNL     1       7.790   5.362  14.798  0.00  0.00    +0.000 OA
ATOM     27  O   UNL     1       6.450   3.733  14.196  0.00  0.00    +0.000 OA
ENDBRANCH  22  25
ENDBRANCH  18  19
ENDBRANCH  17  18
ENDBRANCH  16  17
ENDBRANCH   3  16
TORSDOF 6
ENDMDL
