MODEL 1
REMARK VINA RESULT:      -8.5      0.000      0.000
REMARK  Name = 
REMARK  13 active torsions:
REMARK  status: ('A' for Active; 'I' for Inactive)
REMARK    1  A    between atoms: C_1  and  C_2
REMARK    2  A    between atoms: C_2  and  O_3
REMARK    3  A    between atoms: O_3  and  C_4
REMARK    4  A    between atoms: C_4  and  C_6
REMARK    5  A    between atoms: C_7  and  C_8
REMARK    6  A    between atoms: C_10  and  C_11
REMARK    7  A    between atoms: C_12  and  C_13
REMARK    8  A    between atoms: C_13  and  O_15
REMARK    9  A    between atoms: O_15  and  C_16
REMARK   10  A    between atoms: C_16  and  C_17
REMARK   11  A    between atoms: C_23  and  C_24
REMARK   12  A    between atoms: C_26  and  C_27
REMARK   13  A    between atoms: C_27  and  C_28
REMARK                            x       y       z     vdW  Elec       q    Type
REMARK                         _______ _______ _______ _____ _____    ______ ____
ROOT
ATOM      1  C   UNL     1       3.738   4.169  18.221  0.00  0.00    +0.000 C 
ATOM      2  C   UNL     1       4.520   3.580  19.159  0.00  0.00    +0.000 C 
ATOM      3  C   UNL     1       4.280   2.246  19.829  0.00  0.00    +0.000 C 
ATOM      4  N   UNL     1       5.696   4.211  19.553  0.00  0.00    +0.000 N 
ATOM      5  C   UNL     1       6.307   5.218  18.820  0.00  0.00    +0.000 C 
ATOM      6  C   UNL     1       7.740   5.522  19.179  0.00  0.00    +0.000 C 
ATOM      7  C   UNL     1       5.611   5.863  17.852  0.00  0.00    +0.000 C 
ATOM      8  C   UNL     1       4.125   5.547  17.644  0.00  0.00    +0.000 C 
ATOM      9  H   UNL     1       6.316   3.652  20.139  0.00  0.00    +0.000 HD
ENDROOT
BRANCH   8  10
ATOM     10  C   UNL     1       3.240   6.617  18.231  0.00  0.00    +0.000 A 
ATOM     11  N   UNL     1       2.885   7.744  17.523  0.00  0.00    +0.000 N 
ATOM     12  C   UNL     1       2.081   8.514  18.327  0.00  0.00    +0.000 A 
ATOM     13  N   UNL     1       1.917   7.939  19.501  0.00  0.00    +0.000 NA
ATOM     14  C   UNL     1       2.637   6.768  19.459  0.00  0.00    +0.000 A 
ATOM     15 CL   UNL     1       2.723   5.713  20.789  0.00  0.00    +0.000 Cl
ATOM     16  H   UNL     1       3.177   7.967  16.579  0.00  0.00    +0.000 HD
BRANCH  12  17
ATOM     17  C   UNL     1       1.526   9.822  17.886  0.00  0.00    +0.000 C 
ATOM     18  C   UNL     1       0.982  10.625  19.056  0.00  0.00    +0.000 C 
ENDBRANCH  12  17
ENDBRANCH   8  10
BRANCH   1  19
ATOM     19  C   UNL     1       2.491   3.539  17.707  0.00  0.00    +0.000 C 
ATOM     20  O   UNL     1       2.380   2.951  16.648  0.00  0.00    +0.000 OA
BRANCH  19  21
ATOM     21  O   UNL     1       1.476   3.818  18.561  0.00  0.00    +0.000 OA
BRANCH  21  23
ATOM     22  C   UNL     1       0.839   2.925  20.660  0.00  0.00    +0.000 C 
ATOM     23  C   UNL     1       0.826   2.690  19.160  0.00  0.00    +0.000 C 
ENDBRANCH  21  23
ENDBRANCH  19  21
ENDBRANCH   1  19
BRANCH   7  24
ATOM     24  C   UNL     1       6.281   6.839  16.948  0.00  0.00    +0.000 C 
ATOM     25  O   UNL     1       6.805   7.876  17.333  0.00  0.00    +0.000 OA
BRANCH  24  26
ATOM     26  O   UNL     1       6.238   6.430  15.660  0.00  0.00    +0.000 OA
BRANCH  26  27
ATOM     27  C   UNL     1       7.186   5.416  15.291  0.00  0.00    +0.000 C 
BRANCH  27  28
ATOM     28  C   UNL     1       6.670   4.666  14.092  0.00  0.00    +0.000 A 
ATOM     29  C   UNL     1       5.379   4.122  14.092  0.00  0.00    +0.000 A 
ATOM     30  C   UNL     1       4.910   3.410  12.987  0.00  0.00    +0.000 A 
ATOM     31  C   UNL     1       5.728   3.231  11.872  0.00  0.00    +0.000 A 
ATOM     32  C   UNL     1       7.014   3.768  11.861  0.00  0.00    +0.000 A 
ATOM     33  C   UNL     1       7.485   4.481  12.965  0.00  0.00    +0.000 A 
ENDBRANCH  27  28
ENDBRANCH  26  27
ENDBRANCH  24  26
ENDBRANCH   7  24
TORSDOF 9
ENDMDL
MODEL 2
REMARK VINA RESULT:      -7.7      1.315      1.780
REMARK  Name = 
REMARK  13 active torsions:
REMARK  status: ('A' for Active; 'I' for Inactive)
REMARK    1  A    between atoms: C_1  and  C_2
REMARK    2  A    between atoms: C_2  and  O_3
REMARK    3  A    between atoms: O_3  and  C_4
REMARK    4  A    between atoms: C_4  and  C_6
REMARK    5  A    between atoms: C_7  and  C_8
REMARK    6  A    between atoms: C_10  and  C_11
REMARK    7  A    between atoms: C_12  and  C_13
REMARK    8  A    between atoms: C_13  and  O_15
REMARK    9  A    between atoms: O_15  and  C_16
REMARK   10  A    between atoms: C_16  and  C_17
REMARK   11  A    between atoms: C_23  and  C_24
REMARK   12  A    between atoms: C_26  and  C_27
REMARK   13  A    between atoms: C_27  and  C_28
REMARK                            x       y       z     vdW  Elec       q    Type
REMARK                         _______ _______ _______ _____ _____    ______ ____
ROOT
ATOM      1  C   UNL     1       3.699   4.075  18.538  0.00  0.00    +0.000 C 
ATOM      2  C   UNL     1       4.582   3.496  19.389  0.00  0.00    +0.000 C 
ATOM      3  C   UNL     1       4.454   2.137  20.037  0.00  0.00    +0.000 C 
ATOM      4  N   UNL     1       5.762   4.165  19.699  0.00  0.00    +0.000 N 
ATOM      5  C   UNL     1       6.267   5.216  18.945  0.00  0.00    +0.000 C 
ATOM      6  C   UNL     1       7.712   5.570  19.190  0.00  0.00    +0.000 C 
ATOM      7  C   UNL     1       5.464   5.855  18.059  0.00  0.00    +0.000 C 
ATOM      8  C   UNL     1       3.980   5.482  17.970  0.00  0.00    +0.000 C 
ATOM      9  H   UNL     1       6.452   3.619  20.213  0.00  0.00    +0.000 HD
ENDROOT
BRANCH   8  10
ATOM     10  C   UNL     1       3.107   6.499  18.661  0.00  0.00    +0.000 A 
ATOM     11  N   UNL     1       2.582   6.281  19.916  0.00  0.00    +0.000 N 
ATOM     12  C   UNL     1       1.842   7.385  20.262  0.00  0.00    +0.000 A 
ATOM     13  N   UNL     1       1.867   8.280  19.296  0.00  0.00    +0.000 NA
ATOM     14  C   UNL     1       2.639   7.740  18.294  0.00  0.00    +0.000 A 
ATOM     15 CL   UNL     1       2.919   8.558  16.830  0.00  0.00    +0.000 Cl
ATOM     16  H   UNL     1       2.712   5.447  20.476  0.00  0.00    +0.000 HD
BRANCH  12  17
ATOM     17  C   UNL     1       1.111   7.485  21.554  0.00  0.00    +0.000 C 
ATOM     18  C   UNL     1       0.276   8.752  21.632  0.00  0.00    +0.000 C 
ENDBRANCH  12  17
ENDBRANCH   8  10
BRANCH   1  19
ATOM     19  C   UNL     1       2.438   3.407  18.114  0.00  0.00    +0.000 C 
ATOM     20  O   UNL     1       1.868   3.579  17.053  0.00  0.00    +0.000 OA
BRANCH  19  21
ATOM     21  O   UNL     1       1.975   2.655  19.142  0.00  0.00    +0.000 OA
BRANCH  21  23
ATOM     22  C   UNL     1       1.283   3.158  21.351  0.00  0.00    +0.000 C 
ATOM     23  C   UNL     1       0.882   3.206  19.887  0.00  0.00    +0.000 C 
ENDBRANCH  21  23
ENDBRANCH  19  21
ENDBRANCH   1  19
BRANCH   7  24
ATOM     24  C   UNL     1       6.014   6.881  17.130  0.00  0.00    +0.000 C 
ATOM     25  O   UNL     1       6.432   7.974  17.491  0.00  0.00    +0.000 OA
BRANCH  24  26
ATOM     26  O   UNL     1       5.997   6.449  15.850  0.00  0.00    +0.000 OA
BRANCH  26  27
ATOM     27  C   UNL     1       7.086   5.598  15.458  0.00  0.00    +0.000 C 
BRANCH  27  28
ATOM     28  C   UNL     1       6.688   4.809  14.239  0.00  0.00    +0.000 A 
ATOM     29  C   UNL     1       7.537   4.741  13.125  0.00  0.00    +0.000 A 
ATOM     30  C   UNL     1       7.158   4.025  11.989  0.00  0.00    +0.000 A 
ATOM     31  C   UNL     1       5.927   3.374  11.952  0.00  0.00    +0.000 A 
ATOM     32  C   UNL     1       5.075   3.434  13.053  0.00  0.00    +0.000 A 
ATOM     33  C   UNL     1       5.452   4.149  14.191  0.00  0.00    +0.000 A 
ENDBRANCH  27  28
ENDBRANCH  26  27
ENDBRANCH  24  26
ENDBRANCH   7  24
TORSDOF 9
ENDMDL
MODEL 3
REMARK VINA RESULT:      -7.7      0.969      1.402
REMARK  Name = 
REMARK  13 active torsions:
REMARK  status: ('A' for Active; 'I' for Inactive)
REMARK    1  A    between atoms: C_1  and  C_2
REMARK    2  A    between atoms: C_2  and  O_3
REMARK    3  A    between atoms: O_3  and  C_4
REMARK    4  A    between atoms: C_4  and  C_6
REMARK    5  A    between atoms: C_7  and  C_8
REMARK    6  A    between atoms: C_10  and  C_11
REMARK    7  A    between atoms: C_12  and  C_13
REMARK    8  A    between atoms: C_13  and  O_15
REMARK    9  A    between atoms: O_15  and  C_16
REMARK   10  A    between atoms: C_16  and  C_17
REMARK   11  A    between atoms: C_23  and  C_24
REMARK   12  A    between atoms: C_26  and  C_27
REMARK   13  A    between atoms: C_27  and  C_28
REMARK                            x       y       z     vdW  Elec       q    Type
REMARK                         _______ _______ _______ _____ _____    ______ ____
ROOT
ATOM      1  C   UNL     1       3.426   3.717  18.365  0.00  0.00    +0.000 C 
ATOM      2  C   UNL     1       4.443   3.193  19.093  0.00  0.00    +0.000 C 
ATOM      3  C   UNL     1       4.377   1.987  20.001  0.00  0.00    +0.000 C 
ATOM      4  N   UNL     1       5.708   3.765  18.998  0.00  0.00    +0.000 N 
ATOM      5  C   UNL     1       6.091   4.608  17.964  0.00  0.00    +0.000 C 
ATOM      6  C   UNL     1       7.574   4.831  17.808  0.00  0.00    +0.000 C 
ATOM      7  C   UNL     1       5.148   5.176  17.174  0.00  0.00    +0.000 C 
ATOM      8  C   UNL     1       3.662   4.965  17.490  0.00  0.00    +0.000 C 
ATOM      9  H   UNL     1       6.460   3.238  19.441  0.00  0.00    +0.000 HD
ENDROOT
BRANCH   8  10
ATOM     10  C   UNL     1       3.056   6.178  18.151  0.00  0.00    +0.000 A 
ATOM     11  N   UNL     1       2.764   7.325  17.447  0.00  0.00    +0.000 N 
ATOM     12  C   UNL     1       2.227   8.235  18.325  0.00  0.00    +0.000 A 
ATOM     13  N   UNL     1       2.172   7.727  19.539  0.00  0.00    +0.000 NA
ATOM     14  C   UNL     1       2.691   6.458  19.448  0.00  0.00    +0.000 A 
ATOM     15 CL   UNL     1       2.834   5.441  20.803  0.00  0.00    +0.000 Cl
ATOM     16  H   UNL     1       2.928   7.472  16.458  0.00  0.00    +0.000 HD
BRANCH  12  17
ATOM     17  C   UNL     1       1.811   9.601  17.907  0.00  0.00    +0.000 C 
ATOM     18  C   UNL     1       0.529  10.035  18.600  0.00  0.00    +0.000 C 
ENDBRANCH  12  17
ENDBRANCH   8  10
BRANCH   1  19
ATOM     19  C   UNL     1       2.055   3.135  18.369  0.00  0.00    +0.000 C 
ATOM     20  O   UNL     1       1.203   3.328  17.523  0.00  0.00    +0.000 OA
BRANCH  19  21
ATOM     21  O   UNL     1       1.878   2.441  19.519  0.00  0.00    +0.000 OA
BRANCH  21  23
ATOM     22  C   UNL     1       1.286   2.540  21.810  0.00  0.00    +0.000 C 
ATOM     23  C   UNL     1       0.864   2.931  20.405  0.00  0.00    +0.000 C 
ENDBRANCH  21  23
ENDBRANCH  19  21
ENDBRANCH   1  19
BRANCH   7  24
ATOM     24  C   UNL     1       5.530   5.960  15.966  0.00  0.00    +0.000 C 
ATOM     25  O   UNL     1       5.926   7.118  16.003  0.00  0.00    +0.000 OA
BRANCH  24  26
ATOM     26  O   UNL     1       5.391   5.229  14.838  0.00  0.00    +0.000 OA
BRANCH  26  27
ATOM     27  C   UNL     1       6.610   4.857  14.175  0.00  0.00    +0.000 C 
BRANCH  27  28
ATOM     28  C   UNL     1       6.297   3.888  13.065  0.00  0.00    +0.000 A 
ATOM     29  C   UNL     1       7.329   3.239  12.373  0.00  0.00    +0.000 A 
ATOM     30  C   UNL     1       7.037   2.357  11.332  0.00  0.00    +0.000 A 
ATOM     31  C   UNL     1       5.713   2.116  10.970  0.00  0.00    +0.000 A 
ATOM     32  C   UNL     1       4.679   2.755  11.652  0.00  0.00    +0.000 A 
ATOM     33  C   UNL     1       4.968   3.638  12.694  0.00  0.00    +0.000 A 
ENDBRANCH  27  28
ENDBRANCH  26  27
ENDBRANCH  24  26
ENDBRANCH   7  24
TORSDOF 9
ENDMDL
MODEL 4
REMARK VINA RESULT:      -7.3      2.368      4.386
REMARK  Name = 
REMARK  13 active torsions:
REMARK  status: ('A' for Active; 'I' for Inactive)
REMARK    1  A    between atoms: C_1  and  C_2
REMARK    2  A    between atoms: C_2  and  O_3
REMARK    3  A    between atoms: O_3  and  C_4
REMARK    4  A    between atoms: C_4  and  C_6
REMARK    5  A    between atoms: C_7  and  C_8
REMARK    6  A    between atoms: C_10  and  C_11
REMARK    7  A    between atoms: C_12  and  C_13
REMARK    8  A    between atoms: C_13  and  O_15
REMARK    9  A    between atoms: O_15  and  C_16
REMARK   10  A    between atoms: C_16  and  C_17
REMARK   11  A    between atoms: C_23  and  C_24
REMARK   12  A    between atoms: C_26  and  C_27
REMARK   13  A    between atoms: C_27  and  C_28
REMARK                            x       y       z     vdW  Elec       q    Type
REMARK                         _______ _______ _______ _____ _____    ______ ____
ROOT
ATOM      1  C   UNL     1       3.791   4.241  18.249  0.00  0.00    +0.000 C 
ATOM      2  C   UNL     1       4.566   3.641  19.185  0.00  0.00    +0.000 C 
ATOM      3  C   UNL     1       4.346   2.280  19.805  0.00  0.00    +0.000 C 
ATOM      4  N   UNL     1       5.717   4.287  19.625  0.00  0.00    +0.000 N 
ATOM      5  C   UNL     1       6.319   5.333  18.939  0.00  0.00    +0.000 C 
ATOM      6  C   UNL     1       7.735   5.660  19.341  0.00  0.00    +0.000 C 
ATOM      7  C   UNL     1       5.628   5.992  17.977  0.00  0.00    +0.000 C 
ATOM      8  C   UNL     1       4.155   5.646  17.725  0.00  0.00    +0.000 C 
ATOM      9  H   UNL     1       6.338   3.725  20.207  0.00  0.00    +0.000 HD
ENDROOT
BRANCH   8  10
ATOM     10  C   UNL     1       3.230   6.674  18.327  0.00  0.00    +0.000 A 
ATOM     11  N   UNL     1       2.864   7.815  17.648  0.00  0.00    +0.000 N 
ATOM     12  C   UNL     1       2.023   8.538  18.457  0.00  0.00    +0.000 A 
ATOM     13  N   UNL     1       1.846   7.920  19.608  0.00  0.00    +0.000 NA
ATOM     14  C   UNL     1       2.596   6.770  19.544  0.00  0.00    +0.000 A 
ATOM     15 CL   UNL     1       2.679   5.673  20.840  0.00  0.00    +0.000 Cl
ATOM     16  H   UNL     1       3.171   8.076  16.718  0.00  0.00    +0.000 HD
BRANCH  12  17
ATOM     17  C   UNL     1       1.445   9.846  18.047  0.00  0.00    +0.000 C 
ATOM     18  C   UNL     1       0.299  10.264  18.954  0.00  0.00    +0.000 C 
ENDBRANCH  12  17
ENDBRANCH   8  10
BRANCH   1  19
ATOM     19  C   UNL     1       2.571   3.598  17.686  0.00  0.00    +0.000 C 
ATOM     20  O   UNL     1       2.500   3.039  16.608  0.00  0.00    +0.000 OA
BRANCH  19  21
ATOM     21  O   UNL     1       1.530   3.828  18.523  0.00  0.00    +0.000 OA
BRANCH  21  23
ATOM     22  C   UNL     1       0.819   2.830  20.549  0.00  0.00    +0.000 C 
ATOM     23  C   UNL     1       0.866   2.668  19.040  0.00  0.00    +0.000 C 
ENDBRANCH  21  23
ENDBRANCH  19  21
ENDBRANCH   1  19
BRANCH   7  24
ATOM     24  C   UNL     1       6.292   7.013  17.121  0.00  0.00    +0.000 C 
ATOM     25  O   UNL     1       6.275   6.992  15.897  0.00  0.00    +0.000 OA
BRANCH  24  26
ATOM     26  O   UNL     1       6.903   7.961  17.866  0.00  0.00    +0.000 OA
BRANCH  26  27
ATOM     27  C   UNL     1       8.108   8.515  17.313  0.00  0.00    +0.000 C 
BRANCH  27  28
ATOM     28  C   UNL     1       8.532   9.704  18.134  0.00  0.00    +0.000 A 
ATOM     29  C   UNL     1       9.006   9.534  19.442  0.00  0.00    +0.000 A 
ATOM     30  C   UNL     1       9.381  10.639  20.208  0.00  0.00    +0.000 A 
ATOM     31  C   UNL     1       9.283  11.924  19.677  0.00  0.00    +0.000 A 
ATOM     32  C   UNL     1       8.813  12.104  18.377  0.00  0.00    +0.000 A 
ATOM     33  C   UNL     1       8.438  11.001  17.609  0.00  0.00    +0.000 A 
ENDBRANCH  27  28
ENDBRANCH  26  27
ENDBRANCH  24  26
ENDBRANCH   7  24
TORSDOF 9
ENDMDL
MODEL 5
REMARK VINA RESULT:      -7.2      2.724      4.584
REMARK  Name = 
REMARK  13 active torsions:
REMARK  status: ('A' for Active; 'I' for Inactive)
REMARK    1  A    between atoms: C_1  and  C_2
REMARK    2  A    between atoms: C_2  and  O_3
REMARK    3  A    between atoms: O_3  and  C_4
REMARK    4  A    between atoms: C_4  and  C_6
REMARK    5  A    between atoms: C_7  and  C_8
REMARK    6  A    between atoms: C_10  and  C_11
REMARK    7  A    between atoms: C_12  and  C_13
REMARK    8  A    between atoms: C_13  and  O_15
REMARK    9  A    between atoms: O_15  and  C_16
REMARK   10  A    between atoms: C_16  and  C_17
REMARK   11  A    between atoms: C_23  and  C_24
REMARK   12  A    between atoms: C_26  and  C_27
REMARK   13  A    between atoms: C_27  and  C_28
REMARK                            x       y       z     vdW  Elec       q    Type
REMARK                         _______ _______ _______ _____ _____    ______ ____
ROOT
ATOM      1  C   UNL     1       3.681   4.214  18.494  0.00  0.00    +0.000 C 
ATOM      2  C   UNL     1       4.549   3.608  19.341  0.00  0.00    +0.000 C 
ATOM      3  C   UNL     1       4.402   2.236  19.958  0.00  0.00    +0.000 C 
ATOM      4  N   UNL     1       5.731   4.260  19.680  0.00  0.00    +0.000 N 
ATOM      5  C   UNL     1       6.253   5.323  18.955  0.00  0.00    +0.000 C 
ATOM      6  C   UNL     1       7.698   5.659  19.225  0.00  0.00    +0.000 C 
ATOM      7  C   UNL     1       5.467   5.988  18.075  0.00  0.00    +0.000 C 
ATOM      8  C   UNL     1       3.980   5.630  17.960  0.00  0.00    +0.000 C 
ATOM      9  H   UNL     1       6.410   3.696  20.190  0.00  0.00    +0.000 HD
ENDROOT
BRANCH   8  10
ATOM     10  C   UNL     1       3.108   6.640  18.664  0.00  0.00    +0.000 A 
ATOM     11  N   UNL     1       2.602   6.417  19.925  0.00  0.00    +0.000 N 
ATOM     12  C   UNL     1       1.857   7.514  20.282  0.00  0.00    +0.000 A 
ATOM     13  N   UNL     1       1.861   8.409  19.315  0.00  0.00    +0.000 NA
ATOM     14  C   UNL     1       2.624   7.877  18.303  0.00  0.00    +0.000 A 
ATOM     15 CL   UNL     1       2.878   8.697  16.836  0.00  0.00    +0.000 Cl
ATOM     16  H   UNL     1       2.747   5.584  20.483  0.00  0.00    +0.000 HD
BRANCH  12  17
ATOM     17  C   UNL     1       1.143   7.607  21.584  0.00  0.00    +0.000 C 
ATOM     18  C   UNL     1       0.504   8.972  21.778  0.00  0.00    +0.000 C 
ENDBRANCH  12  17
ENDBRANCH   8  10
BRANCH   1  19
ATOM     19  C   UNL     1       2.419   3.566  18.040  0.00  0.00    +0.000 C 
ATOM     20  O   UNL     1       2.310   2.822  17.084  0.00  0.00    +0.000 OA
BRANCH  19  21
ATOM     21  O   UNL     1       1.396   4.022  18.803  0.00  0.00    +0.000 OA
BRANCH  21  23
ATOM     22  C   UNL     1       1.213   3.145  20.995  0.00  0.00    +0.000 C 
ATOM     23  C   UNL     1       0.693   3.039  19.572  0.00  0.00    +0.000 C 
ENDBRANCH  21  23
ENDBRANCH  19  21
ENDBRANCH   1  19
BRANCH   7  24
ATOM     24  C   UNL     1       6.036   7.030  17.175  0.00  0.00    +0.000 C 
ATOM     25  O   UNL     1       5.906   7.024  15.958  0.00  0.00    +0.000 OA
BRANCH  24  26
ATOM     26  O   UNL     1       6.703   7.976  17.873  0.00  0.00    +0.000 OA
BRANCH  26  27
ATOM     27  C   UNL     1       7.930   8.441  17.288  0.00  0.00    +0.000 C 
BRANCH  27  28
ATOM     28  C   UNL     1       8.430   9.632  18.062  0.00  0.00    +0.000 A 
ATOM     29  C   UNL     1       9.033   9.465  19.316  0.00  0.00    +0.000 A 
ATOM     30  C   UNL     1       9.479  10.572  20.040  0.00  0.00    +0.000 A 
ATOM     31  C   UNL     1       9.325  11.856  19.520  0.00  0.00    +0.000 A 
ATOM     32  C   UNL     1       8.727  12.033  18.273  0.00  0.00    +0.000 A 
ATOM     33  C   UNL     1       8.281  10.928  17.547  0.00  0.00    +0.000 A 
ENDBRANCH  27  28
ENDBRANCH  26  27
ENDBRANCH  24  26
ENDBRANCH   7  24
TORSDOF 9
ENDMDL
MODEL 6
REMARK VINA RESULT:      -6.8      4.795      8.664
REMARK  Name = 
REMARK  13 active torsions:
REMARK  status: ('A' for Active; 'I' for Inactive)
REMARK    1  A    between atoms: C_1  and  C_2
REMARK    2  A    between atoms: C_2  and  O_3
REMARK    3  A    between atoms: O_3  and  C_4
REMARK    4  A    between atoms: C_4  and  C_6
REMARK    5  A    between atoms: C_7  and  C_8
REMARK    6  A    between atoms: C_10  and  C_11
REMARK    7  A    between atoms: C_12  and  C_13
REMARK    8  A    between atoms: C_13  and  O_15
REMARK    9  A    between atoms: O_15  and  C_16
REMARK   10  A    between atoms: C_16  and  C_17
REMARK   11  A    between atoms: C_23  and  C_24
REMARK   12  A    between atoms: C_26  and  C_27
REMARK   13  A    between atoms: C_27  and  C_28
REMARK                            x       y       z     vdW  Elec       q    Type
REMARK                         _______ _______ _______ _____ _____    ______ ____
ROOT
ATOM      1  C   UNL     1       1.597  12.663  20.321  0.00  0.00    +0.000 C 
ATOM      2  C   UNL     1       1.868  12.687  18.993  0.00  0.00    +0.000 C 
ATOM      3  C   UNL     1       2.582  13.783  18.235  0.00  0.00    +0.000 C 
ATOM      4  N   UNL     1       1.506  11.596  18.209  0.00  0.00    +0.000 N 
ATOM      5  C   UNL     1       1.203  10.345  18.729  0.00  0.00    +0.000 C 
ATOM      6  C   UNL     1       1.203   9.202  17.746  0.00  0.00    +0.000 C 
ATOM      7  C   UNL     1       0.925  10.216  20.049  0.00  0.00    +0.000 C 
ATOM      8  C   UNL     1       0.846  11.464  20.937  0.00  0.00    +0.000 C 
ATOM      9  H   UNL     1       1.873  11.602  17.257  0.00  0.00    +0.000 HD
ENDROOT
BRANCH   8  10
ATOM     10  C   UNL     1      -0.582  11.848  21.233  0.00  0.00    +0.000 A 
ATOM     11  N   UNL     1      -1.086  11.860  22.515  0.00  0.00    +0.000 N 
ATOM     12  C   UNL     1      -2.400  12.250  22.449  0.00  0.00    +0.000 A 
ATOM     13  N   UNL     1      -2.752  12.478  21.200  0.00  0.00    +0.000 NA
ATOM     14  C   UNL     1      -1.639  12.223  20.435  0.00  0.00    +0.000 A 
ATOM     15 CL   UNL     1      -1.653  12.368  18.742  0.00  0.00    +0.000 Cl
ATOM     16  H   UNL     1      -0.576  11.613  23.355  0.00  0.00    +0.000 HD
BRANCH  12  17
ATOM     17  C   UNL     1      -3.266  12.356  23.654  0.00  0.00    +0.000 C 
ATOM     18  C   UNL     1      -3.360  13.788  24.156  0.00  0.00    +0.000 C 
ENDBRANCH  12  17
ENDBRANCH   8  10
BRANCH   1  19
ATOM     19  C   UNL     1       1.994  13.764  21.241  0.00  0.00    +0.000 C 
ATOM     20  O   UNL     1       1.306  14.723  21.536  0.00  0.00    +0.000 OA
BRANCH  19  21
ATOM     21  O   UNL     1       3.284  13.578  21.613  0.00  0.00    +0.000 OA
BRANCH  21  23
ATOM     22  C   UNL     1       5.394  14.637  21.421  0.00  0.00    +0.000 C 
ATOM     23  C   UNL     1       4.002  14.750  22.018  0.00  0.00    +0.000 C 
ENDBRANCH  21  23
ENDBRANCH  19  21
ENDBRANCH   1  19
BRANCH   7  24
ATOM     24  C   UNL     1       0.746   8.872  20.666  0.00  0.00    +0.000 C 
ATOM     25  O   UNL     1      -0.227   8.554  21.336  0.00  0.00    +0.000 OA
BRANCH  24  26
ATOM     26  O   UNL     1       1.787   8.056  20.385  0.00  0.00    +0.000 OA
BRANCH  26  27
ATOM     27  C   UNL     1       1.811   6.803  21.086  0.00  0.00    +0.000 C 
BRANCH  27  28
ATOM     28  C   UNL     1       1.750   5.674  20.092  0.00  0.00    +0.000 A 
ATOM     29  C   UNL     1       1.151   4.454  20.434  0.00  0.00    +0.000 A 
ATOM     30  C   UNL     1       1.112   3.403  19.517  0.00  0.00    +0.000 A 
ATOM     31  C   UNL     1       1.675   3.558  18.251  0.00  0.00    +0.000 A 
ATOM     32  C   UNL     1       2.273   4.767  17.900  0.00  0.00    +0.000 A 
ATOM     33  C   UNL     1       2.312   5.821  18.815  0.00  0.00    +0.000 A 
ENDBRANCH  27  28
ENDBRANCH  26  27
ENDBRANCH  24  26
ENDBRANCH   7  24
TORSDOF 9
ENDMDL
MODEL 7
REMARK VINA RESULT:      -6.8      1.535      1.759
REMARK  Name = 
REMARK  13 active torsions:
REMARK  status: ('A' for Active; 'I' for Inactive)
REMARK    1  A    between atoms: C_1  and  C_2
REMARK    2  A    between atoms: C_2  and  O_3
REMARK    3  A    between atoms: O_3  and  C_4
REMARK    4  A    between atoms: C_4  and  C_6
REMARK    5  A    between atoms: C_7  and  C_8
REMARK    6  A    between atoms: C_10  and  C_11
REMARK    7  A    between atoms: C_12  and  C_13
REMARK    8  A    between atoms: C_13  and  O_15
REMARK    9  A    between atoms: O_15  and  C_16
REMARK   10  A    between atoms: C_16  and  C_17
REMARK   11  A    between atoms: C_23  and  C_24
REMARK   12  A    between atoms: C_26  and  C_27
REMARK   13  A    between atoms: C_27  and  C_28
REMARK                            x       y       z     vdW  Elec       q    Type
REMARK                         _______ _______ _______ _____ _____    ______ ____
ROOT
ATOM      1  C   UNL     1       4.117   3.727  18.188  0.00  0.00    +0.000 C 
ATOM      2  C   UNL     1       4.757   3.391  19.335  0.00  0.00    +0.000 C 
ATOM      3  C   UNL     1       4.291   2.394  20.372  0.00  0.00    +0.000 C 
ATOM      4  N   UNL     1       5.992   3.967  19.615  0.00  0.00    +0.000 N 
ATOM      5  C   UNL     1       6.780   4.592  18.658  0.00  0.00    +0.000 C 
ATOM      6  C   UNL     1       8.222   4.820  19.035  0.00  0.00    +0.000 C 
ATOM      7  C   UNL     1       6.234   4.960  17.473  0.00  0.00    +0.000 C 
ATOM      8  C   UNL     1       4.730   4.777  17.238  0.00  0.00    +0.000 C 
ATOM      9  H   UNL     1       6.494   3.562  20.405  0.00  0.00    +0.000 HD
ENDROOT
BRANCH   8  10
ATOM     10  C   UNL     1       3.983   6.081  17.364  0.00  0.00    +0.000 A 
ATOM     11  N   UNL     1       3.212   6.380  18.465  0.00  0.00    +0.000 N 
ATOM     12  C   UNL     1       2.672   7.629  18.277  0.00  0.00    +0.000 A 
ATOM     13  N   UNL     1       3.055   8.128  17.119  0.00  0.00    +0.000 NA
ATOM     14  C   UNL     1       3.859   7.176  16.538  0.00  0.00    +0.000 A 
ATOM     15 CL   UNL     1       4.559   7.398  15.005  0.00  0.00    +0.000 Cl
ATOM     16  H   UNL     1       3.063   5.778  19.265  0.00  0.00    +0.000 HD
BRANCH  12  17
ATOM     17  C   UNL     1       1.764   8.266  19.268  0.00  0.00    +0.000 C 
ATOM     18  C   UNL     1       1.194   9.575  18.750  0.00  0.00    +0.000 C 
ENDBRANCH  12  17
ENDBRANCH   8  10
BRANCH   1  19
ATOM     19  C   UNL     1       2.817   3.120  17.787  0.00  0.00    +0.000 C 
ATOM     20  O   UNL     1       2.682   2.159  17.053  0.00  0.00    +0.000 OA
BRANCH  19  21
ATOM     21  O   UNL     1       1.810   3.874  18.290  0.00  0.00    +0.000 OA
BRANCH  21  23
ATOM     22  C   UNL     1       1.015   4.213  20.495  0.00  0.00    +0.000 C 
ATOM     23  C   UNL     1       1.011   3.262  19.311  0.00  0.00    +0.000 C 
ENDBRANCH  21  23
ENDBRANCH  19  21
ENDBRANCH   1  19
BRANCH   7  24
ATOM     24  C   UNL     1       7.083   5.492  16.371  0.00  0.00    +0.000 C 
ATOM     25  O   UNL     1       7.548   6.624  16.355  0.00  0.00    +0.000 OA
BRANCH  24  26
ATOM     26  O   UNL     1       7.275   4.567  15.404  0.00  0.00    +0.000 OA
BRANCH  26  27
ATOM     27  C   UNL     1       7.383   5.072  14.064  0.00  0.00    +0.000 C 
BRANCH  27  28
ATOM     28  C   UNL     1       6.621   4.170  13.129  0.00  0.00    +0.000 A 
ATOM     29  C   UNL     1       5.225   4.076  13.209  0.00  0.00    +0.000 A 
ATOM     30  C   UNL     1       4.522   3.226  12.354  0.00  0.00    +0.000 A 
ATOM     31  C   UNL     1       5.207   2.458  11.413  0.00  0.00    +0.000 A 
ATOM     32  C   UNL     1       6.595   2.545  11.324  0.00  0.00    +0.000 A 
ATOM     33  C   UNL     1       7.300   3.395  12.178  0.00  0.00    +0.000 A 
ENDBRANCH  27  28
ENDBRANCH  26  27
ENDBRANCH  24  26
ENDBRANCH   7  24
TORSDOF 9
ENDMDL
MODEL 8
REMARK VINA RESULT:      -6.8      4.637      8.553
REMARK  Name = 
REMARK  13 active torsions:
REMARK  status: ('A' for Active; 'I' for Inactive)
REMARK    1  A    between atoms: C_1  and  C_2
REMARK    2  A    between atoms: C_2  and  O_3
REMARK    3  A    between atoms: O_3  and  C_4
REMARK    4  A    between atoms: C_4  and  C_6
REMARK    5  A    between atoms: C_7  and  C_8
REMARK    6  A    between atoms: C_10  and  C_11
REMARK    7  A    between atoms: C_12  and  C_13
REMARK    8  A    between atoms: C_13  and  O_15
REMARK    9  A    between atoms: O_15  and  C_16
REMARK   10  A    between atoms: C_16  and  C_17
REMARK   11  A    between atoms: C_23  and  C_24
REMARK   12  A    between atoms: C_26  and  C_27
REMARK   13  A    between atoms: C_27  and  C_28
REMARK                            x       y       z     vdW  Elec       q    Type
REMARK                         _______ _______ _______ _____ _____    ______ ____
ROOT
ATOM      1  C   UNL     1       1.562  12.696  20.281  0.00  0.00    +0.000 C 
ATOM      2  C   UNL     1       1.815  12.692  18.949  0.00  0.00    +0.000 C 
ATOM      3  C   UNL     1       2.506  13.779  18.157  0.00  0.00    +0.000 C 
ATOM      4  N   UNL     1       1.455  11.580  18.195  0.00  0.00    +0.000 N 
ATOM      5  C   UNL     1       1.173  10.338  18.748  0.00  0.00    +0.000 C 
ATOM      6  C   UNL     1       1.173   9.173  17.791  0.00  0.00    +0.000 C 
ATOM      7  C   UNL     1       0.914  10.236  20.074  0.00  0.00    +0.000 C 
ATOM      8  C   UNL     1       0.834  11.503  20.934  0.00  0.00    +0.000 C 
ATOM      9  H   UNL     1       1.808  11.568  17.238  0.00  0.00    +0.000 HD
ENDROOT
BRANCH   8  10
ATOM     10  C   UNL     1      -0.594  11.878  21.242  0.00  0.00    +0.000 A 
ATOM     11  N   UNL     1      -1.092  11.873  22.525  0.00  0.00    +0.000 N 
ATOM     12  C   UNL     1      -2.409  12.259  22.470  0.00  0.00    +0.000 A 
ATOM     13  N   UNL     1      -2.767  12.500  21.225  0.00  0.00    +0.000 NA
ATOM     14  C   UNL     1      -1.656  12.258  20.453  0.00  0.00    +0.000 A 
ATOM     15 CL   UNL     1      -1.679  12.423  18.761  0.00  0.00    +0.000 Cl
ATOM     16  H   UNL     1      -0.578  11.618  23.360  0.00  0.00    +0.000 HD
BRANCH  12  17
ATOM     17  C   UNL     1      -3.269  12.347  23.681  0.00  0.00    +0.000 C 
ATOM     18  C   UNL     1      -4.578  13.062  23.390  0.00  0.00    +0.000 C 
ENDBRANCH  12  17
ENDBRANCH   8  10
BRANCH   1  19
ATOM     19  C   UNL     1       1.960  13.822  21.170  0.00  0.00    +0.000 C 
ATOM     20  O   UNL     1       2.924  13.832  21.912  0.00  0.00    +0.000 OA
BRANCH  19  21
ATOM     21  O   UNL     1       1.016  14.793  21.094  0.00  0.00    +0.000 OA
BRANCH  21  23
ATOM     22  C   UNL     1      -0.380  15.343  22.926  0.00  0.00    +0.000 C 
ATOM     23  C   UNL     1       0.923  15.674  22.219  0.00  0.00    +0.000 C 
ENDBRANCH  21  23
ENDBRANCH  19  21
ENDBRANCH   1  19
BRANCH   7  24
ATOM     24  C   UNL     1       0.759   8.904  20.724  0.00  0.00    +0.000 C 
ATOM     25  O   UNL     1      -0.240   8.559  21.340  0.00  0.00    +0.000 OA
BRANCH  24  26
ATOM     26  O   UNL     1       1.854   8.134  20.539  0.00  0.00    +0.000 OA
BRANCH  26  27
ATOM     27  C   UNL     1       1.682   6.728  20.782  0.00  0.00    +0.000 C 
BRANCH  27  28
ATOM     28  C   UNL     1       2.235   5.950  19.617  0.00  0.00    +0.000 A 
ATOM     29  C   UNL     1       1.772   4.657  19.339  0.00  0.00    +0.000 A 
ATOM     30  C   UNL     1       2.300   3.931  18.270  0.00  0.00    +0.000 A 
ATOM     31  C   UNL     1       3.298   4.488  17.472  0.00  0.00    +0.000 A 
ATOM     32  C   UNL     1       3.766   5.773  17.739  0.00  0.00    +0.000 A 
ATOM     33  C   UNL     1       3.239   6.502  18.807  0.00  0.00    +0.000 A 
ENDBRANCH  27  28
ENDBRANCH  26  27
ENDBRANCH  24  26
ENDBRANCH   7  24
TORSDOF 9
ENDMDL
MODEL 9
REMARK VINA RESULT:      -6.7      4.555      8.574
REMARK  Name = 
REMARK  13 active torsions:
REMARK  status: ('A' for Active; 'I' for Inactive)
REMARK    1  A    between atoms: C_1  and  C_2
REMARK    2  A    between atoms: C_2  and  O_3
REMARK    3  A    between atoms: O_3  and  C_4
REMARK    4  A    between atoms: C_4  and  C_6
REMARK    5  A    between atoms: C_7  and  C_8
REMARK    6  A    between atoms: C_10  and  C_11
REMARK    7  A    between atoms: C_12  and  C_13
REMARK    8  A    between atoms: C_13  and  O_15
REMARK    9  A    between atoms: O_15  and  C_16
REMARK   10  A    between atoms: C_16  and  C_17
REMARK   11  A    between atoms: C_23  and  C_24
REMARK   12  A    between atoms: C_26  and  C_27
REMARK   13  A    between atoms: C_27  and  C_28
REMARK                            x       y       z     vdW  Elec       q    Type
REMARK                         _______ _______ _______ _____ _____    ______ ____
ROOT
ATOM      1  C   UNL     1       1.682  12.621  20.158  0.00  0.00    +0.000 C 
ATOM      2  C   UNL     1       1.933  12.586  18.827  0.00  0.00    +0.000 C 
ATOM      3  C   UNL     1       2.639  13.646  18.012  0.00  0.00    +0.000 C 
ATOM      4  N   UNL     1       1.557  11.463  18.096  0.00  0.00    +0.000 N 
ATOM      5  C   UNL     1       1.258  10.237  18.674  0.00  0.00    +0.000 C 
ATOM      6  C   UNL     1       1.242   9.053  17.742  0.00  0.00    +0.000 C 
ATOM      7  C   UNL     1       1.000  10.166  20.003  0.00  0.00    +0.000 C 
ATOM      8  C   UNL     1       0.938  11.451  20.837  0.00  0.00    +0.000 C 
ATOM      9  H   UNL     1       1.910  11.427  17.139  0.00  0.00    +0.000 HD
ENDROOT
BRANCH   8  10
ATOM     10  C   UNL     1      -0.485  11.852  21.137  0.00  0.00    +0.000 A 
ATOM     11  N   UNL     1      -0.994  11.840  22.416  0.00  0.00    +0.000 N 
ATOM     12  C   UNL     1      -2.302  12.255  22.355  0.00  0.00    +0.000 A 
ATOM     13  N   UNL     1      -2.644  12.521  21.111  0.00  0.00    +0.000 NA
ATOM     14  C   UNL     1      -1.532  12.267  20.345  0.00  0.00    +0.000 A 
ATOM     15 CL   UNL     1      -1.535  12.456  18.656  0.00  0.00    +0.000 Cl
ATOM     16  H   UNL     1      -0.493  11.562  23.251  0.00  0.00    +0.000 HD
BRANCH  12  17
ATOM     17  C   UNL     1      -3.171  12.344  23.560  0.00  0.00    +0.000 C 
ATOM     18  C   UNL     1      -4.506  12.997  23.244  0.00  0.00    +0.000 C 
ENDBRANCH  12  17
ENDBRANCH   8  10
BRANCH   1  19
ATOM     19  C   UNL     1       2.096  13.760  21.023  0.00  0.00    +0.000 C 
ATOM     20  O   UNL     1       3.056  13.768  21.770  0.00  0.00    +0.000 OA
BRANCH  19  21
ATOM     21  O   UNL     1       1.171  14.745  20.920  0.00  0.00    +0.000 OA
BRANCH  21  23
ATOM     22  C   UNL     1       0.846  16.813  19.812  0.00  0.00    +0.000 C 
ATOM     23  C   UNL     1       1.678  16.084  20.853  0.00  0.00    +0.000 C 
ENDBRANCH  21  23
ENDBRANCH  19  21
ENDBRANCH   1  19
BRANCH   7  24
ATOM     24  C   UNL     1       0.827   8.851  20.680  0.00  0.00    +0.000 C 
ATOM     25  O   UNL     1      -0.173   8.535  21.311  0.00  0.00    +0.000 OA
BRANCH  24  26
ATOM     26  O   UNL     1       1.906   8.057  20.501  0.00  0.00    +0.000 OA
BRANCH  26  27
ATOM     27  C   UNL     1       1.706   6.657  20.755  0.00  0.00    +0.000 C 
BRANCH  27  28
ATOM     28  C   UNL     1       2.251   5.858  19.601  0.00  0.00    +0.000 A 
ATOM     29  C   UNL     1       3.327   6.341  18.844  0.00  0.00    +0.000 A 
ATOM     30  C   UNL     1       3.817   5.608  17.762  0.00  0.00    +0.000 A 
ATOM     31  C   UNL     1       3.236   4.387  17.425  0.00  0.00    +0.000 A 
ATOM     32  C   UNL     1       2.166   3.897  18.171  0.00  0.00    +0.000 A 
ATOM     33  C   UNL     1       1.674   4.628  19.253  0.00  0.00    +0.000 A 
ENDBRANCH  27  28
ENDBRANCH  26  27
ENDBRANCH  24  26
ENDBRANCH   7  24
TORSDOF 9
ENDMDL
