MODEL 1
REMARK VINA RESULT:      -6.8      0.000      0.000
REMARK  Name = 
REMARK  5 active torsions:
REMARK  status: ('A' for Active; 'I' for Inactive)
REMARK    1  A    between atoms: C_1  and  N_2
REMARK    2  A    between atoms: N_4  and  C_5
REMARK    3  A    between atoms: C_5  and  C_6
REMARK    4  A    between atoms: C_6  and  C_8
REMARK    5  A    between atoms: C_15  and  N_16
REMARK                            x       y       z     vdW  Elec       q    Type
REMARK                         _______ _______ _______ _____ _____    ______ ____
ROOT
ATOM      1  C   UNL     1       7.587   7.623  17.466  0.00  0.00    +0.000 C 
ATOM      2  N   UNL     1       6.379   6.808  17.346  0.00  0.00    +0.000 N 
ATOM      3  C   UNL     1       5.155   7.241  17.696  0.00  0.00    +0.000 A 
ATOM      4  N   UNL     1       4.267   6.264  17.435  0.00  0.00    +0.000 N 
ATOM      5  C   UNL     1       4.947   5.166  16.917  0.00  0.00    +0.000 A 
ATOM      6  C   UNL     1       6.279   5.490  16.849  0.00  0.00    +0.000 A 
ENDROOT
BRANCH   6   7
ATOM      7  N   UNL     1       7.356   4.703  16.397  0.00  0.00    +0.000 N 
ATOM      8  O   UNL     1       8.074   4.180  17.253  0.00  0.00    +0.000 OA
ATOM      9  O   UNL     1       7.467   4.612  15.170  0.00  0.00    +0.000 OA
ENDBRANCH   6   7
BRANCH   4  10
ATOM     10  C   UNL     1       2.797   6.330  17.673  0.00  0.00    +0.000 C 
BRANCH  10  11
ATOM     11  C   UNL     1       2.404   6.258  19.145  0.00  0.00    +0.000 C 
ATOM     12  O   UNL     1       2.452   7.240  19.887  0.00  0.00    +0.000 OA
BRANCH  11  13
ATOM     13  C   UNL     1       2.029   4.932  19.713  0.00  0.00    +0.000 A 
ATOM     14  C   UNL     1       2.296   4.699  21.070  0.00  0.00    +0.000 A 
ATOM     15  C   UNL     1       2.009   3.459  21.642  0.00  0.00    +0.000 A 
ATOM     16  C   UNL     1       1.437   2.452  20.867  0.00  0.00    +0.000 A 
ATOM     17  C   UNL     1       1.144   2.686  19.524  0.00  0.00    +0.000 A 
ATOM     18  C   UNL     1       1.439   3.924  18.942  0.00  0.00    +0.000 A 
ENDBRANCH  11  13
ENDBRANCH  10  11
ENDBRANCH   4  10
TORSDOF 4
ENDMDL
MODEL 2
REMARK VINA RESULT:      -6.7      3.392      6.608
REMARK  Name = 
REMARK  5 active torsions:
REMARK  status: ('A' for Active; 'I' for Inactive)
REMARK    1  A    between atoms: C_1  and  N_2
REMARK    2  A    between atoms: N_4  and  C_5
REMARK    3  A    between atoms: C_5  and  C_6
REMARK    4  A    between atoms: C_6  and  C_8
REMARK    5  A    between atoms: C_15  and  N_16
REMARK                            x       y       z     vdW  Elec       q    Type
REMARK                         _______ _______ _______ _____ _____    ______ ____
ROOT
ATOM      1  C   UNL     1       2.057   2.091  18.121  0.00  0.00    +0.000 C 
ATOM      2  N   UNL     1       3.214   2.985  18.128  0.00  0.00    +0.000 N 
ATOM      3  C   UNL     1       3.494   3.843  17.130  0.00  0.00    +0.000 A 
ATOM      4  N   UNL     1       4.601   4.531  17.460  0.00  0.00    +0.000 N 
ATOM      5  C   UNL     1       5.054   4.088  18.699  0.00  0.00    +0.000 A 
ATOM      6  C   UNL     1       4.191   3.116  19.138  0.00  0.00    +0.000 A 
ENDROOT
BRANCH   6   7
ATOM      7  N   UNL     1       4.236   2.371  20.333  0.00  0.00    +0.000 N 
ATOM      8  O   UNL     1       5.160   1.565  20.464  0.00  0.00    +0.000 OA
ATOM      9  O   UNL     1       3.333   2.611  21.141  0.00  0.00    +0.000 OA
ENDBRANCH   6   7
BRANCH   4  10
ATOM     10  C   UNL     1       5.256   5.587  16.634  0.00  0.00    +0.000 C 
BRANCH  10  11
ATOM     11  C   UNL     1       6.614   5.180  16.072  0.00  0.00    +0.000 C 
ATOM     12  O   UNL     1       7.649   5.260  16.733  0.00  0.00    +0.000 OA
BRANCH  11  13
ATOM     13  C   UNL     1       6.687   4.747  14.647  0.00  0.00    +0.000 A 
ATOM     14  C   UNL     1       7.663   5.339  13.831  0.00  0.00    +0.000 A 
ATOM     15  C   UNL     1       7.746   5.006  12.479  0.00  0.00    +0.000 A 
ATOM     16  C   UNL     1       6.869   4.068  11.939  0.00  0.00    +0.000 A 
ATOM     17  C   UNL     1       5.915   3.455  12.751  0.00  0.00    +0.000 A 
ATOM     18  C   UNL     1       5.819   3.792  14.105  0.00  0.00    +0.000 A 
ENDBRANCH  11  13
ENDBRANCH  10  11
ENDBRANCH   4  10
TORSDOF 4
ENDMDL
MODEL 3
REMARK VINA RESULT:      -6.6      3.294      6.282
REMARK  Name = 
REMARK  5 active torsions:
REMARK  status: ('A' for Active; 'I' for Inactive)
REMARK    1  A    between atoms: C_1  and  N_2
REMARK    2  A    between atoms: N_4  and  C_5
REMARK    3  A    between atoms: C_5  and  C_6
REMARK    4  A    between atoms: C_6  and  C_8
REMARK    5  A    between atoms: C_15  and  N_16
REMARK                            x       y       z     vdW  Elec       q    Type
REMARK                         _______ _______ _______ _____ _____    ______ ____
ROOT
ATOM      1  C   UNL     1       2.494   4.642  20.299  0.00  0.00    +0.000 C 
ATOM      2  N   UNL     1       3.402   4.595  19.153  0.00  0.00    +0.000 N 
ATOM      3  C   UNL     1       3.621   5.642  18.338  0.00  0.00    +0.000 A 
ATOM      4  N   UNL     1       4.524   5.276  17.410  0.00  0.00    +0.000 N 
ATOM      5  C   UNL     1       4.881   3.949  17.629  0.00  0.00    +0.000 A 
ATOM      6  C   UNL     1       4.187   3.502  18.725  0.00  0.00    +0.000 A 
ENDROOT
BRANCH   6   7
ATOM      7  N   UNL     1       4.212   2.229  19.327  0.00  0.00    +0.000 N 
ATOM      8  O   UNL     1       3.461   1.368  18.863  0.00  0.00    +0.000 OA
ATOM      9  O   UNL     1       5.002   2.104  20.269  0.00  0.00    +0.000 OA
ENDBRANCH   6   7
BRANCH   4  10
ATOM     10  C   UNL     1       5.051   6.137  16.312  0.00  0.00    +0.000 C 
BRANCH  10  11
ATOM     11  C   UNL     1       6.419   5.708  15.792  0.00  0.00    +0.000 C 
ATOM     12  O   UNL     1       7.464   5.998  16.374  0.00  0.00    +0.000 OA
BRANCH  11  13
ATOM     13  C   UNL     1       6.483   4.983  14.491  0.00  0.00    +0.000 A 
ATOM     14  C   UNL     1       7.589   5.219  13.661  0.00  0.00    +0.000 A 
ATOM     15  C   UNL     1       7.677   4.604  12.412  0.00  0.00    +0.000 A 
ATOM     16  C   UNL     1       6.672   3.734  11.994  0.00  0.00    +0.000 A 
ATOM     17  C   UNL     1       5.584   3.473  12.825  0.00  0.00    +0.000 A 
ATOM     18  C   UNL     1       5.484   4.095  14.074  0.00  0.00    +0.000 A 
ENDBRANCH  11  13
ENDBRANCH  10  11
ENDBRANCH   4  10
TORSDOF 4
ENDMDL
MODEL 4
REMARK VINA RESULT:      -6.6      1.825      2.022
REMARK  Name = 
REMARK  5 active torsions:
REMARK  status: ('A' for Active; 'I' for Inactive)
REMARK    1  A    between atoms: C_1  and  N_2
REMARK    2  A    between atoms: N_4  and  C_5
REMARK    3  A    between atoms: C_5  and  C_6
REMARK    4  A    between atoms: C_6  and  C_8
REMARK    5  A    between atoms: C_15  and  N_16
REMARK                            x       y       z     vdW  Elec       q    Type
REMARK                         _______ _______ _______ _____ _____    ______ ____
ROOT
ATOM      1  C   UNL     1       7.858   4.572  17.768  0.00  0.00    +0.000 C 
ATOM      2  N   UNL     1       6.508   4.900  17.309  0.00  0.00    +0.000 N 
ATOM      3  C   UNL     1       5.491   5.185  18.142  0.00  0.00    +0.000 A 
ATOM      4  N   UNL     1       4.403   5.467  17.403  0.00  0.00    +0.000 N 
ATOM      5  C   UNL     1       4.730   5.343  16.056  0.00  0.00    +0.000 A 
ATOM      6  C   UNL     1       6.054   4.989  15.976  0.00  0.00    +0.000 A 
ENDROOT
BRANCH   6   7
ATOM      7  N   UNL     1       6.834   4.746  14.828  0.00  0.00    +0.000 N 
ATOM      8  O   UNL     1       7.728   5.556  14.569  0.00  0.00    +0.000 OA
ATOM      9  O   UNL     1       6.540   3.728  14.194  0.00  0.00    +0.000 OA
ENDBRANCH   6   7
BRANCH   4  10
ATOM     10  C   UNL     1       3.058   5.837  17.929  0.00  0.00    +0.000 C 
BRANCH  10  11
ATOM     11  C   UNL     1       2.106   4.655  18.081  0.00  0.00    +0.000 C 
ATOM     12  O   UNL     1       1.237   4.400  17.247  0.00  0.00    +0.000 OA
BRANCH  11  13
ATOM     13  C   UNL     1       2.188   3.837  19.324  0.00  0.00    +0.000 A 
ATOM     14  C   UNL     1       1.088   3.852  20.194  0.00  0.00    +0.000 A 
ATOM     15  C   UNL     1       1.130   3.142  21.394  0.00  0.00    +0.000 A 
ATOM     16  C   UNL     1       2.261   2.399  21.723  0.00  0.00    +0.000 A 
ATOM     17  C   UNL     1       3.347   2.357  20.850  0.00  0.00    +0.000 A 
ATOM     18  C   UNL     1       3.317   3.075  19.650  0.00  0.00    +0.000 A 
ENDBRANCH  11  13
ENDBRANCH  10  11
ENDBRANCH   4  10
TORSDOF 4
ENDMDL
MODEL 5
REMARK VINA RESULT:      -6.6      1.327      1.442
REMARK  Name = 
REMARK  5 active torsions:
REMARK  status: ('A' for Active; 'I' for Inactive)
REMARK    1  A    between atoms: C_1  and  N_2
REMARK    2  A    between atoms: N_4  and  C_5
REMARK    3  A    between atoms: C_5  and  C_6
REMARK    4  A    between atoms: C_6  and  C_8
REMARK    5  A    between atoms: C_15  and  N_16
REMARK                            x       y       z     vdW  Elec       q    Type
REMARK                         _______ _______ _______ _____ _____    ______ ____
ROOT
ATOM      1  C   UNL     1       7.584   4.889  18.243  0.00  0.00    +0.000 C 
ATOM      2  N   UNL     1       6.405   5.463  17.596  0.00  0.00    +0.000 N 
ATOM      3  C   UNL     1       5.416   6.077  18.269  0.00  0.00    +0.000 A 
ATOM      4  N   UNL     1       4.504   6.513  17.381  0.00  0.00    +0.000 N 
ATOM      5  C   UNL     1       4.915   6.152  16.101  0.00  0.00    +0.000 A 
ATOM      6  C   UNL     1       6.113   5.492  16.215  0.00  0.00    +0.000 A 
ENDROOT
BRANCH   6   7
ATOM      7  N   UNL     1       6.914   4.935  15.198  0.00  0.00    +0.000 N 
ATOM      8  O   UNL     1       7.812   5.641  14.733  0.00  0.00    +0.000 OA
ATOM      9  O   UNL     1       6.632   3.776  14.878  0.00  0.00    +0.000 OA
ENDBRANCH   6   7
BRANCH   4  10
ATOM     10  C   UNL     1       3.248   7.248  17.703  0.00  0.00    +0.000 C 
BRANCH  10  11
ATOM     11  C   UNL     1       2.578   6.792  18.995  0.00  0.00    +0.000 C 
ATOM     12  O   UNL     1       2.530   7.505  19.998  0.00  0.00    +0.000 OA
BRANCH  11  13
ATOM     13  C   UNL     1       2.038   5.404  19.060  0.00  0.00    +0.000 A 
ATOM     14  C   UNL     1       1.805   4.848  20.326  0.00  0.00    +0.000 A 
ATOM     15  C   UNL     1       1.345   3.536  20.445  0.00  0.00    +0.000 A 
ATOM     16  C   UNL     1       1.097   2.780  19.301  0.00  0.00    +0.000 A 
ATOM     17  C   UNL     1       1.300   3.336  18.039  0.00  0.00    +0.000 A 
ATOM     18  C   UNL     1       1.771   4.647  17.912  0.00  0.00    +0.000 A 
ENDBRANCH  11  13
ENDBRANCH  10  11
ENDBRANCH   4  10
TORSDOF 4
ENDMDL
MODEL 6
REMARK VINA RESULT:      -6.6      1.335      1.790
REMARK  Name = 
REMARK  5 active torsions:
REMARK  status: ('A' for Active; 'I' for Inactive)
REMARK    1  A    between atoms: C_1  and  N_2
REMARK    2  A    between atoms: N_4  and  C_5
REMARK    3  A    between atoms: C_5  and  C_6
REMARK    4  A    between atoms: C_6  and  C_8
REMARK    5  A    between atoms: C_15  and  N_16
REMARK                            x       y       z     vdW  Elec       q    Type
REMARK                         _______ _______ _______ _____ _____    ______ ____
ROOT
ATOM      1  C   UNL     1       7.501   4.817  18.310  0.00  0.00    +0.000 C 
ATOM      2  N   UNL     1       6.321   5.401  17.673  0.00  0.00    +0.000 N 
ATOM      3  C   UNL     1       5.332   6.003  18.357  0.00  0.00    +0.000 A 
ATOM      4  N   UNL     1       4.419   6.453  17.476  0.00  0.00    +0.000 N 
ATOM      5  C   UNL     1       4.829   6.114  16.191  0.00  0.00    +0.000 A 
ATOM      6  C   UNL     1       6.028   5.453  16.293  0.00  0.00    +0.000 A 
ENDROOT
BRANCH   6   7
ATOM      7  N   UNL     1       6.828   4.914  15.267  0.00  0.00    +0.000 N 
ATOM      8  O   UNL     1       6.522   3.799  14.835  0.00  0.00    +0.000 OA
ATOM      9  O   UNL     1       7.765   5.628  14.896  0.00  0.00    +0.000 OA
ENDBRANCH   6   7
BRANCH   4  10
ATOM     10  C   UNL     1       3.162   7.182  17.812  0.00  0.00    +0.000 C 
BRANCH  10  11
ATOM     11  C   UNL     1       2.509   6.724  19.112  0.00  0.00    +0.000 C 
ATOM     12  O   UNL     1       2.442   7.449  20.105  0.00  0.00    +0.000 OA
BRANCH  11  13
ATOM     13  C   UNL     1       2.012   5.321  19.197  0.00  0.00    +0.000 A 
ATOM     14  C   UNL     1       1.859   4.606  18.001  0.00  0.00    +0.000 A 
ATOM     15  C   UNL     1       1.352   3.306  18.017  0.00  0.00    +0.000 A 
ATOM     16  C   UNL     1       1.014   2.707  19.229  0.00  0.00    +0.000 A 
ATOM     17  C   UNL     1       1.190   3.403  20.425  0.00  0.00    +0.000 A 
ATOM     18  C   UNL     1       1.687   4.711  20.414  0.00  0.00    +0.000 A 
ENDBRANCH  11  13
ENDBRANCH  10  11
ENDBRANCH   4  10
TORSDOF 4
ENDMDL
MODEL 7
REMARK VINA RESULT:      -6.6      3.115      6.510
REMARK  Name = 
REMARK  5 active torsions:
REMARK  status: ('A' for Active; 'I' for Inactive)
REMARK    1  A    between atoms: C_1  and  N_2
REMARK    2  A    between atoms: N_4  and  C_5
REMARK    3  A    between atoms: C_5  and  C_6
REMARK    4  A    between atoms: C_6  and  C_8
REMARK    5  A    between atoms: C_15  and  N_16
REMARK                            x       y       z     vdW  Elec       q    Type
REMARK                         _______ _______ _______ _____ _____    ______ ____
ROOT
ATOM      1  C   UNL     1       2.647   6.511  19.061  0.00  0.00    +0.000 C 
ATOM      2  N   UNL     1       3.486   5.492  18.429  0.00  0.00    +0.000 N 
ATOM      3  C   UNL     1       4.770   5.697  18.087  0.00  0.00    +0.000 A 
ATOM      4  N   UNL     1       5.256   4.560  17.559  0.00  0.00    +0.000 N 
ATOM      5  C   UNL     1       4.246   3.602  17.548  0.00  0.00    +0.000 A 
ATOM      6  C   UNL     1       3.123   4.170  18.095  0.00  0.00    +0.000 A 
ENDROOT
BRANCH   6   7
ATOM      7  N   UNL     1       1.851   3.596  18.293  0.00  0.00    +0.000 N 
ATOM      8  O   UNL     1       1.670   2.967  19.339  0.00  0.00    +0.000 OA
ATOM      9  O   UNL     1       1.036   3.791  17.386  0.00  0.00    +0.000 OA
ENDBRANCH   6   7
BRANCH   4  10
ATOM     10  C   UNL     1       6.642   4.351  17.051  0.00  0.00    +0.000 C 
BRANCH  10  11
ATOM     11  C   UNL     1       7.042   5.308  15.932  0.00  0.00    +0.000 C 
ATOM     12  O   UNL     1       7.404   6.463  16.154  0.00  0.00    +0.000 OA
BRANCH  11  13
ATOM     13  C   UNL     1       6.907   4.842  14.523  0.00  0.00    +0.000 A 
ATOM     14  C   UNL     1       5.857   3.964  14.219  0.00  0.00    +0.000 A 
ATOM     15  C   UNL     1       5.712   3.459  12.926  0.00  0.00    +0.000 A 
ATOM     16  C   UNL     1       6.603   3.843  11.926  0.00  0.00    +0.000 A 
ATOM     17  C   UNL     1       7.632   4.738  12.215  0.00  0.00    +0.000 A 
ATOM     18  C   UNL     1       7.790   5.239  13.511  0.00  0.00    +0.000 A 
ENDBRANCH  11  13
ENDBRANCH  10  11
ENDBRANCH   4  10
TORSDOF 4
ENDMDL
MODEL 8
REMARK VINA RESULT:      -6.6      3.112      6.557
REMARK  Name = 
REMARK  5 active torsions:
REMARK  status: ('A' for Active; 'I' for Inactive)
REMARK    1  A    between atoms: C_1  and  N_2
REMARK    2  A    between atoms: N_4  and  C_5
REMARK    3  A    between atoms: C_5  and  C_6
REMARK    4  A    between atoms: C_6  and  C_8
REMARK    5  A    between atoms: C_15  and  N_16
REMARK                            x       y       z     vdW  Elec       q    Type
REMARK                         _______ _______ _______ _____ _____    ______ ____
ROOT
ATOM      1  C   UNL     1       2.958   4.561  20.490  0.00  0.00    +0.000 C 
ATOM      2  N   UNL     1       3.533   4.698  19.152  0.00  0.00    +0.000 N 
ATOM      3  C   UNL     1       4.635   5.422  18.890  0.00  0.00    +0.000 A 
ATOM      4  N   UNL     1       4.911   5.318  17.578  0.00  0.00    +0.000 N 
ATOM      5  C   UNL     1       3.945   4.515  16.979  0.00  0.00    +0.000 A 
ATOM      6  C   UNL     1       3.069   4.111  17.955  0.00  0.00    +0.000 A 
ENDROOT
BRANCH   6   7
ATOM      7  N   UNL     1       1.928   3.293  17.834  0.00  0.00    +0.000 N 
ATOM      8  O   UNL     1       0.884   3.829  17.454  0.00  0.00    +0.000 OA
ATOM      9  O   UNL     1       2.098   2.103  18.120  0.00  0.00    +0.000 OA
ENDBRANCH   6   7
BRANCH   4  10
ATOM     10  C   UNL     1       6.051   5.964  16.867  0.00  0.00    +0.000 C 
BRANCH  10  11
ATOM     11  C   UNL     1       7.040   4.977  16.257  0.00  0.00    +0.000 C 
ATOM     12  O   UNL     1       7.915   4.425  16.925  0.00  0.00    +0.000 OA
BRANCH  11  13
ATOM     13  C   UNL     1       6.986   4.741  14.786  0.00  0.00    +0.000 A 
ATOM     14  C   UNL     1       6.067   3.798  14.305  0.00  0.00    +0.000 A 
ATOM     15  C   UNL     1       6.007   3.504  12.942  0.00  0.00    +0.000 A 
ATOM     16  C   UNL     1       6.850   4.164  12.051  0.00  0.00    +0.000 A 
ATOM     17  C   UNL     1       7.747   5.124  12.519  0.00  0.00    +0.000 A 
ATOM     18  C   UNL     1       7.820   5.415  13.885  0.00  0.00    +0.000 A 
ENDBRANCH  11  13
ENDBRANCH  10  11
ENDBRANCH   4  10
TORSDOF 4
ENDMDL
MODEL 9
REMARK VINA RESULT:      -6.5      2.035      3.075
REMARK  Name = 
REMARK  5 active torsions:
REMARK  status: ('A' for Active; 'I' for Inactive)
REMARK    1  A    between atoms: C_1  and  N_2
REMARK    2  A    between atoms: N_4  and  C_5
REMARK    3  A    between atoms: C_5  and  C_6
REMARK    4  A    between atoms: C_6  and  C_8
REMARK    5  A    between atoms: C_15  and  N_16
REMARK                            x       y       z     vdW  Elec       q    Type
REMARK                         _______ _______ _______ _____ _____    ______ ____
ROOT
ATOM      1  C   UNL     1       7.671   5.690  19.396  0.00  0.00    +0.000 C 
ATOM      2  N   UNL     1       6.599   5.131  18.573  0.00  0.00    +0.000 N 
ATOM      3  C   UNL     1       5.614   4.358  19.064  0.00  0.00    +0.000 A 
ATOM      4  N   UNL     1       4.783   4.037  18.056  0.00  0.00    +0.000 N 
ATOM      5  C   UNL     1       5.260   4.608  16.881  0.00  0.00    +0.000 A 
ATOM      6  C   UNL     1       6.403   5.305  17.186  0.00  0.00    +0.000 A 
ENDROOT
BRANCH   6   7
ATOM      7  N   UNL     1       7.241   6.044  16.328  0.00  0.00    +0.000 N 
ATOM      8  O   UNL     1       7.693   5.462  15.338  0.00  0.00    +0.000 OA
ATOM      9  O   UNL     1       7.435   7.218  16.660  0.00  0.00    +0.000 OA
ENDBRANCH   6   7
BRANCH   4  10
ATOM     10  C   UNL     1       3.557   3.195  18.165  0.00  0.00    +0.000 C 
BRANCH  10  11
ATOM     11  C   UNL     1       2.255   3.976  18.028  0.00  0.00    +0.000 C 
ATOM     12  O   UNL     1       1.354   3.623  17.266  0.00  0.00    +0.000 OA
BRANCH  11  13
ATOM     13  C   UNL     1       2.113   5.252  18.785  0.00  0.00    +0.000 A 
ATOM     14  C   UNL     1       2.353   6.452  18.101  0.00  0.00    +0.000 A 
ATOM     15  C   UNL     1       2.280   7.672  18.774  0.00  0.00    +0.000 A 
ATOM     16  C   UNL     1       1.949   7.702  20.127  0.00  0.00    +0.000 A 
ATOM     17  C   UNL     1       1.681   6.514  20.806  0.00  0.00    +0.000 A 
ATOM     18  C   UNL     1       1.763   5.286  20.141  0.00  0.00    +0.000 A 
ENDBRANCH  11  13
ENDBRANCH  10  11
ENDBRANCH   4  10
TORSDOF 4
ENDMDL
