MODEL 1
REMARK VINA RESULT:      -7.4      0.000      0.000
REMARK  Name = 
REMARK  10 active torsions:
REMARK  status: ('A' for Active; 'I' for Inactive)
REMARK    1  A    between atoms: C_1  and  C_2
REMARK    2  A    between atoms: C_3  and  C_4
REMARK    3  A    between atoms: N_6  and  C_7
REMARK    4  A    between atoms: N_6  and  C_10
REMARK    5  A    between atoms: C_7  and  C_8
REMARK    6  A    between atoms: C_8  and  O_9
REMARK    7  A    between atoms: C_10  and  C_11
REMARK    8  A    between atoms: C_10  and  C_12
REMARK    9  A    between atoms: N_19  and  C_20
REMARK   10  A    between atoms: C_20  and  C_21
REMARK                            x       y       z     vdW  Elec       q    Type
REMARK                         _______ _______ _______ _____ _____    ______ ____
ROOT
ATOM      1  C   UNL     1       1.319  11.099  18.393  0.00  0.00    +0.000 C 
ATOM      2  C   UNL     1       0.765  11.566  19.713  0.00  0.00    +0.000 A 
ATOM      3  C   UNL     1       0.519  12.897  20.103  0.00  0.00    +0.000 A 
ATOM      4  S   UNL     1      -0.470  12.892  21.498  0.00  0.00    +0.000 S 
ATOM      5  C   UNL     1      -0.079  11.296  21.867  0.00  0.00    +0.000 A 
ATOM      6  N   UNL     1      -0.393  10.795  23.073  0.00  0.00    +0.000 NA
ATOM      7  C   UNL     1      -0.026   9.521  23.193  0.00  0.00    +0.000 A 
ATOM      8  N   UNL     1       0.526   8.742  22.249  0.00  0.00    +0.000 NA
ATOM      9  C   UNL     1       0.774   9.266  21.028  0.00  0.00    +0.000 A 
ATOM     10  N   UNL     1       1.270   8.449  20.008  0.00  0.00    +0.000 N 
ATOM     11  C   UNL     1       0.516  10.639  20.817  0.00  0.00    +0.000 A 
ATOM     12  H   UNL     1       0.492   8.244  19.383  0.00  0.00    +0.000 HD
ENDROOT
BRANCH   3  13
ATOM     13  C   UNL     1       0.852  14.128  19.368  0.00  0.00    +0.000 C 
ATOM     14  O   UNL     1      -0.008  14.607  18.623  0.00  0.00    +0.000 OA
ATOM     15  N   UNL     1       2.131  14.755  19.409  0.00  0.00    +0.000 N 
BRANCH  15  16
ATOM     16  C   UNL     1       2.412  15.812  18.402  0.00  0.00    +0.000 C 
ATOM     17  C   UNL     1       2.323  17.225  18.989  0.00  0.00    +0.000 C 
ATOM     18  C   UNL     1       3.722  15.604  17.633  0.00  0.00    +0.000 C 
ENDBRANCH  15  16
BRANCH  15  19
ATOM     19  C   UNL     1       3.263  14.490  20.332  0.00  0.00    +0.000 C 
BRANCH  19  20
ATOM     20  C   UNL     1       3.087  14.966  21.782  0.00  0.00    +0.000 C 
BRANCH  20  21
ATOM     21  O   UNL     1       3.905  14.226  22.685  0.00  0.00    +0.000 OA
ATOM     22  H   UNL     1       3.771  13.283  22.484  0.00  0.00    +0.000 HD
ENDBRANCH  20  21
ENDBRANCH  19  20
ENDBRANCH  15  19
ENDBRANCH   3  13
BRANCH  10  23
ATOM     23  C   UNL     1       1.884   7.199  20.448  0.00  0.00    +0.000 C 
BRANCH  23  24
ATOM     24  C   UNL     1       2.722   6.597  19.355  0.00  0.00    +0.000 A 
ATOM     25  C   UNL     1       3.402   7.247  18.347  0.00  0.00    +0.000 A 
ATOM     26  C   UNL     1       4.061   6.349  17.443  0.00  0.00    +0.000 A 
ATOM     27  C   UNL     1       4.846   6.612  16.296  0.00  0.00    +0.000 A 
ATOM     28  C   UNL     1       5.397   5.558  15.560  0.00  0.00    +0.000 A 
ATOM     29  C   UNL     1       5.172   4.243  15.944  0.00  0.00    +0.000 A 
ATOM     30  C   UNL     1       4.395   3.954  17.067  0.00  0.00    +0.000 A 
ATOM     31  C   UNL     1       3.847   5.018  17.809  0.00  0.00    +0.000 A 
ATOM     32  S   UNL     1       2.866   4.903  19.217  0.00  0.00    +0.000 S 
ENDBRANCH  23  24
ENDBRANCH  10  23
TORSDOF 7
ENDMDL
MODEL 2
REMARK VINA RESULT:      -7.2      0.739      1.125
REMARK  Name = 
REMARK  10 active torsions:
REMARK  status: ('A' for Active; 'I' for Inactive)
REMARK    1  A    between atoms: C_1  and  C_2
REMARK    2  A    between atoms: C_3  and  C_4
REMARK    3  A    between atoms: N_6  and  C_7
REMARK    4  A    between atoms: N_6  and  C_10
REMARK    5  A    between atoms: C_7  and  C_8
REMARK    6  A    between atoms: C_8  and  O_9
REMARK    7  A    between atoms: C_10  and  C_11
REMARK    8  A    between atoms: C_10  and  C_12
REMARK    9  A    between atoms: N_19  and  C_20
REMARK   10  A    between atoms: C_20  and  C_21
REMARK                            x       y       z     vdW  Elec       q    Type
REMARK                         _______ _______ _______ _____ _____    ______ ____
ROOT
ATOM      1  C   UNL     1       1.330  11.110  18.407  0.00  0.00    +0.000 C 
ATOM      2  C   UNL     1       0.769  11.563  19.728  0.00  0.00    +0.000 A 
ATOM      3  C   UNL     1       0.509  12.888  20.126  0.00  0.00    +0.000 A 
ATOM      4  S   UNL     1      -0.482  12.865  21.519  0.00  0.00    +0.000 S 
ATOM      5  C   UNL     1      -0.076  11.271  21.878  0.00  0.00    +0.000 A 
ATOM      6  N   UNL     1      -0.388  10.759  23.081  0.00  0.00    +0.000 NA
ATOM      7  C   UNL     1      -0.008   9.488  23.193  0.00  0.00    +0.000 A 
ATOM      8  N   UNL     1       0.552   8.720  22.245  0.00  0.00    +0.000 NA
ATOM      9  C   UNL     1       0.797   9.254  21.028  0.00  0.00    +0.000 A 
ATOM     10  N   UNL     1       1.304   8.449  20.004  0.00  0.00    +0.000 N 
ATOM     11  C   UNL     1       0.527  10.626  20.826  0.00  0.00    +0.000 A 
ATOM     12  H   UNL     1       0.529   8.240  19.377  0.00  0.00    +0.000 HD
ENDROOT
BRANCH   3  13
ATOM     13  C   UNL     1       0.832  14.128  19.400  0.00  0.00    +0.000 C 
ATOM     14  O   UNL     1      -0.016  14.581  18.626  0.00  0.00    +0.000 OA
ATOM     15  N   UNL     1       2.091  14.791  19.481  0.00  0.00    +0.000 N 
BRANCH  15  16
ATOM     16  C   UNL     1       2.375  15.854  18.482  0.00  0.00    +0.000 C 
ATOM     17  C   UNL     1       2.308  17.262  19.083  0.00  0.00    +0.000 C 
ATOM     18  C   UNL     1       3.674  15.638  17.699  0.00  0.00    +0.000 C 
ENDBRANCH  15  16
BRANCH  15  19
ATOM     19  C   UNL     1       3.198  14.560  20.443  0.00  0.00    +0.000 C 
BRANCH  19  20
ATOM     20  C   UNL     1       2.948  15.002  21.893  0.00  0.00    +0.000 C 
BRANCH  20  21
ATOM     21  O   UNL     1       3.890  14.424  22.793  0.00  0.00    +0.000 OA
ATOM     22  H   UNL     1       4.093  15.099  23.465  0.00  0.00    +0.000 HD
ENDBRANCH  20  21
ENDBRANCH  19  20
ENDBRANCH  15  19
ENDBRANCH   3  13
BRANCH  10  23
ATOM     23  C   UNL     1       1.929   7.203  20.437  0.00  0.00    +0.000 C 
BRANCH  23  24
ATOM     24  C   UNL     1       2.885   6.690  19.396  0.00  0.00    +0.000 A 
ATOM     25  C   UNL     1       3.726   5.601  19.475  0.00  0.00    +0.000 A 
ATOM     26  C   UNL     1       4.540   5.434  18.306  0.00  0.00    +0.000 A 
ATOM     27  C   UNL     1       5.518   4.459  17.998  0.00  0.00    +0.000 A 
ATOM     28  C   UNL     1       6.194   4.497  16.775  0.00  0.00    +0.000 A 
ATOM     29  C   UNL     1       5.918   5.497  15.852  0.00  0.00    +0.000 A 
ATOM     30  C   UNL     1       4.964   6.477  16.132  0.00  0.00    +0.000 A 
ATOM     31  C   UNL     1       4.282   6.432  17.363  0.00  0.00    +0.000 A 
ATOM     32  S   UNL     1       3.075   7.524  17.920  0.00  0.00    +0.000 S 
ENDBRANCH  23  24
ENDBRANCH  10  23
TORSDOF 7
ENDMDL
MODEL 3
REMARK VINA RESULT:      -7.0      1.393      2.013
REMARK  Name = 
REMARK  10 active torsions:
REMARK  status: ('A' for Active; 'I' for Inactive)
REMARK    1  A    between atoms: C_1  and  C_2
REMARK    2  A    between atoms: C_3  and  C_4
REMARK    3  A    between atoms: N_6  and  C_7
REMARK    4  A    between atoms: N_6  and  C_10
REMARK    5  A    between atoms: C_7  and  C_8
REMARK    6  A    between atoms: C_8  and  O_9
REMARK    7  A    between atoms: C_10  and  C_11
REMARK    8  A    between atoms: C_10  and  C_12
REMARK    9  A    between atoms: N_19  and  C_20
REMARK   10  A    between atoms: C_20  and  C_21
REMARK                            x       y       z     vdW  Elec       q    Type
REMARK                         _______ _______ _______ _____ _____    ______ ____
ROOT
ATOM      1  C   UNL     1       1.423  11.243  18.741  0.00  0.00    +0.000 C 
ATOM      2  C   UNL     1       0.575  11.819  19.844  0.00  0.00    +0.000 A 
ATOM      3  C   UNL     1       0.202  13.167  20.006  0.00  0.00    +0.000 A 
ATOM      4  S   UNL     1      -1.070  13.256  21.146  0.00  0.00    +0.000 S 
ATOM      5  C   UNL     1      -0.714  11.738  21.781  0.00  0.00    +0.000 A 
ATOM      6  N   UNL     1      -1.269  11.356  22.944  0.00  0.00    +0.000 NA
ATOM      7  C   UNL     1      -0.892  10.128  23.293  0.00  0.00    +0.000 A 
ATOM      8  N   UNL     1      -0.118   9.284  22.592  0.00  0.00    +0.000 NA
ATOM      9  C   UNL     1       0.375   9.683  21.399  0.00  0.00    +0.000 A 
ATOM     10  N   UNL     1       1.113   8.791  20.617  0.00  0.00    +0.000 N 
ATOM     11  C   UNL     1       0.121  11.006  20.972  0.00  0.00    +0.000 A 
ATOM     12  H   UNL     1       0.500   8.470  19.869  0.00  0.00    +0.000 HD
ENDROOT
BRANCH   3  13
ATOM     13  C   UNL     1       0.645  14.327  19.216  0.00  0.00    +0.000 C 
ATOM     14  O   UNL     1      -0.185  14.886  18.494  0.00  0.00    +0.000 OA
ATOM     15  N   UNL     1       1.991  14.796  19.180  0.00  0.00    +0.000 N 
BRANCH  15  16
ATOM     16  C   UNL     1       2.349  15.782  18.127  0.00  0.00    +0.000 C 
ATOM     17  C   UNL     1       2.197  17.231  18.599  0.00  0.00    +0.000 C 
ATOM     18  C   UNL     1       3.722  15.538  17.490  0.00  0.00    +0.000 C 
ENDBRANCH  15  16
BRANCH  15  19
ATOM     19  C   UNL     1       3.126  14.421  20.062  0.00  0.00    +0.000 C 
BRANCH  19  20
ATOM     20  C   UNL     1       3.243  15.190  21.387  0.00  0.00    +0.000 C 
BRANCH  20  21
ATOM     21  O   UNL     1       2.314  14.715  22.358  0.00  0.00    +0.000 OA
ATOM     22  H   UNL     1       1.422  14.910  22.019  0.00  0.00    +0.000 HD
ENDBRANCH  20  21
ENDBRANCH  19  20
ENDBRANCH  15  19
ENDBRANCH   3  13
BRANCH  10  23
ATOM     23  C   UNL     1       1.659   7.637  21.327  0.00  0.00    +0.000 C 
BRANCH  23  24
ATOM     24  C   UNL     1       1.814   6.461  20.404  0.00  0.00    +0.000 A 
ATOM     25  C   UNL     1       1.327   5.182  20.566  0.00  0.00    +0.000 A 
ATOM     26  C   UNL     1       1.711   4.296  19.505  0.00  0.00    +0.000 A 
ATOM     27  C   UNL     1       1.425   2.925  19.303  0.00  0.00    +0.000 A 
ATOM     28  C   UNL     1       1.915   2.260  18.175  0.00  0.00    +0.000 A 
ATOM     29  C   UNL     1       2.693   2.936  17.245  0.00  0.00    +0.000 A 
ATOM     30  C   UNL     1       2.998   4.286  17.423  0.00  0.00    +0.000 A 
ATOM     31  C   UNL     1       2.498   4.954  18.557  0.00  0.00    +0.000 A 
ATOM     32  S   UNL     1       2.742   6.604  18.980  0.00  0.00    +0.000 S 
ENDBRANCH  23  24
ENDBRANCH  10  23
TORSDOF 7
ENDMDL
MODEL 4
REMARK VINA RESULT:      -6.9      1.245      2.134
REMARK  Name = 
REMARK  10 active torsions:
REMARK  status: ('A' for Active; 'I' for Inactive)
REMARK    1  A    between atoms: C_1  and  C_2
REMARK    2  A    between atoms: C_3  and  C_4
REMARK    3  A    between atoms: N_6  and  C_7
REMARK    4  A    between atoms: N_6  and  C_10
REMARK    5  A    between atoms: C_7  and  C_8
REMARK    6  A    between atoms: C_8  and  O_9
REMARK    7  A    between atoms: C_10  and  C_11
REMARK    8  A    between atoms: C_10  and  C_12
REMARK    9  A    between atoms: N_19  and  C_20
REMARK   10  A    between atoms: C_20  and  C_21
REMARK                            x       y       z     vdW  Elec       q    Type
REMARK                         _______ _______ _______ _____ _____    ______ ____
ROOT
ATOM      1  C   UNL     1       2.101  11.547  18.423  0.00  0.00    +0.000 C 
ATOM      2  C   UNL     1       1.428  11.975  19.700  0.00  0.00    +0.000 A 
ATOM      3  C   UNL     1       1.323  13.286  20.201  0.00  0.00    +0.000 A 
ATOM      4  S   UNL     1       0.145  13.314  21.440  0.00  0.00    +0.000 S 
ATOM      5  C   UNL     1       0.236  11.649  21.673  0.00  0.00    +0.000 A 
ATOM      6  N   UNL     1      -0.328  11.097  22.761  0.00  0.00    +0.000 NA
ATOM      7  C   UNL     1      -0.175   9.775  22.783  0.00  0.00    +0.000 A 
ATOM      8  N   UNL     1       0.393   9.006  21.840  0.00  0.00    +0.000 NA
ATOM      9  C   UNL     1       0.898   9.593  20.731  0.00  0.00    +0.000 A 
ATOM     10  N   UNL     1       1.418   8.803  19.702  0.00  0.00    +0.000 N 
ATOM     11  C   UNL     1       0.880  11.003  20.646  0.00  0.00    +0.000 A 
ATOM     12  H   UNL     1       0.722   8.785  18.958  0.00  0.00    +0.000 HD
ENDROOT
BRANCH   3  13
ATOM     13  C   UNL     1       1.942  14.509  19.664  0.00  0.00    +0.000 C 
ATOM     14  O   UNL     1       3.168  14.624  19.751  0.00  0.00    +0.000 OA
ATOM     15  N   UNL     1       1.202  15.599  19.118  0.00  0.00    +0.000 N 
BRANCH  15  16
ATOM     16  C   UNL     1       1.927  16.875  18.885  0.00  0.00    +0.000 C 
ATOM     17  C   UNL     1       1.509  17.562  17.581  0.00  0.00    +0.000 C 
ATOM     18  C   UNL     1       1.877  17.843  20.073  0.00  0.00    +0.000 C 
ENDBRANCH  15  16
BRANCH  15  19
ATOM     19  C   UNL     1      -0.235  15.649  18.748  0.00  0.00    +0.000 C 
BRANCH  19  20
ATOM     20  C   UNL     1      -1.184  16.282  19.777  0.00  0.00    +0.000 C 
BRANCH  20  21
ATOM     21  O   UNL     1      -2.221  17.032  19.150  0.00  0.00    +0.000 OA
ATOM     22  H   UNL     1      -2.149  17.946  19.477  0.00  0.00    +0.000 HD
ENDBRANCH  20  21
ENDBRANCH  19  20
ENDBRANCH  15  19
ENDBRANCH   3  13
BRANCH  10  23
ATOM     23  C   UNL     1       1.768   7.435  20.076  0.00  0.00    +0.000 C 
BRANCH  23  24
ATOM     24  C   UNL     1       2.659   6.806  19.041  0.00  0.00    +0.000 A 
ATOM     25  C   UNL     1       3.355   7.427  18.027  0.00  0.00    +0.000 A 
ATOM     26  C   UNL     1       4.070   6.506  17.190  0.00  0.00    +0.000 A 
ATOM     27  C   UNL     1       4.887   6.736  16.058  0.00  0.00    +0.000 A 
ATOM     28  C   UNL     1       5.491   5.664  15.393  0.00  0.00    +0.000 A 
ATOM     29  C   UNL     1       5.289   4.363  15.833  0.00  0.00    +0.000 A 
ATOM     30  C   UNL     1       4.481   4.106  16.943  0.00  0.00    +0.000 A 
ATOM     31  C   UNL     1       3.880   5.188  17.612  0.00  0.00    +0.000 A 
ATOM     32  S   UNL     1       2.854   5.112  18.991  0.00  0.00    +0.000 S 
ENDBRANCH  23  24
ENDBRANCH  10  23
TORSDOF 7
ENDMDL
MODEL 5
REMARK VINA RESULT:      -6.8      3.936      8.472
REMARK  Name = 
REMARK  10 active torsions:
REMARK  status: ('A' for Active; 'I' for Inactive)
REMARK    1  A    between atoms: C_1  and  C_2
REMARK    2  A    between atoms: C_3  and  C_4
REMARK    3  A    between atoms: N_6  and  C_7
REMARK    4  A    between atoms: N_6  and  C_10
REMARK    5  A    between atoms: C_7  and  C_8
REMARK    6  A    between atoms: C_8  and  O_9
REMARK    7  A    between atoms: C_10  and  C_11
REMARK    8  A    between atoms: C_10  and  C_12
REMARK    9  A    between atoms: N_19  and  C_20
REMARK   10  A    between atoms: C_20  and  C_21
REMARK                            x       y       z     vdW  Elec       q    Type
REMARK                         _______ _______ _______ _____ _____    ______ ____
ROOT
ATOM      1  C   UNL     1       2.562   8.748  17.570  0.00  0.00    +0.000 C 
ATOM      2  C   UNL     1       2.125   8.029  18.818  0.00  0.00    +0.000 A 
ATOM      3  C   UNL     1       2.119   6.637  19.034  0.00  0.00    +0.000 A 
ATOM      4  S   UNL     1       1.932   6.337  20.707  0.00  0.00    +0.000 S 
ATOM      5  C   UNL     1       1.314   7.876  20.996  0.00  0.00    +0.000 A 
ATOM      6  N   UNL     1       0.722   8.146  22.172  0.00  0.00    +0.000 NA
ATOM      7  C   UNL     1       0.303   9.408  22.238  0.00  0.00    +0.000 A 
ATOM      8  N   UNL     1       0.477  10.372  21.319  0.00  0.00    +0.000 NA
ATOM      9  C   UNL     1       1.129  10.076  20.173  0.00  0.00    +0.000 A 
ATOM     10  N   UNL     1       1.392  11.085  19.243  0.00  0.00    +0.000 N 
ATOM     11  C   UNL     1       1.532   8.741  19.951  0.00  0.00    +0.000 A 
ATOM     12  H   UNL     1       2.377  11.329  19.336  0.00  0.00    +0.000 HD
ENDROOT
BRANCH   3  13
ATOM     13  C   UNL     1       2.421   5.573  18.063  0.00  0.00    +0.000 C 
ATOM     14  O   UNL     1       1.474   4.949  17.577  0.00  0.00    +0.000 OA
ATOM     15  N   UNL     1       3.743   5.172  17.710  0.00  0.00    +0.000 N 
BRANCH  15  16
ATOM     16  C   UNL     1       3.898   3.905  16.949  0.00  0.00    +0.000 C 
ATOM     17  C   UNL     1       5.121   3.916  16.026  0.00  0.00    +0.000 C 
ATOM     18  C   UNL     1       3.866   2.648  17.825  0.00  0.00    +0.000 C 
ENDBRANCH  15  16
BRANCH  15  19
ATOM     19  C   UNL     1       5.028   5.852  18.011  0.00  0.00    +0.000 C 
BRANCH  19  20
ATOM     20  C   UNL     1       5.768   5.387  19.274  0.00  0.00    +0.000 C 
BRANCH  20  21
ATOM     21  O   UNL     1       7.007   4.755  18.960  0.00  0.00    +0.000 OA
ATOM     22  H   UNL     1       7.576   4.838  19.746  0.00  0.00    +0.000 HD
ENDBRANCH  20  21
ENDBRANCH  19  20
ENDBRANCH  15  19
ENDBRANCH   3  13
BRANCH  10  23
ATOM     23  C   UNL     1       0.577  12.290  19.375  0.00  0.00    +0.000 C 
BRANCH  23  24
ATOM     24  C   UNL     1      -0.834  12.038  18.922  0.00  0.00    +0.000 A 
ATOM     25  C   UNL     1      -1.264  11.558  17.704  0.00  0.00    +0.000 A 
ATOM     26  C   UNL     1      -2.694  11.490  17.600  0.00  0.00    +0.000 A 
ATOM     27  C   UNL     1      -3.518  11.065  16.531  0.00  0.00    +0.000 A 
ATOM     28  C   UNL     1      -4.910  11.086  16.662  0.00  0.00    +0.000 A 
ATOM     29  C   UNL     1      -5.497  11.531  17.838  0.00  0.00    +0.000 A 
ATOM     30  C   UNL     1      -4.709  11.964  18.906  0.00  0.00    +0.000 A 
ATOM     31  C   UNL     1      -3.307  11.935  18.773  0.00  0.00    +0.000 A 
ATOM     32  S   UNL     1      -2.145  12.416  19.947  0.00  0.00    +0.000 S 
ENDBRANCH  23  24
ENDBRANCH  10  23
TORSDOF 7
ENDMDL
MODEL 6
REMARK VINA RESULT:      -6.7      3.627      5.687
REMARK  Name = 
REMARK  10 active torsions:
REMARK  status: ('A' for Active; 'I' for Inactive)
REMARK    1  A    between atoms: C_1  and  C_2
REMARK    2  A    between atoms: C_3  and  C_4
REMARK    3  A    between atoms: N_6  and  C_7
REMARK    4  A    between atoms: N_6  and  C_10
REMARK    5  A    between atoms: C_7  and  C_8
REMARK    6  A    between atoms: C_8  and  O_9
REMARK    7  A    between atoms: C_10  and  C_11
REMARK    8  A    between atoms: C_10  and  C_12
REMARK    9  A    between atoms: N_19  and  C_20
REMARK   10  A    between atoms: C_20  and  C_21
REMARK                            x       y       z     vdW  Elec       q    Type
REMARK                         _______ _______ _______ _____ _____    ______ ____
ROOT
ATOM      1  C   UNL     1      -1.555   9.717  19.715  0.00  0.00    +0.000 C 
ATOM      2  C   UNL     1      -1.111  11.111  19.357  0.00  0.00    +0.000 A 
ATOM      3  C   UNL     1      -1.919  12.261  19.278  0.00  0.00    +0.000 A 
ATOM      4  S   UNL     1      -0.914  13.643  19.240  0.00  0.00    +0.000 S 
ATOM      5  C   UNL     1       0.431  12.751  18.759  0.00  0.00    +0.000 A 
ATOM      6  N   UNL     1       1.526  13.386  18.309  0.00  0.00    +0.000 NA
ATOM      7  C   UNL     1       2.496  12.534  17.986  0.00  0.00    +0.000 A 
ATOM      8  N   UNL     1       2.488  11.199  18.132  0.00  0.00    +0.000 NA
ATOM      9  C   UNL     1       1.389  10.601  18.644  0.00  0.00    +0.000 A 
ATOM     10  N   UNL     1       1.394   9.224  18.880  0.00  0.00    +0.000 N 
ATOM     11  C   UNL     1       0.259  11.398  18.930  0.00  0.00    +0.000 A 
ATOM     12  H   UNL     1       1.511   9.093  19.884  0.00  0.00    +0.000 HD
ENDROOT
BRANCH   3  13
ATOM     13  C   UNL     1      -3.383  12.345  19.408  0.00  0.00    +0.000 C 
ATOM     14  O   UNL     1      -3.845  13.113  20.257  0.00  0.00    +0.000 OA
ATOM     15  N   UNL     1      -4.294  11.539  18.664  0.00  0.00    +0.000 N 
BRANCH  15  16
ATOM     16  C   UNL     1      -5.714  11.522  19.102  0.00  0.00    +0.000 C 
ATOM     17  C   UNL     1      -6.562  12.587  18.398  0.00  0.00    +0.000 C 
ATOM     18  C   UNL     1      -6.370  10.139  19.024  0.00  0.00    +0.000 C 
ENDBRANCH  15  16
BRANCH  15  19
ATOM     19  C   UNL     1      -4.019  10.679  17.486  0.00  0.00    +0.000 C 
BRANCH  19  20
ATOM     20  C   UNL     1      -3.745  11.404  16.160  0.00  0.00    +0.000 C 
BRANCH  20  21
ATOM     21  O   UNL     1      -2.348  11.578  15.930  0.00  0.00    +0.000 OA
ATOM     22  H   UNL     1      -2.107  10.994  15.189  0.00  0.00    +0.000 HD
ENDBRANCH  20  21
ENDBRANCH  19  20
ENDBRANCH  15  19
ENDBRANCH   3  13
BRANCH  10  23
ATOM     23  C   UNL     1       2.419   8.467  18.167  0.00  0.00    +0.000 C 
BRANCH  23  24
ATOM     24  C   UNL     1       2.550   7.078  18.727  0.00  0.00    +0.000 A 
ATOM     25  C   UNL     1       2.032   6.583  19.904  0.00  0.00    +0.000 A 
ATOM     26  C   UNL     1       2.399   5.218  20.149  0.00  0.00    +0.000 A 
ATOM     27  C   UNL     1       2.082   4.359  21.228  0.00  0.00    +0.000 A 
ATOM     28  C   UNL     1       2.560   3.046  21.251  0.00  0.00    +0.000 A 
ATOM     29  C   UNL     1       3.358   2.573  20.218  0.00  0.00    +0.000 A 
ATOM     30  C   UNL     1       3.695   3.399  19.145  0.00  0.00    +0.000 A 
ATOM     31  C   UNL     1       3.206   4.720  19.123  0.00  0.00    +0.000 A 
ATOM     32  S   UNL     1       3.488   5.909  17.912  0.00  0.00    +0.000 S 
ENDBRANCH  23  24
ENDBRANCH  10  23
TORSDOF 7
ENDMDL
MODEL 7
REMARK VINA RESULT:      -6.6      3.111      5.273
REMARK  Name = 
REMARK  10 active torsions:
REMARK  status: ('A' for Active; 'I' for Inactive)
REMARK    1  A    between atoms: C_1  and  C_2
REMARK    2  A    between atoms: C_3  and  C_4
REMARK    3  A    between atoms: N_6  and  C_7
REMARK    4  A    between atoms: N_6  and  C_10
REMARK    5  A    between atoms: C_7  and  C_8
REMARK    6  A    between atoms: C_8  and  O_9
REMARK    7  A    between atoms: C_10  and  C_11
REMARK    8  A    between atoms: C_10  and  C_12
REMARK    9  A    between atoms: N_19  and  C_20
REMARK   10  A    between atoms: C_20  and  C_21
REMARK                            x       y       z     vdW  Elec       q    Type
REMARK                         _______ _______ _______ _____ _____    ______ ____
ROOT
ATOM      1  C   UNL     1      -0.514  11.379  22.145  0.00  0.00    +0.000 C 
ATOM      2  C   UNL     1      -0.021  12.739  21.729  0.00  0.00    +0.000 A 
ATOM      3  C   UNL     1      -0.406  13.980  22.274  0.00  0.00    +0.000 A 
ATOM      4  S   UNL     1       0.705  15.176  21.767  0.00  0.00    +0.000 S 
ATOM      5  C   UNL     1       1.252  14.237  20.481  0.00  0.00    +0.000 A 
ATOM      6  N   UNL     1       2.007  14.797  19.520  0.00  0.00    +0.000 NA
ATOM      7  C   UNL     1       2.363  13.913  18.590  0.00  0.00    +0.000 A 
ATOM      8  N   UNL     1       2.104  12.596  18.579  0.00  0.00    +0.000 NA
ATOM      9  C   UNL     1       1.389  12.058  19.593  0.00  0.00    +0.000 A 
ATOM     10  N   UNL     1       1.181  10.678  19.640  0.00  0.00    +0.000 N 
ATOM     11  C   UNL     1       0.874  12.920  20.586  0.00  0.00    +0.000 A 
ATOM     12  H   UNL     1       1.814  10.303  20.345  0.00  0.00    +0.000 HD
ENDROOT
BRANCH   3  13
ATOM     13  C   UNL     1      -1.451  14.239  23.278  0.00  0.00    +0.000 C 
ATOM     14  O   UNL     1      -1.095  14.463  24.438  0.00  0.00    +0.000 OA
ATOM     15  N   UNL     1      -2.848  14.172  23.004  0.00  0.00    +0.000 N 
BRANCH  15  16
ATOM     16  C   UNL     1      -3.778  14.168  24.164  0.00  0.00    +0.000 C 
ATOM     17  C   UNL     1      -5.050  14.981  23.904  0.00  0.00    +0.000 C 
ATOM     18  C   UNL     1      -4.103  12.767  24.694  0.00  0.00    +0.000 C 
ENDBRANCH  15  16
BRANCH  15  19
ATOM     19  C   UNL     1      -3.531  14.092  21.689  0.00  0.00    +0.000 C 
BRANCH  19  20
ATOM     20  C   UNL     1      -3.817  12.681  21.153  0.00  0.00    +0.000 C 
BRANCH  20  21
ATOM     21  O   UNL     1      -5.161  12.280  21.407  0.00  0.00    +0.000 OA
ATOM     22  H   UNL     1      -5.135  11.653  22.152  0.00  0.00    +0.000 HD
ENDBRANCH  20  21
ENDBRANCH  19  20
ENDBRANCH  15  19
ENDBRANCH   3  13
BRANCH  10  23
ATOM     23  C   UNL     1       1.379   9.968  18.379  0.00  0.00    +0.000 C 
BRANCH  23  24
ATOM     24  C   UNL     1       1.888   8.574  18.620  0.00  0.00    +0.000 A 
ATOM     25  C   UNL     1       2.477   7.716  17.718  0.00  0.00    +0.000 A 
ATOM     26  C   UNL     1       2.796   6.436  18.285  0.00  0.00    +0.000 A 
ATOM     27  C   UNL     1       3.395   5.295  17.701  0.00  0.00    +0.000 A 
ATOM     28  C   UNL     1       3.610   4.143  18.462  0.00  0.00    +0.000 A 
ATOM     29  C   UNL     1       3.232   4.104  19.798  0.00  0.00    +0.000 A 
ATOM     30  C   UNL     1       2.632   5.212  20.398  0.00  0.00    +0.000 A 
ATOM     31  C   UNL     1       2.422   6.373  19.629  0.00  0.00    +0.000 A 
ATOM     32  S   UNL     1       1.706   7.847  20.153  0.00  0.00    +0.000 S 
ENDBRANCH  23  24
ENDBRANCH  10  23
TORSDOF 7
ENDMDL
MODEL 8
REMARK VINA RESULT:      -6.6      0.771      1.010
REMARK  Name = 
REMARK  10 active torsions:
REMARK  status: ('A' for Active; 'I' for Inactive)
REMARK    1  A    between atoms: C_1  and  C_2
REMARK    2  A    between atoms: C_3  and  C_4
REMARK    3  A    between atoms: N_6  and  C_7
REMARK    4  A    between atoms: N_6  and  C_10
REMARK    5  A    between atoms: C_7  and  C_8
REMARK    6  A    between atoms: C_8  and  O_9
REMARK    7  A    between atoms: C_10  and  C_11
REMARK    8  A    between atoms: C_10  and  C_12
REMARK    9  A    between atoms: N_19  and  C_20
REMARK   10  A    between atoms: C_20  and  C_21
REMARK                            x       y       z     vdW  Elec       q    Type
REMARK                         _______ _______ _______ _____ _____    ______ ____
ROOT
ATOM      1  C   UNL     1       1.723  11.353  18.459  0.00  0.00    +0.000 C 
ATOM      2  C   UNL     1       1.095  11.781  19.759  0.00  0.00    +0.000 A 
ATOM      3  C   UNL     1       0.910  13.101  20.213  0.00  0.00    +0.000 A 
ATOM      4  S   UNL     1      -0.190  13.087  21.522  0.00  0.00    +0.000 S 
ATOM      5  C   UNL     1       0.057  11.448  21.816  0.00  0.00    +0.000 A 
ATOM      6  N   UNL     1      -0.391  10.901  22.959  0.00  0.00    +0.000 NA
ATOM      7  C   UNL     1      -0.124   9.599  23.024  0.00  0.00    +0.000 A 
ATOM      8  N   UNL     1       0.449   8.837  22.078  0.00  0.00    +0.000 NA
ATOM      9  C   UNL     1       0.833   9.413  20.917  0.00  0.00    +0.000 A 
ATOM     10  N   UNL     1       1.355   8.623  19.889  0.00  0.00    +0.000 N 
ATOM     11  C   UNL     1       0.690  10.811  20.777  0.00  0.00    +0.000 A 
ATOM     12  H   UNL     1       0.620   8.514  19.193  0.00  0.00    +0.000 HD
ENDROOT
BRANCH   3  13
ATOM     13  C   UNL     1       1.388  14.345  19.588  0.00  0.00    +0.000 C 
ATOM     14  O   UNL     1       0.681  14.864  18.719  0.00  0.00    +0.000 OA
ATOM     15  N   UNL     1       2.649  14.944  19.875  0.00  0.00    +0.000 N 
BRANCH  15  16
ATOM     16  C   UNL     1       3.121  16.023  18.969  0.00  0.00    +0.000 C 
ATOM     17  C   UNL     1       3.389  15.524  17.545  0.00  0.00    +0.000 C 
ATOM     18  C   UNL     1       2.228  17.269  18.970  0.00  0.00    +0.000 C 
ENDBRANCH  15  16
BRANCH  15  19
ATOM     19  C   UNL     1       3.595  14.628  20.975  0.00  0.00    +0.000 C 
BRANCH  19  20
ATOM     20  C   UNL     1       4.864  15.490  21.053  0.00  0.00    +0.000 C 
BRANCH  20  21
ATOM     21  O   UNL     1       5.985  14.837  20.461  0.00  0.00    +0.000 OA
ATOM     22  H   UNL     1       5.668  14.413  19.643  0.00  0.00    +0.000 HD
ENDBRANCH  20  21
ENDBRANCH  19  20
ENDBRANCH  15  19
ENDBRANCH   3  13
BRANCH  10  23
ATOM     23  C   UNL     1       1.843   7.307  20.294  0.00  0.00    +0.000 C 
BRANCH  23  24
ATOM     24  C   UNL     1       2.704   6.699  19.222  0.00  0.00    +0.000 A 
ATOM     25  C   UNL     1       3.377   7.340  18.205  0.00  0.00    +0.000 A 
ATOM     26  C   UNL     1       4.065   6.437  17.328  0.00  0.00    +0.000 A 
ATOM     27  C   UNL     1       4.854   6.690  16.182  0.00  0.00    +0.000 A 
ATOM     28  C   UNL     1       5.435   5.632  15.476  0.00  0.00    +0.000 A 
ATOM     29  C   UNL     1       5.236   4.321  15.889  0.00  0.00    +0.000 A 
ATOM     30  C   UNL     1       4.456   4.041  17.012  0.00  0.00    +0.000 A 
ATOM     31  C   UNL     1       3.878   5.110  17.723  0.00  0.00    +0.000 A 
ATOM     32  S   UNL     1       2.887   5.005  19.126  0.00  0.00    +0.000 S 
ENDBRANCH  23  24
ENDBRANCH  10  23
TORSDOF 7
ENDMDL
MODEL 9
REMARK VINA RESULT:      -6.6      3.039      5.038
REMARK  Name = 
REMARK  10 active torsions:
REMARK  status: ('A' for Active; 'I' for Inactive)
REMARK    1  A    between atoms: C_1  and  C_2
REMARK    2  A    between atoms: C_3  and  C_4
REMARK    3  A    between atoms: N_6  and  C_7
REMARK    4  A    between atoms: N_6  and  C_10
REMARK    5  A    between atoms: C_7  and  C_8
REMARK    6  A    between atoms: C_8  and  O_9
REMARK    7  A    between atoms: C_10  and  C_11
REMARK    8  A    between atoms: C_10  and  C_12
REMARK    9  A    between atoms: N_19  and  C_20
REMARK   10  A    between atoms: C_20  and  C_21
REMARK                            x       y       z     vdW  Elec       q    Type
REMARK                         _______ _______ _______ _____ _____    ______ ____
ROOT
ATOM      1  C   UNL     1       2.576   9.059  17.691  0.00  0.00    +0.000 C 
ATOM      2  C   UNL     1       1.923   8.519  18.936  0.00  0.00    +0.000 A 
ATOM      3  C   UNL     1       1.054   9.210  19.802  0.00  0.00    +0.000 A 
ATOM      4  S   UNL     1       0.269   8.081  20.818  0.00  0.00    +0.000 S 
ATOM      5  C   UNL     1       1.432   6.897  20.532  0.00  0.00    +0.000 A 
ATOM      6  N   UNL     1       1.471   5.800  21.308  0.00  0.00    +0.000 NA
ATOM      7  C   UNL     1       2.439   4.965  20.938  0.00  0.00    +0.000 A 
ATOM      8  N   UNL     1       3.266   5.091  19.888  0.00  0.00    +0.000 NA
ATOM      9  C   UNL     1       3.157   6.180  19.095  0.00  0.00    +0.000 A 
ATOM     10  N   UNL     1       3.952   6.289  17.951  0.00  0.00    +0.000 N 
ATOM     11  C   UNL     1       2.229   7.184  19.451  0.00  0.00    +0.000 A 
ATOM     12  H   UNL     1       3.358   6.074  17.152  0.00  0.00    +0.000 HD
ENDROOT
BRANCH   3  13
ATOM     13  C   UNL     1       0.682  10.634  19.759  0.00  0.00    +0.000 C 
ATOM     14  O   UNL     1       1.507  11.459  20.162  0.00  0.00    +0.000 OA
ATOM     15  N   UNL     1      -0.599  11.108  19.351  0.00  0.00    +0.000 N 
BRANCH  15  16
ATOM     16  C   UNL     1      -0.928  12.530  19.633  0.00  0.00    +0.000 C 
ATOM     17  C   UNL     1      -0.466  13.475  18.519  0.00  0.00    +0.000 C 
ATOM     18  C   UNL     1      -2.398  12.765  19.997  0.00  0.00    +0.000 C 
ENDBRANCH  15  16
BRANCH  15  19
ATOM     19  C   UNL     1      -1.690  10.362  18.675  0.00  0.00    +0.000 C 
BRANCH  19  20
ATOM     20  C   UNL     1      -1.576  10.221  17.149  0.00  0.00    +0.000 C 
BRANCH  20  21
ATOM     21  O   UNL     1      -2.074  11.372  16.472  0.00  0.00    +0.000 OA
ATOM     22  H   UNL     1      -1.855  12.144  17.024  0.00  0.00    +0.000 HD
ENDBRANCH  20  21
ENDBRANCH  19  20
ENDBRANCH  15  19
ENDBRANCH   3  13
BRANCH  10  23
ATOM     23  C   UNL     1       5.135   5.433  17.924  0.00  0.00    +0.000 C 
BRANCH  23  24
ATOM     24  C   UNL     1       5.537   5.115  16.511  0.00  0.00    +0.000 A 
ATOM     25  C   UNL     1       4.878   4.323  15.596  0.00  0.00    +0.000 A 
ATOM     26  C   UNL     1       5.579   4.200  14.351  0.00  0.00    +0.000 A 
ATOM     27  C   UNL     1       5.248   3.485  13.176  0.00  0.00    +0.000 A 
ATOM     28  C   UNL     1       6.099   3.513  12.067  0.00  0.00    +0.000 A 
ATOM     29  C   UNL     1       7.283   4.238  12.111  0.00  0.00    +0.000 A 
ATOM     30  C   UNL     1       7.639   4.946  13.260  0.00  0.00    +0.000 A 
ATOM     31  C   UNL     1       6.776   4.919  14.372  0.00  0.00    +0.000 A 
ATOM     32  S   UNL     1       7.007   5.711  15.882  0.00  0.00    +0.000 S 
ENDBRANCH  23  24
ENDBRANCH  10  23
TORSDOF 7
ENDMDL
