MODEL 1
REMARK VINA RESULT:      -7.7      0.000      0.000
REMARK  Name = 
REMARK  8 active torsions:
REMARK  status: ('A' for Active; 'I' for Inactive)
REMARK    1  A    between atoms: C_1  and  C_2
REMARK    2  A    between atoms: C_5  and  C_6
REMARK    3  A    between atoms: C_6  and  C_8
REMARK    4  A    between atoms: C_8  and  S_9
REMARK    5  A    between atoms: S_9  and  C_10
REMARK    6  A    between atoms: C_12  and  O_13
REMARK    7  A    between atoms: C_15  and  O_16
REMARK    8  A    between atoms: C_19  and  C_20
REMARK                            x       y       z     vdW  Elec       q    Type
REMARK                         _______ _______ _______ _____ _____    ______ ____
ROOT
ATOM      1  C   UNL     1       4.639   4.351  16.054  0.00  0.00    +0.000 C 
ENDROOT
BRANCH   1   2
ATOM      2  C   UNL     1       4.017   3.900  17.365  0.00  0.00    +0.000 C 
ATOM      3  O   UNL     1       4.008   2.728  17.744  0.00  0.00    +0.000 OA
BRANCH   2   8
ATOM      4  C   UNL     1       1.484   7.966  20.661  0.00  0.00    +0.000 C 
ATOM      5  C   UNL     1       2.163   6.923  19.813  0.00  0.00    +0.000 A 
ATOM      6  C   UNL     1       2.358   5.628  20.324  0.00  0.00    +0.000 A 
ATOM      7  C   UNL     1       2.973   4.630  19.557  0.00  0.00    +0.000 A 
ATOM      8  C   UNL     1       3.397   4.920  18.259  0.00  0.00    +0.000 A 
ATOM      9  C   UNL     1       3.204   6.209  17.741  0.00  0.00    +0.000 A 
ATOM     10  C   UNL     1       2.600   7.219  18.508  0.00  0.00    +0.000 A 
ATOM     11  C   UNL     1       2.432   8.591  17.913  0.00  0.00    +0.000 C 
ENDBRANCH   2   8
ENDBRANCH   1   2
BRANCH   1  12
ATOM     12  S   UNL     1       6.410   3.908  15.959  0.00  0.00    +0.000 S 
BRANCH  12  13
ATOM     13  C   UNL     1       7.086   5.110  17.084  0.00  0.00    +0.000 A 
ATOM     14  N   UNL     1       7.239   6.363  16.625  0.00  0.00    +0.000 NA
ATOM     15  C   UNL     1       7.719   7.231  17.516  0.00  0.00    +0.000 A 
ATOM     16  C   UNL     1       8.054   6.950  18.810  0.00  0.00    +0.000 A 
ATOM     17  C   UNL     1       7.841   5.644  19.164  0.00  0.00    +0.000 A 
ATOM     18  N   UNL     1       7.351   4.711  18.337  0.00  0.00    +0.000 NA
BRANCH  15  19
ATOM     19  O   UNL     1       7.861   8.491  17.035  0.00  0.00    +0.000 OA
ATOM     20  H   UNL     1       8.674   8.771  17.492  0.00  0.00    +0.000 HD
ENDBRANCH  15  19
BRANCH  17  21
ATOM     21  O   UNL     1       8.121   5.208  20.427  0.00  0.00    +0.000 OA
ATOM     22  H   UNL     1       9.068   5.317  20.593  0.00  0.00    +0.000 HD
ENDBRANCH  17  21
ENDBRANCH  12  13
ENDBRANCH   1  12
TORSDOF 6
ENDMDL
MODEL 2
REMARK VINA RESULT:      -7.5      0.492      1.566
REMARK  Name = 
REMARK  8 active torsions:
REMARK  status: ('A' for Active; 'I' for Inactive)
REMARK    1  A    between atoms: C_1  and  C_2
REMARK    2  A    between atoms: C_5  and  C_6
REMARK    3  A    between atoms: C_6  and  C_8
REMARK    4  A    between atoms: C_8  and  S_9
REMARK    5  A    between atoms: S_9  and  C_10
REMARK    6  A    between atoms: C_12  and  O_13
REMARK    7  A    between atoms: C_15  and  O_16
REMARK    8  A    between atoms: C_19  and  C_20
REMARK                            x       y       z     vdW  Elec       q    Type
REMARK                         _______ _______ _______ _____ _____    ______ ____
ROOT
ATOM      1  C   UNL     1       4.981   4.471  15.687  0.00  0.00    +0.000 C 
ENDROOT
BRANCH   1   2
ATOM      2  C   UNL     1       4.208   4.018  16.913  0.00  0.00    +0.000 C 
ATOM      3  O   UNL     1       4.096   2.838  17.248  0.00  0.00    +0.000 OA
BRANCH   2   8
ATOM      4  C   UNL     1       1.752   7.896  20.483  0.00  0.00    +0.000 C 
ATOM      5  C   UNL     1       2.365   6.886  19.549  0.00  0.00    +0.000 A 
ATOM      6  C   UNL     1       2.998   7.321  18.371  0.00  0.00    +0.000 A 
ATOM      7  C   UNL     1       3.590   6.409  17.487  0.00  0.00    +0.000 A 
ATOM      8  C   UNL     1       3.560   5.045  17.779  0.00  0.00    +0.000 A 
ATOM      9  C   UNL     1       2.933   4.604  18.954  0.00  0.00    +0.000 A 
ATOM     10  C   UNL     1       2.325   5.510  19.839  0.00  0.00    +0.000 A 
ATOM     11  C   UNL     1       1.649   4.985  21.077  0.00  0.00    +0.000 C 
ENDBRANCH   2   8
ENDBRANCH   1   2
BRANCH   1  12
ATOM     12  S   UNL     1       6.753   4.037  15.807  0.00  0.00    +0.000 S 
BRANCH  12  13
ATOM     13  C   UNL     1       7.275   5.227  17.023  0.00  0.00    +0.000 A 
ATOM     14  N   UNL     1       7.385   6.504  16.626  0.00  0.00    +0.000 NA
ATOM     15  C   UNL     1       7.749   7.359  17.583  0.00  0.00    +0.000 A 
ATOM     16  C   UNL     1       8.010   7.042  18.885  0.00  0.00    +0.000 A 
ATOM     17  C   UNL     1       7.850   5.713  19.171  0.00  0.00    +0.000 A 
ATOM     18  N   UNL     1       7.476   4.789  18.275  0.00  0.00    +0.000 NA
BRANCH  15  19
ATOM     19  O   UNL     1       7.849   8.645  17.163  0.00  0.00    +0.000 OA
ATOM     20  H   UNL     1       8.753   8.862  17.450  0.00  0.00    +0.000 HD
ENDBRANCH  15  19
BRANCH  17  21
ATOM     21  O   UNL     1       8.067   5.239  20.434  0.00  0.00    +0.000 OA
ATOM     22  H   UNL     1       7.821   5.923  21.072  0.00  0.00    +0.000 HD
ENDBRANCH  17  21
ENDBRANCH  12  13
ENDBRANCH   1  12
TORSDOF 6
ENDMDL
MODEL 3
REMARK VINA RESULT:      -7.5      0.336      1.843
REMARK  Name = 
REMARK  8 active torsions:
REMARK  status: ('A' for Active; 'I' for Inactive)
REMARK    1  A    between atoms: C_1  and  C_2
REMARK    2  A    between atoms: C_5  and  C_6
REMARK    3  A    between atoms: C_6  and  C_8
REMARK    4  A    between atoms: C_8  and  S_9
REMARK    5  A    between atoms: S_9  and  C_10
REMARK    6  A    between atoms: C_12  and  O_13
REMARK    7  A    between atoms: C_15  and  O_16
REMARK    8  A    between atoms: C_19  and  C_20
REMARK                            x       y       z     vdW  Elec       q    Type
REMARK                         _______ _______ _______ _____ _____    ______ ____
ROOT
ATOM      1  C   UNL     1       4.365   4.257  16.372  0.00  0.00    +0.000 C 
ENDROOT
BRANCH   1   2
ATOM      2  C   UNL     1       3.949   3.955  17.801  0.00  0.00    +0.000 C 
ATOM      3  O   UNL     1       4.141   2.868  18.349  0.00  0.00    +0.000 OA
BRANCH   2   8
ATOM      4  C   UNL     1       1.270   8.206  20.728  0.00  0.00    +0.000 C 
ATOM      5  C   UNL     1       1.986   7.115  19.976  0.00  0.00    +0.000 A 
ATOM      6  C   UNL     1       2.137   5.846  20.564  0.00  0.00    +0.000 A 
ATOM      7  C   UNL     1       2.786   4.805  19.887  0.00  0.00    +0.000 A 
ATOM      8  C   UNL     1       3.288   5.024  18.604  0.00  0.00    +0.000 A 
ATOM      9  C   UNL     1       3.140   6.286  18.009  0.00  0.00    +0.000 A 
ATOM     10  C   UNL     1       2.503   7.339  18.687  0.00  0.00    +0.000 A 
ATOM     11  C   UNL     1       2.385   8.680  18.013  0.00  0.00    +0.000 C 
ENDBRANCH   2   8
ENDBRANCH   1   2
BRANCH   1  12
ATOM     12  S   UNL     1       6.133   3.891  16.091  0.00  0.00    +0.000 S 
BRANCH  12  13
ATOM     13  C   UNL     1       6.870   5.107  17.161  0.00  0.00    +0.000 A 
ATOM     14  N   UNL     1       7.389   4.673  18.320  0.00  0.00    +0.000 NA
ATOM     15  C   UNL     1       7.956   5.618  19.070  0.00  0.00    +0.000 A 
ATOM     16  C   UNL     1       8.044   6.944  18.758  0.00  0.00    +0.000 A 
ATOM     17  C   UNL     1       7.493   7.263  17.545  0.00  0.00    +0.000 A 
ATOM     18  N   UNL     1       6.915   6.375  16.725  0.00  0.00    +0.000 NA
BRANCH  15  19
ATOM     19  O   UNL     1       8.479   5.157  20.234  0.00  0.00    +0.000 OA
ATOM     20  H   UNL     1       7.669   4.891  20.705  0.00  0.00    +0.000 HD
ENDBRANCH  15  19
BRANCH  17  21
ATOM     21  O   UNL     1       7.507   8.550  17.088  0.00  0.00    +0.000 OA
ATOM     22  H   UNL     1       7.626   8.540  16.127  0.00  0.00    +0.000 HD
ENDBRANCH  17  21
ENDBRANCH  12  13
ENDBRANCH   1  12
TORSDOF 6
ENDMDL
MODEL 4
REMARK VINA RESULT:      -7.5      0.558      2.397
REMARK  Name = 
REMARK  8 active torsions:
REMARK  status: ('A' for Active; 'I' for Inactive)
REMARK    1  A    between atoms: C_1  and  C_2
REMARK    2  A    between atoms: C_5  and  C_6
REMARK    3  A    between atoms: C_6  and  C_8
REMARK    4  A    between atoms: C_8  and  S_9
REMARK    5  A    between atoms: S_9  and  C_10
REMARK    6  A    between atoms: C_12  and  O_13
REMARK    7  A    between atoms: C_15  and  O_16
REMARK    8  A    between atoms: C_19  and  C_20
REMARK                            x       y       z     vdW  Elec       q    Type
REMARK                         _______ _______ _______ _____ _____    ______ ____
ROOT
ATOM      1  C   UNL     1       4.920   4.519  15.569  0.00  0.00    +0.000 C 
ENDROOT
BRANCH   1   2
ATOM      2  C   UNL     1       4.262   4.082  16.866  0.00  0.00    +0.000 C 
ATOM      3  O   UNL     1       4.272   2.919  17.274  0.00  0.00    +0.000 OA
BRANCH   2   8
ATOM      4  C   UNL     1       1.658   7.934  20.358  0.00  0.00    +0.000 C 
ATOM      5  C   UNL     1       2.310   6.932  19.443  0.00  0.00    +0.000 A 
ATOM      6  C   UNL     1       3.020   7.377  18.314  0.00  0.00    +0.000 A 
ATOM      7  C   UNL     1       3.650   6.472  17.450  0.00  0.00    +0.000 A 
ATOM      8  C   UNL     1       3.579   5.104  17.712  0.00  0.00    +0.000 A 
ATOM      9  C   UNL     1       2.875   4.651  18.837  0.00  0.00    +0.000 A 
ATOM     10  C   UNL     1       2.229   5.551  19.702  0.00  0.00    +0.000 A 
ATOM     11  C   UNL     1       1.470   5.015  20.885  0.00  0.00    +0.000 C 
ENDBRANCH   2   8
ENDBRANCH   1   2
BRANCH   1  12
ATOM     12  S   UNL     1       6.715   4.176  15.572  0.00  0.00    +0.000 S 
BRANCH  12  13
ATOM     13  C   UNL     1       7.238   5.299  16.850  0.00  0.00    +0.000 A 
ATOM     14  N   UNL     1       7.600   4.765  18.027  0.00  0.00    +0.000 NA
ATOM     15  C   UNL     1       8.012   5.647  18.939  0.00  0.00    +0.000 A 
ATOM     16  C   UNL     1       8.090   6.999  18.769  0.00  0.00    +0.000 A 
ATOM     17  C   UNL     1       7.708   7.422  17.524  0.00  0.00    +0.000 A 
ATOM     18  N   UNL     1       7.293   6.605  16.547  0.00  0.00    +0.000 NA
BRANCH  15  19
ATOM     19  O   UNL     1       8.379   5.087  20.119  0.00  0.00    +0.000 OA
ATOM     20  H   UNL     1       8.355   5.864  20.705  0.00  0.00    +0.000 HD
ENDBRANCH  15  19
BRANCH  17  21
ATOM     21  O   UNL     1       7.736   8.748  17.197  0.00  0.00    +0.000 OA
ATOM     22  H   UNL     1       7.240   9.245  17.862  0.00  0.00    +0.000 HD
ENDBRANCH  17  21
ENDBRANCH  12  13
ENDBRANCH   1  12
TORSDOF 6
ENDMDL
MODEL 5
REMARK VINA RESULT:      -7.2      2.902      4.410
REMARK  Name = 
REMARK  8 active torsions:
REMARK  status: ('A' for Active; 'I' for Inactive)
REMARK    1  A    between atoms: C_1  and  C_2
REMARK    2  A    between atoms: C_5  and  C_6
REMARK    3  A    between atoms: C_6  and  C_8
REMARK    4  A    between atoms: C_8  and  S_9
REMARK    5  A    between atoms: S_9  and  C_10
REMARK    6  A    between atoms: C_12  and  O_13
REMARK    7  A    between atoms: C_15  and  O_16
REMARK    8  A    between atoms: C_19  and  C_20
REMARK                            x       y       z     vdW  Elec       q    Type
REMARK                         _______ _______ _______ _____ _____    ______ ____
ROOT
ATOM      1  C   UNL     1       6.672   4.583  17.468  0.00  0.00    +0.000 C 
ENDROOT
BRANCH   1   2
ATOM      2  C   UNL     1       6.259   4.843  18.906  0.00  0.00    +0.000 C 
ATOM      3  O   UNL     1       6.972   5.431  19.722  0.00  0.00    +0.000 OA
BRANCH   2   8
ATOM      4  C   UNL     1       0.927   3.242  20.585  0.00  0.00    +0.000 C 
ATOM      5  C   UNL     1       2.314   3.661  20.175  0.00  0.00    +0.000 A 
ATOM      6  C   UNL     1       3.272   2.682  19.857  0.00  0.00    +0.000 A 
ATOM      7  C   UNL     1       4.568   3.037  19.459  0.00  0.00    +0.000 A 
ATOM      8  C   UNL     1       4.917   4.385  19.368  0.00  0.00    +0.000 A 
ATOM      9  C   UNL     1       3.967   5.367  19.680  0.00  0.00    +0.000 A 
ATOM     10  C   UNL     1       2.669   5.020  20.094  0.00  0.00    +0.000 A 
ATOM     11  C   UNL     1       1.691   6.111  20.436  0.00  0.00    +0.000 C 
ENDBRANCH   2   8
ENDBRANCH   1   2
BRANCH   1  12
ATOM     12  S   UNL     1       5.303   4.912  16.302  0.00  0.00    +0.000 S 
BRANCH  12  13
ATOM     13  C   UNL     1       6.160   4.692  14.757  0.00  0.00    +0.000 A 
ATOM     14  N   UNL     1       5.630   3.825  13.879  0.00  0.00    +0.000 NA
ATOM     15  C   UNL     1       6.293   3.721  12.727  0.00  0.00    +0.000 A 
ATOM     16  C   UNL     1       7.425   4.403  12.388  0.00  0.00    +0.000 A 
ATOM     17  C   UNL     1       7.860   5.266  13.357  0.00  0.00    +0.000 A 
ATOM     18  N   UNL     1       7.250   5.442  14.537  0.00  0.00    +0.000 NA
BRANCH  15  19
ATOM     19  O   UNL     1       5.738   2.845  11.851  0.00  0.00    +0.000 OA
ATOM     20  H   UNL     1       6.012   3.237  11.003  0.00  0.00    +0.000 HD
ENDBRANCH  15  19
BRANCH  17  21
ATOM     21  O   UNL     1       8.979   6.026  13.166  0.00  0.00    +0.000 OA
ATOM     22  H   UNL     1       9.761   5.469  13.286  0.00  0.00    +0.000 HD
ENDBRANCH  17  21
ENDBRANCH  12  13
ENDBRANCH   1  12
TORSDOF 6
ENDMDL
MODEL 6
REMARK VINA RESULT:      -7.2      1.841      3.001
REMARK  Name = 
REMARK  8 active torsions:
REMARK  status: ('A' for Active; 'I' for Inactive)
REMARK    1  A    between atoms: C_1  and  C_2
REMARK    2  A    between atoms: C_5  and  C_6
REMARK    3  A    between atoms: C_6  and  C_8
REMARK    4  A    between atoms: C_8  and  S_9
REMARK    5  A    between atoms: S_9  and  C_10
REMARK    6  A    between atoms: C_12  and  O_13
REMARK    7  A    between atoms: C_15  and  O_16
REMARK    8  A    between atoms: C_19  and  C_20
REMARK                            x       y       z     vdW  Elec       q    Type
REMARK                         _______ _______ _______ _____ _____    ______ ____
ROOT
ATOM      1  C   UNL     1       3.098   5.714  18.048  0.00  0.00    +0.000 C 
ENDROOT
BRANCH   1   2
ATOM      2  C   UNL     1       2.593   6.123  19.421  0.00  0.00    +0.000 C 
ATOM      3  O   UNL     1       2.678   5.403  20.417  0.00  0.00    +0.000 OA
BRANCH   2   8
ATOM      4  C   UNL     1       0.284  11.384  20.317  0.00  0.00    +0.000 C 
ATOM      5  C   UNL     1       0.859  10.012  20.083  0.00  0.00    +0.000 A 
ATOM      6  C   UNL     1       1.364   9.675  18.815  0.00  0.00    +0.000 A 
ATOM      7  C   UNL     1       1.917   8.412  18.566  0.00  0.00    +0.000 A 
ATOM      8  C   UNL     1       1.977   7.470  19.594  0.00  0.00    +0.000 A 
ATOM      9  C   UNL     1       1.478   7.799  20.862  0.00  0.00    +0.000 A 
ATOM     10  C   UNL     1       0.909   9.058  21.117  0.00  0.00    +0.000 A 
ATOM     11  C   UNL     1       0.370   9.356  22.490  0.00  0.00    +0.000 C 
ENDBRANCH   2   8
ENDBRANCH   1   2
BRANCH   1  12
ATOM     12  S   UNL     1       4.251   4.299  18.145  0.00  0.00    +0.000 S 
BRANCH  12  13
ATOM     13  C   UNL     1       5.781   5.170  18.407  0.00  0.00    +0.000 A 
ATOM     14  N   UNL     1       6.158   6.047  17.463  0.00  0.00    +0.000 NA
ATOM     15  C   UNL     1       7.295   6.695  17.722  0.00  0.00    +0.000 A 
ATOM     16  C   UNL     1       8.072   6.537  18.833  0.00  0.00    +0.000 A 
ATOM     17  C   UNL     1       7.577   5.627  19.728  0.00  0.00    +0.000 A 
ATOM     18  N   UNL     1       6.439   4.942  19.553  0.00  0.00    +0.000 NA
BRANCH  15  19
ATOM     19  O   UNL     1       7.655   7.580  16.759  0.00  0.00    +0.000 OA
ATOM     20  H   UNL     1       7.928   6.975  16.047  0.00  0.00    +0.000 HD
ENDBRANCH  15  19
BRANCH  17  21
ATOM     21  O   UNL     1       8.238   5.363  20.894  0.00  0.00    +0.000 OA
ATOM     22  H   UNL     1       9.035   5.910  20.933  0.00  0.00    +0.000 HD
ENDBRANCH  17  21
ENDBRANCH  12  13
ENDBRANCH   1  12
TORSDOF 6
ENDMDL
MODEL 7
REMARK VINA RESULT:      -7.2      1.729      3.171
REMARK  Name = 
REMARK  8 active torsions:
REMARK  status: ('A' for Active; 'I' for Inactive)
REMARK    1  A    between atoms: C_1  and  C_2
REMARK    2  A    between atoms: C_5  and  C_6
REMARK    3  A    between atoms: C_6  and  C_8
REMARK    4  A    between atoms: C_8  and  S_9
REMARK    5  A    between atoms: S_9  and  C_10
REMARK    6  A    between atoms: C_12  and  O_13
REMARK    7  A    between atoms: C_15  and  O_16
REMARK    8  A    between atoms: C_19  and  C_20
REMARK                            x       y       z     vdW  Elec       q    Type
REMARK                         _______ _______ _______ _____ _____    ______ ____
ROOT
ATOM      1  C   UNL     1       2.888   4.506  18.122  0.00  0.00    +0.000 C 
ENDROOT
BRANCH   1   2
ATOM      2  C   UNL     1       2.741   5.395  19.344  0.00  0.00    +0.000 C 
ATOM      3  O   UNL     1       2.985   5.018  20.492  0.00  0.00    +0.000 OA
BRANCH   2   8
ATOM      4  C   UNL     1       1.088  10.949  18.858  0.00  0.00    +0.000 C 
ATOM      5  C   UNL     1       1.492   9.504  18.982  0.00  0.00    +0.000 A 
ATOM      6  C   UNL     1       2.044   8.837  17.874  0.00  0.00    +0.000 A 
ATOM      7  C   UNL     1       2.443   7.497  17.958  0.00  0.00    +0.000 A 
ATOM      8  C   UNL     1       2.297   6.808  19.162  0.00  0.00    +0.000 A 
ATOM      9  C   UNL     1       1.750   7.466  20.273  0.00  0.00    +0.000 A 
ATOM     10  C   UNL     1       1.335   8.806  20.193  0.00  0.00    +0.000 A 
ATOM     11  C   UNL     1       0.737   9.462  21.409  0.00  0.00    +0.000 C 
ENDBRANCH   2   8
ENDBRANCH   1   2
BRANCH   1  12
ATOM     12  S   UNL     1       4.251   3.305  18.320  0.00  0.00    +0.000 S 
BRANCH  12  13
ATOM     13  C   UNL     1       5.638   4.421  18.349  0.00  0.00    +0.000 A 
ATOM     14  N   UNL     1       6.267   4.589  19.523  0.00  0.00    +0.000 NA
ATOM     15  C   UNL     1       7.317   5.410  19.483  0.00  0.00    +0.000 A 
ATOM     16  C   UNL     1       7.780   6.067  18.380  0.00  0.00    +0.000 A 
ATOM     17  C   UNL     1       7.066   5.805  17.242  0.00  0.00    +0.000 A 
ATOM     18  N   UNL     1       6.007   4.985  17.189  0.00  0.00    +0.000 NA
BRANCH  15  19
ATOM     19  O   UNL     1       7.942   5.561  20.678  0.00  0.00    +0.000 OA
ATOM     20  H   UNL     1       7.423   4.953  21.234  0.00  0.00    +0.000 HD
ENDBRANCH  15  19
BRANCH  17  21
ATOM     21  O   UNL     1       7.410   6.383  16.052  0.00  0.00    +0.000 OA
ATOM     22  H   UNL     1       6.700   6.980  15.777  0.00  0.00    +0.000 HD
ENDBRANCH  17  21
ENDBRANCH  12  13
ENDBRANCH   1  12
TORSDOF 6
ENDMDL
MODEL 8
REMARK VINA RESULT:      -7.2      1.721      2.564
REMARK  Name = 
REMARK  8 active torsions:
REMARK  status: ('A' for Active; 'I' for Inactive)
REMARK    1  A    between atoms: C_1  and  C_2
REMARK    2  A    between atoms: C_5  and  C_6
REMARK    3  A    between atoms: C_6  and  C_8
REMARK    4  A    between atoms: C_8  and  S_9
REMARK    5  A    between atoms: S_9  and  C_10
REMARK    6  A    between atoms: C_12  and  O_13
REMARK    7  A    between atoms: C_15  and  O_16
REMARK    8  A    between atoms: C_19  and  C_20
REMARK                            x       y       z     vdW  Elec       q    Type
REMARK                         _______ _______ _______ _____ _____    ______ ____
ROOT
ATOM      1  C   UNL     1       4.452   4.978  16.043  0.00  0.00    +0.000 C 
ENDROOT
BRANCH   1   2
ATOM      2  C   UNL     1       3.917   5.776  17.219  0.00  0.00    +0.000 C 
ATOM      3  O   UNL     1       3.982   7.005  17.292  0.00  0.00    +0.000 OA
BRANCH   2   8
ATOM      4  C   UNL     1       1.359   2.752  21.477  0.00  0.00    +0.000 C 
ATOM      5  C   UNL     1       2.001   3.550  20.372  0.00  0.00    +0.000 A 
ATOM      6  C   UNL     1       2.933   4.553  20.688  0.00  0.00    +0.000 A 
ATOM      7  C   UNL     1       3.559   5.305  19.684  0.00  0.00    +0.000 A 
ATOM      8  C   UNL     1       3.259   5.052  18.345  0.00  0.00    +0.000 A 
ATOM      9  C   UNL     1       2.332   4.051  18.021  0.00  0.00    +0.000 A 
ATOM     10  C   UNL     1       1.690   3.302  19.022  0.00  0.00    +0.000 A 
ATOM     11  C   UNL     1       0.689   2.251  18.624  0.00  0.00    +0.000 C 
ENDBRANCH   2   8
ENDBRANCH   1   2
BRANCH   1  12
ATOM     12  S   UNL     1       5.884   3.948  16.520  0.00  0.00    +0.000 S 
BRANCH  12  13
ATOM     13  C   UNL     1       6.814   5.137  17.463  0.00  0.00    +0.000 A 
ATOM     14  N   UNL     1       7.062   6.323  16.885  0.00  0.00    +0.000 NA
ATOM     15  C   UNL     1       7.734   7.188  17.645  0.00  0.00    +0.000 A 
ATOM     16  C   UNL     1       8.172   6.965  18.919  0.00  0.00    +0.000 A 
ATOM     17  C   UNL     1       7.847   5.727  19.404  0.00  0.00    +0.000 A 
ATOM     18  N   UNL     1       7.165   4.803  18.714  0.00  0.00    +0.000 NA
BRANCH  15  19
ATOM     19  O   UNL     1       7.969   8.382  17.044  0.00  0.00    +0.000 OA
ATOM     20  H   UNL     1       7.376   8.319  16.275  0.00  0.00    +0.000 HD
ENDBRANCH  15  19
BRANCH  17  21
ATOM     21  O   UNL     1       8.210   5.355  20.668  0.00  0.00    +0.000 OA
ATOM     22  H   UNL     1       7.776   4.518  20.885  0.00  0.00    +0.000 HD
ENDBRANCH  17  21
ENDBRANCH  12  13
ENDBRANCH   1  12
TORSDOF 6
ENDMDL
MODEL 9
REMARK VINA RESULT:      -7.1      1.880      3.087
REMARK  Name = 
REMARK  8 active torsions:
REMARK  status: ('A' for Active; 'I' for Inactive)
REMARK    1  A    between atoms: C_1  and  C_2
REMARK    2  A    between atoms: C_5  and  C_6
REMARK    3  A    between atoms: C_6  and  C_8
REMARK    4  A    between atoms: C_8  and  S_9
REMARK    5  A    between atoms: S_9  and  C_10
REMARK    6  A    between atoms: C_12  and  O_13
REMARK    7  A    between atoms: C_15  and  O_16
REMARK    8  A    between atoms: C_19  and  C_20
REMARK                            x       y       z     vdW  Elec       q    Type
REMARK                         _______ _______ _______ _____ _____    ______ ____
ROOT
ATOM      1  C   UNL     1       5.293   3.893  16.189  0.00  0.00    +0.000 C 
ENDROOT
BRANCH   1   2
ATOM      2  C   UNL     1       4.425   4.928  16.882  0.00  0.00    +0.000 C 
ATOM      3  O   UNL     1       4.322   6.095  16.498  0.00  0.00    +0.000 OA
BRANCH   2   8
ATOM      4  C   UNL     1       1.320   3.130  21.458  0.00  0.00    +0.000 C 
ATOM      5  C   UNL     1       2.106   3.612  20.267  0.00  0.00    +0.000 A 
ATOM      6  C   UNL     1       3.166   4.516  20.452  0.00  0.00    +0.000 A 
ATOM      7  C   UNL     1       3.926   4.975  19.368  0.00  0.00    +0.000 A 
ATOM      8  C   UNL     1       3.633   4.524  18.080  0.00  0.00    +0.000 A 
ATOM      9  C   UNL     1       2.578   3.620  17.888  0.00  0.00    +0.000 A 
ATOM     10  C   UNL     1       1.803   3.166  18.968  0.00  0.00    +0.000 A 
ATOM     11  C   UNL     1       0.669   2.211  18.707  0.00  0.00    +0.000 C 
ENDBRANCH   2   8
ENDBRANCH   1   2
BRANCH   1  12
ATOM     12  S   UNL     1       6.805   4.641  15.485  0.00  0.00    +0.000 S 
BRANCH  12  13
ATOM     13  C   UNL     1       7.320   5.642  16.863  0.00  0.00    +0.000 A 
ATOM     14  N   UNL     1       7.612   5.008  18.009  0.00  0.00    +0.000 NA
ATOM     15  C   UNL     1       8.022   5.800  19.000  0.00  0.00    +0.000 A 
ATOM     16  C   UNL     1       8.161   7.157  18.937  0.00  0.00    +0.000 A 
ATOM     17  C   UNL     1       7.848   7.687  17.714  0.00  0.00    +0.000 A 
ATOM     18  N   UNL     1       7.440   6.964  16.662  0.00  0.00    +0.000 NA
BRANCH  15  19
ATOM     19  O   UNL     1       8.318   5.139  20.147  0.00  0.00    +0.000 OA
ATOM     20  H   UNL     1       8.621   5.874  20.709  0.00  0.00    +0.000 HD
ENDBRANCH  15  19
BRANCH  17  21
ATOM     21  O   UNL     1       7.942   9.031  17.490  0.00  0.00    +0.000 OA
ATOM     22  H   UNL     1       7.192   9.472  17.912  0.00  0.00    +0.000 HD
ENDBRANCH  17  21
ENDBRANCH  12  13
ENDBRANCH   1  12
TORSDOF 6
ENDMDL
