MODEL 1
REMARK VINA RESULT:      -7.1      0.000      0.000
REMARK  Name = 
REMARK  6 active torsions:
REMARK  status: ('A' for Active; 'I' for Inactive)
REMARK    1  A    between atoms: C_1  and  O_2
REMARK    2  A    between atoms: O_2  and  C_3
REMARK    3  A    between atoms: C_6  and  N_7
REMARK    4  A    between atoms: N_11  and  C_12
REMARK    5  A    between atoms: C_15  and  O_16
REMARK    6  A    between atoms: O_16  and  C_17
REMARK                            x       y       z     vdW  Elec       q    Type
REMARK                         _______ _______ _______ _____ _____    ______ ____
ROOT
ATOM      1  N   UNL     1       2.222   7.144  19.816  0.00  0.00    +0.000 N 
ATOM      2  S   UNL     1       2.188   5.644  20.609  0.00  0.00    +0.000 S 
ATOM      3  C   UNL     1       3.285   4.920  19.446  0.00  0.00    +0.000 A 
ATOM      4  O   UNL     1       3.579   3.739  19.534  0.00  0.00    +0.000 OA
ATOM      5  N   UNL     1       3.712   5.886  18.560  0.00  0.00    +0.000 N 
ATOM      6  C   UNL     1       3.064   7.129  18.689  0.00  0.00    +0.000 A 
ATOM      7  O   UNL     1       3.205   8.078  17.922  0.00  0.00    +0.000 OA
ENDROOT
BRANCH   1  11
ATOM      8  C   UNL     1      -0.110  10.453  21.142  0.00  0.00    +0.000 A 
ATOM      9  C   UNL     1       0.280   9.461  22.036  0.00  0.00    +0.000 A 
ATOM     10  C   UNL     1       1.049   8.373  21.603  0.00  0.00    +0.000 A 
ATOM     11  C   UNL     1       1.443   8.249  20.264  0.00  0.00    +0.000 A 
ATOM     12  C   UNL     1       1.029   9.255  19.374  0.00  0.00    +0.000 A 
ATOM     13  C   UNL     1       0.252  10.338  19.804  0.00  0.00    +0.000 A 
BRANCH   8  15
ATOM     14  C   UNL     1      -1.302  11.252  23.016  0.00  0.00    +0.000 C 
ATOM     15  O   UNL     1      -0.864  11.459  21.676  0.00  0.00    +0.000 OA
ENDBRANCH   8  15
ENDBRANCH   1  11
BRANCH   5  16
ATOM     16  C   UNL     1       4.757   5.653  17.601  0.00  0.00    +0.000 A 
ATOM     17  C   UNL     1       6.052   6.166  17.772  0.00  0.00    +0.000 A 
ATOM     18  C   UNL     1       7.040   5.995  16.793  0.00  0.00    +0.000 A 
ATOM     19  C   UNL     1       6.770   5.289  15.624  0.00  0.00    +0.000 A 
ATOM     20  C   UNL     1       5.498   4.769  15.431  0.00  0.00    +0.000 A 
ATOM     21  C   UNL     1       4.509   4.951  16.408  0.00  0.00    +0.000 A 
BRANCH  19  22
ATOM     22  O   UNL     1       7.802   5.214  14.731  0.00  0.00    +0.000 OA
ATOM     23  C   UNL     1       7.435   4.877  13.398  0.00  0.00    +0.000 C 
ENDBRANCH  19  22
ENDBRANCH   5  16
TORSDOF 4
ENDMDL
MODEL 2
REMARK VINA RESULT:      -7.0      0.155      1.010
REMARK  Name = 
REMARK  6 active torsions:
REMARK  status: ('A' for Active; 'I' for Inactive)
REMARK    1  A    between atoms: C_1  and  O_2
REMARK    2  A    between atoms: O_2  and  C_3
REMARK    3  A    between atoms: C_6  and  N_7
REMARK    4  A    between atoms: N_11  and  C_12
REMARK    5  A    between atoms: C_15  and  O_16
REMARK    6  A    between atoms: O_16  and  C_17
REMARK                            x       y       z     vdW  Elec       q    Type
REMARK                         _______ _______ _______ _____ _____    ______ ____
ROOT
ATOM      1  N   UNL     1       2.237   7.031  19.766  0.00  0.00    +0.000 N 
ATOM      2  S   UNL     1       2.186   5.520  20.540  0.00  0.00    +0.000 S 
ATOM      3  C   UNL     1       3.283   4.802  19.372  0.00  0.00    +0.000 A 
ATOM      4  O   UNL     1       3.566   3.618  19.446  0.00  0.00    +0.000 OA
ATOM      5  N   UNL     1       3.723   5.777  18.501  0.00  0.00    +0.000 N 
ATOM      6  C   UNL     1       3.085   7.023  18.644  0.00  0.00    +0.000 A 
ATOM      7  O   UNL     1       3.239   7.981  17.890  0.00  0.00    +0.000 OA
ENDROOT
BRANCH   1  11
ATOM      8  C   UNL     1      -0.069  10.331  21.156  0.00  0.00    +0.000 A 
ATOM      9  C   UNL     1       0.383  10.290  19.841  0.00  0.00    +0.000 A 
ATOM     10  C   UNL     1       1.140   9.205  19.381  0.00  0.00    +0.000 A 
ATOM     11  C   UNL     1       1.466   8.136  20.226  0.00  0.00    +0.000 A 
ATOM     12  C   UNL     1       1.010   8.202  21.554  0.00  0.00    +0.000 A 
ATOM     13  C   UNL     1       0.262   9.291  22.018  0.00  0.00    +0.000 A 
BRANCH   8  15
ATOM     14  C   UNL     1      -1.131  11.556  22.872  0.00  0.00    +0.000 C 
ATOM     15  O   UNL     1      -0.788  11.442  21.494  0.00  0.00    +0.000 OA
ENDBRANCH   8  15
ENDBRANCH   1  11
BRANCH   5  16
ATOM     16  C   UNL     1       4.770   5.547  17.544  0.00  0.00    +0.000 A 
ATOM     17  C   UNL     1       6.050   6.102  17.694  0.00  0.00    +0.000 A 
ATOM     18  C   UNL     1       7.039   5.933  16.716  0.00  0.00    +0.000 A 
ATOM     19  C   UNL     1       6.786   5.187  15.569  0.00  0.00    +0.000 A 
ATOM     20  C   UNL     1       5.529   4.624  15.397  0.00  0.00    +0.000 A 
ATOM     21  C   UNL     1       4.539   4.805  16.372  0.00  0.00    +0.000 A 
BRANCH  19  22
ATOM     22  O   UNL     1       7.816   5.116  14.674  0.00  0.00    +0.000 OA
ATOM     23  C   UNL     1       7.434   4.967  13.311  0.00  0.00    +0.000 C 
ENDBRANCH  19  22
ENDBRANCH   5  16
TORSDOF 4
ENDMDL
MODEL 3
REMARK VINA RESULT:      -6.9      0.166      1.011
REMARK  Name = 
REMARK  6 active torsions:
REMARK  status: ('A' for Active; 'I' for Inactive)
REMARK    1  A    between atoms: C_1  and  O_2
REMARK    2  A    between atoms: O_2  and  C_3
REMARK    3  A    between atoms: C_6  and  N_7
REMARK    4  A    between atoms: N_11  and  C_12
REMARK    5  A    between atoms: C_15  and  O_16
REMARK    6  A    between atoms: O_16  and  C_17
REMARK                            x       y       z     vdW  Elec       q    Type
REMARK                         _______ _______ _______ _____ _____    ______ ____
ROOT
ATOM      1  N   UNL     1       2.176   7.155  19.769  0.00  0.00    +0.000 N 
ATOM      2  S   UNL     1       2.200   5.636  20.527  0.00  0.00    +0.000 S 
ATOM      3  C   UNL     1       3.323   4.982  19.346  0.00  0.00    +0.000 A 
ATOM      4  O   UNL     1       3.662   3.811  19.407  0.00  0.00    +0.000 OA
ATOM      5  N   UNL     1       3.713   5.985  18.484  0.00  0.00    +0.000 N 
ATOM      6  C   UNL     1       3.017   7.199  18.643  0.00  0.00    +0.000 A 
ATOM      7  O   UNL     1       3.123   8.170  17.898  0.00  0.00    +0.000 OA
ENDROOT
BRANCH   1  11
ATOM      8  C   UNL     1      -0.277  10.341  21.174  0.00  0.00    +0.000 A 
ATOM      9  C   UNL     1       0.019   9.261  21.999  0.00  0.00    +0.000 A 
ATOM     10  C   UNL     1       0.827   8.213  21.541  0.00  0.00    +0.000 A 
ATOM     11  C   UNL     1       1.356   8.218  20.244  0.00  0.00    +0.000 A 
ATOM     12  C   UNL     1       1.037   9.312  19.421  0.00  0.00    +0.000 A 
ATOM     13  C   UNL     1       0.221  10.356  19.875  0.00  0.00    +0.000 A 
BRANCH   8  15
ATOM     14  C   UNL     1      -1.339  11.152  23.119  0.00  0.00    +0.000 C 
ATOM     15  O   UNL     1      -1.081  11.298  21.726  0.00  0.00    +0.000 OA
ENDBRANCH   8  15
ENDBRANCH   1  11
BRANCH   5  16
ATOM     16  C   UNL     1       4.764   5.814  17.520  0.00  0.00    +0.000 A 
ATOM     17  C   UNL     1       4.561   5.130  16.311  0.00  0.00    +0.000 A 
ATOM     18  C   UNL     1       5.613   4.904  15.414  0.00  0.00    +0.000 A 
ATOM     19  C   UNL     1       6.895   5.372  15.687  0.00  0.00    +0.000 A 
ATOM     20  C   UNL     1       7.123   6.053  16.874  0.00  0.00    +0.000 A 
ATOM     21  C   UNL     1       6.070   6.268  17.775  0.00  0.00    +0.000 A 
BRANCH  19  22
ATOM     22  O   UNL     1       7.845   5.066  14.753  0.00  0.00    +0.000 OA
ATOM     23  C   UNL     1       7.360   4.872  13.429  0.00  0.00    +0.000 C 
ENDBRANCH  19  22
ENDBRANCH   5  16
TORSDOF 4
ENDMDL
MODEL 4
REMARK VINA RESULT:      -6.9      2.240      2.823
REMARK  Name = 
REMARK  6 active torsions:
REMARK  status: ('A' for Active; 'I' for Inactive)
REMARK    1  A    between atoms: C_1  and  O_2
REMARK    2  A    between atoms: O_2  and  C_3
REMARK    3  A    between atoms: C_6  and  N_7
REMARK    4  A    between atoms: N_11  and  C_12
REMARK    5  A    between atoms: C_15  and  O_16
REMARK    6  A    between atoms: O_16  and  C_17
REMARK                            x       y       z     vdW  Elec       q    Type
REMARK                         _______ _______ _______ _____ _____    ______ ____
ROOT
ATOM      1  N   UNL     1       1.488   8.996  19.200  0.00  0.00    +0.000 N 
ATOM      2  S   UNL     1       1.325   8.174  20.677  0.00  0.00    +0.000 S 
ATOM      3  C   UNL     1       2.119   6.739  20.050  0.00  0.00    +0.000 A 
ATOM      4  O   UNL     1       2.229   5.746  20.750  0.00  0.00    +0.000 OA
ATOM      5  N   UNL     1       2.568   6.989  18.771  0.00  0.00    +0.000 N 
ATOM      6  C   UNL     1       2.151   8.221  18.232  0.00  0.00    +0.000 A 
ATOM      7  O   UNL     1       2.335   8.577  17.071  0.00  0.00    +0.000 OA
ENDROOT
BRANCH   1  11
ATOM      8  C   UNL     1      -0.086  12.913  18.632  0.00  0.00    +0.000 A 
ATOM      9  C   UNL     1       1.286  12.713  18.740  0.00  0.00    +0.000 A 
ATOM     10  C   UNL     1       1.807  11.426  18.925  0.00  0.00    +0.000 A 
ATOM     11  C   UNL     1       0.967  10.308  19.010  0.00  0.00    +0.000 A 
ATOM     12  C   UNL     1      -0.417  10.532  18.910  0.00  0.00    +0.000 A 
ATOM     13  C   UNL     1      -0.940  11.820  18.735  0.00  0.00    +0.000 A 
BRANCH   8  15
ATOM     14  C   UNL     1       0.479  15.195  18.849  0.00  0.00    +0.000 C 
ATOM     15  O   UNL     1      -0.477  14.211  18.464  0.00  0.00    +0.000 OA
ENDBRANCH   8  15
ENDBRANCH   1  11
BRANCH   5  16
ATOM     16  C   UNL     1       3.417   6.077  18.054  0.00  0.00    +0.000 A 
ATOM     17  C   UNL     1       4.705   6.438  17.629  0.00  0.00    +0.000 A 
ATOM     18  C   UNL     1       5.493   5.566  16.866  0.00  0.00    +0.000 A 
ATOM     19  C   UNL     1       5.027   4.301  16.523  0.00  0.00    +0.000 A 
ATOM     20  C   UNL     1       3.758   3.917  16.933  0.00  0.00    +0.000 A 
ATOM     21  C   UNL     1       2.968   4.796  17.687  0.00  0.00    +0.000 A 
BRANCH  19  22
ATOM     22  O   UNL     1       5.872   3.552  15.752  0.00  0.00    +0.000 OA
ATOM     23  C   UNL     1       6.305   4.167  14.544  0.00  0.00    +0.000 C 
ENDBRANCH  19  22
ENDBRANCH   5  16
TORSDOF 4
ENDMDL
MODEL 5
REMARK VINA RESULT:      -6.8      2.084      8.110
REMARK  Name = 
REMARK  6 active torsions:
REMARK  status: ('A' for Active; 'I' for Inactive)
REMARK    1  A    between atoms: C_1  and  O_2
REMARK    2  A    between atoms: O_2  and  C_3
REMARK    3  A    between atoms: C_6  and  N_7
REMARK    4  A    between atoms: N_11  and  C_12
REMARK    5  A    between atoms: C_15  and  O_16
REMARK    6  A    between atoms: O_16  and  C_17
REMARK                            x       y       z     vdW  Elec       q    Type
REMARK                         _______ _______ _______ _____ _____    ______ ____
ROOT
ATOM      1  N   UNL     1       2.652   7.017  18.708  0.00  0.00    +0.000 N 
ATOM      2  S   UNL     1       2.164   6.624  20.286  0.00  0.00    +0.000 S 
ATOM      3  C   UNL     1       1.429   8.199  20.530  0.00  0.00    +0.000 A 
ATOM      4  O   UNL     1       0.932   8.481  21.609  0.00  0.00    +0.000 OA
ATOM      5  N   UNL     1       1.497   8.920  19.358  0.00  0.00    +0.000 N 
ATOM      6  C   UNL     1       2.257   8.315  18.339  0.00  0.00    +0.000 A 
ATOM      7  O   UNL     1       2.545   8.846  17.269  0.00  0.00    +0.000 OA
ENDROOT
BRANCH   1  11
ATOM      8  C   UNL     1       4.878   4.292  16.308  0.00  0.00    +0.000 A 
ATOM      9  C   UNL     1       5.285   5.616  16.434  0.00  0.00    +0.000 A 
ATOM     10  C   UNL     1       4.556   6.514  17.224  0.00  0.00    +0.000 A 
ATOM     11  C   UNL     1       3.401   6.109  17.905  0.00  0.00    +0.000 A 
ATOM     12  C   UNL     1       2.999   4.771  17.755  0.00  0.00    +0.000 A 
ATOM     13  C   UNL     1       3.721   3.875  16.957  0.00  0.00    +0.000 A 
BRANCH   8  15
ATOM     14  C   UNL     1       6.466   4.217  14.562  0.00  0.00    +0.000 C 
ATOM     15  O   UNL     1       5.662   3.513  15.504  0.00  0.00    +0.000 OA
ENDBRANCH   8  15
ENDBRANCH   1  11
BRANCH   5  16
ATOM     16  C   UNL     1       0.821  10.176  19.179  0.00  0.00    +0.000 A 
ATOM     17  C   UNL     1       1.436  11.401  19.483  0.00  0.00    +0.000 A 
ATOM     18  C   UNL     1       0.741  12.613  19.377  0.00  0.00    +0.000 A 
ATOM     19  C   UNL     1      -0.582  12.640  18.945  0.00  0.00    +0.000 A 
ATOM     20  C   UNL     1      -1.213  11.444  18.636  0.00  0.00    +0.000 A 
ATOM     21  C   UNL     1      -0.518  10.232  18.754  0.00  0.00    +0.000 A 
BRANCH  19  22
ATOM     22  O   UNL     1      -1.164  13.876  18.910  0.00  0.00    +0.000 OA
ATOM     23  C   UNL     1      -0.263  14.978  18.945  0.00  0.00    +0.000 C 
ENDBRANCH  19  22
ENDBRANCH   5  16
TORSDOF 4
ENDMDL
MODEL 6
REMARK VINA RESULT:      -6.8      2.087      2.761
REMARK  Name = 
REMARK  6 active torsions:
REMARK  status: ('A' for Active; 'I' for Inactive)
REMARK    1  A    between atoms: C_1  and  O_2
REMARK    2  A    between atoms: O_2  and  C_3
REMARK    3  A    between atoms: C_6  and  N_7
REMARK    4  A    between atoms: N_11  and  C_12
REMARK    5  A    between atoms: C_15  and  O_16
REMARK    6  A    between atoms: O_16  and  C_17
REMARK                            x       y       z     vdW  Elec       q    Type
REMARK                         _______ _______ _______ _____ _____    ______ ____
ROOT
ATOM      1  N   UNL     1       1.459   8.901  19.349  0.00  0.00    +0.000 N 
ATOM      2  S   UNL     1       1.410   7.964  20.764  0.00  0.00    +0.000 S 
ATOM      3  C   UNL     1       2.243   6.624  19.993  0.00  0.00    +0.000 A 
ATOM      4  O   UNL     1       2.437   5.589  20.609  0.00  0.00    +0.000 OA
ATOM      5  N   UNL     1       2.616   6.992  18.718  0.00  0.00    +0.000 N 
ATOM      6  C   UNL     1       2.113   8.237  18.296  0.00  0.00    +0.000 A 
ATOM      7  O   UNL     1       2.221   8.689  17.158  0.00  0.00    +0.000 OA
ENDROOT
BRANCH   1  11
ATOM      8  C   UNL     1      -0.333  12.761  19.160  0.00  0.00    +0.000 A 
ATOM      9  C   UNL     1       1.021  12.598  18.891  0.00  0.00    +0.000 A 
ATOM     10  C   UNL     1       1.613  11.330  18.950  0.00  0.00    +0.000 A 
ATOM     11  C   UNL     1       0.864  10.194  19.284  0.00  0.00    +0.000 A 
ATOM     12  C   UNL     1      -0.500  10.380  19.564  0.00  0.00    +0.000 A 
ATOM     13  C   UNL     1      -1.091  11.649  19.515  0.00  0.00    +0.000 A 
BRANCH   8  15
ATOM     14  C   UNL     1       0.205  15.052  18.985  0.00  0.00    +0.000 C 
ATOM     15  O   UNL     1      -0.797  14.043  19.081  0.00  0.00    +0.000 OA
ENDBRANCH   8  15
ENDBRANCH   1  11
BRANCH   5  16
ATOM     16  C   UNL     1       3.473   6.183  17.896  0.00  0.00    +0.000 A 
ATOM     17  C   UNL     1       3.171   4.846  17.597  0.00  0.00    +0.000 A 
ATOM     18  C   UNL     1       4.053   4.046  16.858  0.00  0.00    +0.000 A 
ATOM     19  C   UNL     1       5.253   4.563  16.379  0.00  0.00    +0.000 A 
ATOM     20  C   UNL     1       5.575   5.883  16.658  0.00  0.00    +0.000 A 
ATOM     21  C   UNL     1       4.695   6.678  17.407  0.00  0.00    +0.000 A 
BRANCH  19  22
ATOM     22  O   UNL     1       6.043   3.680  15.697  0.00  0.00    +0.000 OA
ATOM     23  C   UNL     1       6.334   4.034  14.350  0.00  0.00    +0.000 C 
ENDBRANCH  19  22
ENDBRANCH   5  16
TORSDOF 4
ENDMDL
MODEL 7
REMARK VINA RESULT:      -6.8      1.998      8.171
REMARK  Name = 
REMARK  6 active torsions:
REMARK  status: ('A' for Active; 'I' for Inactive)
REMARK    1  A    between atoms: C_1  and  O_2
REMARK    2  A    between atoms: O_2  and  C_3
REMARK    3  A    between atoms: C_6  and  N_7
REMARK    4  A    between atoms: N_11  and  C_12
REMARK    5  A    between atoms: C_15  and  O_16
REMARK    6  A    between atoms: O_16  and  C_17
REMARK                            x       y       z     vdW  Elec       q    Type
REMARK                         _______ _______ _______ _____ _____    ______ ____
ROOT
ATOM      1  N   UNL     1       2.812   6.961  18.625  0.00  0.00    +0.000 N 
ATOM      2  S   UNL     1       2.355   6.466  20.183  0.00  0.00    +0.000 S 
ATOM      3  C   UNL     1       1.520   7.978  20.498  0.00  0.00    +0.000 A 
ATOM      4  O   UNL     1       1.009   8.179  21.588  0.00  0.00    +0.000 OA
ATOM      5  N   UNL     1       1.538   8.754  19.359  0.00  0.00    +0.000 N 
ATOM      6  C   UNL     1       2.333   8.246  18.315  0.00  0.00    +0.000 A 
ATOM      7  O   UNL     1       2.583   8.842  17.270  0.00  0.00    +0.000 OA
ENDROOT
BRANCH   1  11
ATOM      8  C   UNL     1       5.226   4.520  16.103  0.00  0.00    +0.000 A 
ATOM      9  C   UNL     1       4.133   3.980  16.772  0.00  0.00    +0.000 A 
ATOM     10  C   UNL     1       3.336   4.780  17.600  0.00  0.00    +0.000 A 
ATOM     11  C   UNL     1       3.616   6.141  17.782  0.00  0.00    +0.000 A 
ATOM     12  C   UNL     1       4.731   6.666  17.107  0.00  0.00    +0.000 A 
ATOM     13  C   UNL     1       5.535   5.864  16.287  0.00  0.00    +0.000 A 
BRANCH   8  15
ATOM     14  C   UNL     1       6.108   4.024  13.970  0.00  0.00    +0.000 C 
ATOM     15  O   UNL     1       5.934   3.643  15.332  0.00  0.00    +0.000 OA
ENDBRANCH   8  15
ENDBRANCH   1  11
BRANCH   5  16
ATOM     16  C   UNL     1       0.782   9.970  19.237  0.00  0.00    +0.000 A 
ATOM     17  C   UNL     1       1.169  11.155  19.882  0.00  0.00    +0.000 A 
ATOM     18  C   UNL     1       0.383  12.313  19.817  0.00  0.00    +0.000 A 
ATOM     19  C   UNL     1      -0.803  12.329  19.090  0.00  0.00    +0.000 A 
ATOM     20  C   UNL     1      -1.209  11.172  18.440  0.00  0.00    +0.000 A 
ATOM     21  C   UNL     1      -0.425  10.012  18.516  0.00  0.00    +0.000 A 
BRANCH  19  22
ATOM     22  O   UNL     1      -1.498  13.505  19.124  0.00  0.00    +0.000 OA
ATOM     23  C   UNL     1      -1.239  14.336  20.250  0.00  0.00    +0.000 C 
ENDBRANCH  19  22
ENDBRANCH   5  16
TORSDOF 4
ENDMDL
MODEL 8
REMARK VINA RESULT:      -6.8      2.362      3.023
REMARK  Name = 
REMARK  6 active torsions:
REMARK  status: ('A' for Active; 'I' for Inactive)
REMARK    1  A    between atoms: C_1  and  O_2
REMARK    2  A    between atoms: O_2  and  C_3
REMARK    3  A    between atoms: C_6  and  N_7
REMARK    4  A    between atoms: N_11  and  C_12
REMARK    5  A    between atoms: C_15  and  O_16
REMARK    6  A    between atoms: O_16  and  C_17
REMARK                            x       y       z     vdW  Elec       q    Type
REMARK                         _______ _______ _______ _____ _____    ______ ____
ROOT
ATOM      1  N   UNL     1       1.371   9.252  19.300  0.00  0.00    +0.000 N 
ATOM      2  S   UNL     1       1.162   8.432  20.771  0.00  0.00    +0.000 S 
ATOM      3  C   UNL     1       1.913   6.972  20.149  0.00  0.00    +0.000 A 
ATOM      4  O   UNL     1       1.980   5.973  20.846  0.00  0.00    +0.000 OA
ATOM      5  N   UNL     1       2.386   7.210  18.876  0.00  0.00    +0.000 N 
ATOM      6  C   UNL     1       2.019   8.458  18.337  0.00  0.00    +0.000 A 
ATOM      7  O   UNL     1       2.229   8.811  17.180  0.00  0.00    +0.000 OA
ENDROOT
BRANCH   1  11
ATOM      8  C   UNL     1      -0.028  13.234  18.727  0.00  0.00    +0.000 A 
ATOM      9  C   UNL     1      -0.858  12.150  18.465  0.00  0.00    +0.000 A 
ATOM     10  C   UNL     1      -0.402  10.840  18.654  0.00  0.00    +0.000 A 
ATOM     11  C   UNL     1       0.898  10.582  19.108  0.00  0.00    +0.000 A 
ATOM     12  C   UNL     1       1.726  11.690  19.356  0.00  0.00    +0.000 A 
ATOM     13  C   UNL     1       1.274  13.001  19.157  0.00  0.00    +0.000 A 
BRANCH   8  15
ATOM     14  C   UNL     1       0.237  15.577  18.851  0.00  0.00    +0.000 C 
ATOM     15  O   UNL     1      -0.578  14.463  18.497  0.00  0.00    +0.000 OA
ENDBRANCH   8  15
ENDBRANCH   1  11
BRANCH   5  16
ATOM     16  C   UNL     1       3.211   6.271  18.167  0.00  0.00    +0.000 A 
ATOM     17  C   UNL     1       4.487   6.613  17.692  0.00  0.00    +0.000 A 
ATOM     18  C   UNL     1       5.250   5.713  16.937  0.00  0.00    +0.000 A 
ATOM     19  C   UNL     1       4.771   4.439  16.650  0.00  0.00    +0.000 A 
ATOM     20  C   UNL     1       3.514   4.074  17.109  0.00  0.00    +0.000 A 
ATOM     21  C   UNL     1       2.748   4.980  17.856  0.00  0.00    +0.000 A 
BRANCH  19  22
ATOM     22  O   UNL     1       5.591   3.661  15.881  0.00  0.00    +0.000 OA
ATOM     23  C   UNL     1       5.957   4.216  14.622  0.00  0.00    +0.000 C 
ENDBRANCH  19  22
ENDBRANCH   5  16
TORSDOF 4
ENDMDL
MODEL 9
REMARK VINA RESULT:      -6.7      2.013      2.570
REMARK  Name = 
REMARK  6 active torsions:
REMARK  status: ('A' for Active; 'I' for Inactive)
REMARK    1  A    between atoms: C_1  and  O_2
REMARK    2  A    between atoms: O_2  and  C_3
REMARK    3  A    between atoms: C_6  and  N_7
REMARK    4  A    between atoms: N_11  and  C_12
REMARK    5  A    between atoms: C_15  and  O_16
REMARK    6  A    between atoms: O_16  and  C_17
REMARK                            x       y       z     vdW  Elec       q    Type
REMARK                         _______ _______ _______ _____ _____    ______ ____
ROOT
ATOM      1  N   UNL     1       1.512   8.813  19.374  0.00  0.00    +0.000 N 
ATOM      2  S   UNL     1       1.472   7.846  20.768  0.00  0.00    +0.000 S 
ATOM      3  C   UNL     1       2.327   6.535  19.972  0.00  0.00    +0.000 A 
ATOM      4  O   UNL     1       2.535   5.490  20.567  0.00  0.00    +0.000 OA
ATOM      5  N   UNL     1       2.699   6.935  18.707  0.00  0.00    +0.000 N 
ATOM      6  C   UNL     1       2.178   8.181  18.309  0.00  0.00    +0.000 A 
ATOM      7  O   UNL     1       2.284   8.658  17.181  0.00  0.00    +0.000 OA
ENDROOT
BRANCH   1  11
ATOM      8  C   UNL     1      -0.311  12.661  19.244  0.00  0.00    +0.000 A 
ATOM      9  C   UNL     1      -1.033  11.552  19.672  0.00  0.00    +0.000 A 
ATOM     10  C   UNL     1      -0.436  10.286  19.718  0.00  0.00    +0.000 A 
ATOM     11  C   UNL     1       0.898  10.098  19.333  0.00  0.00    +0.000 A 
ATOM     12  C   UNL     1       1.608  11.228  18.893  0.00  0.00    +0.000 A 
ATOM     13  C   UNL     1       1.009  12.493  18.837  0.00  0.00    +0.000 A 
BRANCH   8  15
ATOM     14  C   UNL     1      -0.199  15.018  19.228  0.00  0.00    +0.000 C 
ATOM     15  O   UNL     1      -1.000  13.840  19.233  0.00  0.00    +0.000 OA
ENDBRANCH   8  15
ENDBRANCH   1  11
BRANCH   5  16
ATOM     16  C   UNL     1       3.571   6.156  17.871  0.00  0.00    +0.000 A 
ATOM     17  C   UNL     1       3.273   4.831  17.516  0.00  0.00    +0.000 A 
ATOM     18  C   UNL     1       4.168   4.058  16.764  0.00  0.00    +0.000 A 
ATOM     19  C   UNL     1       5.377   4.591  16.327  0.00  0.00    +0.000 A 
ATOM     20  C   UNL     1       5.695   5.900  16.662  0.00  0.00    +0.000 A 
ATOM     21  C   UNL     1       4.802   6.667  17.424  0.00  0.00    +0.000 A 
BRANCH  19  22
ATOM     22  O   UNL     1       6.179   3.734  15.628  0.00  0.00    +0.000 OA
ATOM     23  C   UNL     1       6.205   3.932  14.219  0.00  0.00    +0.000 C 
ENDBRANCH  19  22
ENDBRANCH   5  16
TORSDOF 4
ENDMDL
