MODEL 1
REMARK VINA RESULT:      -6.5      0.000      0.000
REMARK  Name = 
REMARK  3 active torsions:
REMARK  status: ('A' for Active; 'I' for Inactive)
REMARK    1  A    between atoms: N_11  and  C_12
REMARK    2  A    between atoms: C_12  and  C_13
REMARK    3  A    between atoms: C_20  and  C_21
REMARK                            x       y       z     vdW  Elec       q    Type
REMARK                         _______ _______ _______ _____ _____    ______ ____
ROOT
ATOM      1  C   UNL     1       2.102   5.392  19.362  0.00  0.00    +0.000 C 
ATOM      2  O   UNL     1       0.913   5.059  19.423  0.00  0.00    +0.000 OA
ATOM      3  N   UNL     1       3.058   4.549  18.788  0.00  0.00    +0.000 N 
ATOM      4  C   UNL     1       2.646   3.212  18.338  0.00  0.00    +0.000 C 
ATOM      5  C   UNL     1       3.165   2.136  19.297  0.00  0.00    +0.000 C 
ATOM      6  C   UNL     1       4.662   2.270  19.587  0.00  0.00    +0.000 C 
ATOM      7  C   UNL     1       5.068   3.714  19.896  0.00  0.00    +0.000 C 
ATOM      8  C   UNL     1       4.521   4.728  18.881  0.00  0.00    +0.000 C 
ENDROOT
BRANCH   8   9
ATOM      9  C   UNL     1       5.167   4.648  17.510  0.00  0.00    +0.000 A 
ATOM     10  N   UNL     1       4.522   4.587  16.358  0.00  0.00    +0.000 NA
ATOM     11  C   UNL     1       5.421   4.552  15.311  0.00  0.00    +0.000 A 
ATOM     12  C   UNL     1       6.749   4.573  15.668  0.00  0.00    +0.000 A 
ATOM     13  S   UNL     1       6.888   4.644  17.373  0.00  0.00    +0.000 S 
ENDBRANCH   8   9
BRANCH   1  14
ATOM     14  C   UNL     1       2.564   6.718  20.007  0.00  0.00    +0.000 C 
BRANCH  14  25
ATOM     15  O   UNL     1       3.181   7.836  17.604  0.00  0.00    +0.000 OA
ATOM     16  C   UNL     1       2.296   8.391  18.263  0.00  0.00    +0.000 C 
ATOM     17  C   UNL     1       1.542   9.557  17.672  0.00  0.00    +0.000 C 
ATOM     18  S   UNL     1       1.540  10.955  18.801  0.00  0.00    +0.000 S 
ATOM     19  C   UNL     1       0.870  10.086  20.204  0.00  0.00    +0.000 A 
ATOM     20  C   UNL     1       0.175  10.853  21.149  0.00  0.00    +0.000 A 
ATOM     21  C   UNL     1      -0.378  10.254  22.276  0.00  0.00    +0.000 A 
ATOM     22  C   UNL     1      -0.236   8.885  22.464  0.00  0.00    +0.000 A 
ATOM     23  C   UNL     1       0.485   8.118  21.542  0.00  0.00    +0.000 A 
ATOM     24  C   UNL     1       1.068   8.701  20.406  0.00  0.00    +0.000 A 
ATOM     25  N   UNL     1       1.891   7.928  19.519  0.00  0.00    +0.000 N 
ENDBRANCH  14  25
ENDBRANCH   1  14
TORSDOF 3
ENDMDL
MODEL 2
REMARK VINA RESULT:      -6.4      1.003      1.117
REMARK  Name = 
REMARK  3 active torsions:
REMARK  status: ('A' for Active; 'I' for Inactive)
REMARK    1  A    between atoms: N_11  and  C_12
REMARK    2  A    between atoms: C_12  and  C_13
REMARK    3  A    between atoms: C_20  and  C_21
REMARK                            x       y       z     vdW  Elec       q    Type
REMARK                         _______ _______ _______ _____ _____    ______ ____
ROOT
ATOM      1  C   UNL     1       2.201   5.717  18.583  0.00  0.00    +0.000 C 
ATOM      2  O   UNL     1       1.091   5.571  18.059  0.00  0.00    +0.000 OA
ATOM      3  N   UNL     1       3.252   4.840  18.302  0.00  0.00    +0.000 N 
ATOM      4  C   UNL     1       2.995   3.677  17.441  0.00  0.00    +0.000 C 
ATOM      5  C   UNL     1       2.954   2.391  18.271  0.00  0.00    +0.000 C 
ATOM      6  C   UNL     1       4.167   2.237  19.192  0.00  0.00    +0.000 C 
ATOM      7  C   UNL     1       4.489   3.528  19.950  0.00  0.00    +0.000 C 
ATOM      8  C   UNL     1       4.527   4.769  19.046  0.00  0.00    +0.000 C 
ENDROOT
BRANCH   8   9
ATOM      9  C   UNL     1       5.712   4.814  18.098  0.00  0.00    +0.000 A 
ATOM     10  N   UNL     1       6.913   4.324  18.346  0.00  0.00    +0.000 NA
ATOM     11  C   UNL     1       7.739   4.513  17.254  0.00  0.00    +0.000 A 
ATOM     12  C   UNL     1       7.166   5.160  16.183  0.00  0.00    +0.000 A 
ATOM     13  S   UNL     1       5.537   5.543  16.543  0.00  0.00    +0.000 S 
ENDBRANCH   8   9
BRANCH   1  14
ATOM     14  C   UNL     1       2.414   6.830  19.635  0.00  0.00    +0.000 C 
BRANCH  14  25
ATOM     15  O   UNL     1       3.081   8.260  17.418  0.00  0.00    +0.000 OA
ATOM     16  C   UNL     1       2.214   8.745  18.151  0.00  0.00    +0.000 C 
ATOM     17  C   UNL     1       1.503  10.011  17.735  0.00  0.00    +0.000 C 
ATOM     18  S   UNL     1       1.547  11.230  19.054  0.00  0.00    +0.000 S 
ATOM     19  C   UNL     1       0.840  10.192  20.316  0.00  0.00    +0.000 A 
ATOM     20  C   UNL     1       0.168  10.839  21.363  0.00  0.00    +0.000 A 
ATOM     21  C   UNL     1      -0.410  10.104  22.392  0.00  0.00    +0.000 A 
ATOM     22  C   UNL     1      -0.318   8.718  22.381  0.00  0.00    +0.000 A 
ATOM     23  C   UNL     1       0.379   8.067  21.357  0.00  0.00    +0.000 A 
ATOM     24  C   UNL     1       0.988   8.787  20.317  0.00  0.00    +0.000 A 
ATOM     25  N   UNL     1       1.786   8.121  19.327  0.00  0.00    +0.000 N 
ENDBRANCH  14  25
ENDBRANCH   1  14
TORSDOF 3
ENDMDL
MODEL 3
REMARK VINA RESULT:      -6.2      6.271     10.916
REMARK  Name = 
REMARK  3 active torsions:
REMARK  status: ('A' for Active; 'I' for Inactive)
REMARK    1  A    between atoms: N_11  and  C_12
REMARK    2  A    between atoms: C_12  and  C_13
REMARK    3  A    between atoms: C_20  and  C_21
REMARK                            x       y       z     vdW  Elec       q    Type
REMARK                         _______ _______ _______ _____ _____    ______ ____
ROOT
ATOM      1  C   UNL     1      -3.445  12.493  19.759  0.00  0.00    +0.000 C 
ATOM      2  O   UNL     1      -3.333  11.626  18.884  0.00  0.00    +0.000 OA
ATOM      3  N   UNL     1      -4.702  12.900  20.214  0.00  0.00    +0.000 N 
ATOM      4  C   UNL     1      -5.902  12.349  19.570  0.00  0.00    +0.000 C 
ATOM      5  C   UNL     1      -6.564  13.400  18.673  0.00  0.00    +0.000 C 
ATOM      6  C   UNL     1      -6.788  14.735  19.388  0.00  0.00    +0.000 C 
ATOM      7  C   UNL     1      -5.556  15.188  20.175  0.00  0.00    +0.000 C 
ATOM      8  C   UNL     1      -4.961  14.083  21.060  0.00  0.00    +0.000 C 
ENDROOT
BRANCH   8   9
ATOM      9  C   UNL     1      -5.818  13.715  22.259  0.00  0.00    +0.000 A 
ATOM     10  N   UNL     1      -5.816  12.547  22.876  0.00  0.00    +0.000 NA
ATOM     11  C   UNL     1      -6.695  12.571  23.941  0.00  0.00    +0.000 A 
ATOM     12  C   UNL     1      -7.374  13.753  24.123  0.00  0.00    +0.000 A 
ATOM     13  S   UNL     1      -6.899  14.883  22.929  0.00  0.00    +0.000 S 
ENDBRANCH   8   9
BRANCH   1  14
ATOM     14  C   UNL     1      -2.185  13.207  20.299  0.00  0.00    +0.000 C 
BRANCH  14  25
ATOM     15  O   UNL     1      -0.637  13.421  18.071  0.00  0.00    +0.000 OA
ATOM     16  C   UNL     1      -0.223  12.675  18.964  0.00  0.00    +0.000 C 
ATOM     17  C   UNL     1       1.135  12.029  18.832  0.00  0.00    +0.000 C 
ATOM     18  S   UNL     1       1.027  10.257  19.105  0.00  0.00    +0.000 S 
ATOM     19  C   UNL     1       0.239  10.341  20.699  0.00  0.00    +0.000 A 
ATOM     20  C   UNL     1       0.439   9.254  21.561  0.00  0.00    +0.000 A 
ATOM     21  C   UNL     1      -0.143   9.237  22.824  0.00  0.00    +0.000 A 
ATOM     22  C   UNL     1      -0.931  10.307  23.229  0.00  0.00    +0.000 A 
ATOM     23  C   UNL     1      -1.163  11.380  22.362  0.00  0.00    +0.000 A 
ATOM     24  C   UNL     1      -0.602  11.412  21.076  0.00  0.00    +0.000 A 
ATOM     25  N   UNL     1      -0.925  12.465  20.155  0.00  0.00    +0.000 N 
ENDBRANCH  14  25
ENDBRANCH   1  14
TORSDOF 3
ENDMDL
MODEL 4
REMARK VINA RESULT:      -6.2      2.064      7.052
REMARK  Name = 
REMARK  3 active torsions:
REMARK  status: ('A' for Active; 'I' for Inactive)
REMARK    1  A    between atoms: N_11  and  C_12
REMARK    2  A    between atoms: C_12  and  C_13
REMARK    3  A    between atoms: C_20  and  C_21
REMARK                            x       y       z     vdW  Elec       q    Type
REMARK                         _______ _______ _______ _____ _____    ______ ____
ROOT
ATOM      1  C   UNL     1       1.851   7.945  19.670  0.00  0.00    +0.000 C 
ATOM      2  O   UNL     1       2.164   7.315  20.687  0.00  0.00    +0.000 OA
ATOM      3  N   UNL     1       1.359   9.250  19.754  0.00  0.00    +0.000 N 
ATOM      4  C   UNL     1       1.129   9.838  21.080  0.00  0.00    +0.000 C 
ATOM      5  C   UNL     1      -0.370   9.907  21.388  0.00  0.00    +0.000 C 
ATOM      6  C   UNL     1      -1.179  10.556  20.261  0.00  0.00    +0.000 C 
ATOM      7  C   UNL     1      -0.789  10.020  18.881  0.00  0.00    +0.000 C 
ATOM      8  C   UNL     1       0.729   9.997  18.646  0.00  0.00    +0.000 C 
ENDROOT
BRANCH   8   9
ATOM      9  C   UNL     1       1.356  11.371  18.491  0.00  0.00    +0.000 A 
ATOM     10  N   UNL     1       2.599  11.611  18.116  0.00  0.00    +0.000 NA
ATOM     11  C   UNL     1       2.823  12.973  18.054  0.00  0.00    +0.000 A 
ATOM     12  C   UNL     1       1.753  13.766  18.396  0.00  0.00    +0.000 A 
ATOM     13  S   UNL     1       0.412  12.783  18.805  0.00  0.00    +0.000 S 
ENDBRANCH   8   9
BRANCH   1  14
ATOM     14  C   UNL     1       1.915   7.255  18.288  0.00  0.00    +0.000 C 
BRANCH  14  25
ATOM     15  O   UNL     1       4.393   7.723  17.268  0.00  0.00    +0.000 OA
ATOM     16  C   UNL     1       4.152   6.567  17.629  0.00  0.00    +0.000 C 
ATOM     17  C   UNL     1       5.246   5.528  17.596  0.00  0.00    +0.000 C 
ATOM     18  S   UNL     1       4.701   4.054  16.725  0.00  0.00    +0.000 S 
ATOM     19  C   UNL     1       3.237   3.768  17.699  0.00  0.00    +0.000 A 
ATOM     20  C   UNL     1       2.771   2.449  17.767  0.00  0.00    +0.000 A 
ATOM     21  C   UNL     1       1.633   2.138  18.503  0.00  0.00    +0.000 A 
ATOM     22  C   UNL     1       0.953   3.148  19.172  0.00  0.00    +0.000 A 
ATOM     23  C   UNL     1       1.393   4.473  19.082  0.00  0.00    +0.000 A 
ATOM     24  C   UNL     1       2.528   4.815  18.331  0.00  0.00    +0.000 A 
ATOM     25  N   UNL     1       2.915   6.187  18.159  0.00  0.00    +0.000 N 
ENDBRANCH  14  25
ENDBRANCH   1  14
TORSDOF 3
ENDMDL
MODEL 5
REMARK VINA RESULT:      -6.2      2.294      7.236
REMARK  Name = 
REMARK  3 active torsions:
REMARK  status: ('A' for Active; 'I' for Inactive)
REMARK    1  A    between atoms: N_11  and  C_12
REMARK    2  A    between atoms: C_12  and  C_13
REMARK    3  A    between atoms: C_20  and  C_21
REMARK                            x       y       z     vdW  Elec       q    Type
REMARK                         _______ _______ _______ _____ _____    ______ ____
ROOT
ATOM      1  C   UNL     1       2.169   7.887  19.164  0.00  0.00    +0.000 C 
ATOM      2  O   UNL     1       2.382   7.172  20.149  0.00  0.00    +0.000 OA
ATOM      3  N   UNL     1       1.551   9.133  19.298  0.00  0.00    +0.000 N 
ATOM      4  C   UNL     1       1.070   9.548  20.622  0.00  0.00    +0.000 C 
ATOM      5  C   UNL     1      -0.458   9.467  20.691  0.00  0.00    +0.000 C 
ATOM      6  C   UNL     1      -1.145  10.176  19.520  0.00  0.00    +0.000 C 
ATOM      7  C   UNL     1      -0.502   9.832  18.174  0.00  0.00    +0.000 C 
ATOM      8  C   UNL     1       1.029   9.951  18.184  0.00  0.00    +0.000 C 
ENDROOT
BRANCH   8   9
ATOM      9  C   UNL     1       1.542  11.377  18.270  0.00  0.00    +0.000 A 
ATOM     10  N   UNL     1       2.780  11.765  18.021  0.00  0.00    +0.000 NA
ATOM     11  C   UNL     1       2.888  13.135  18.169  0.00  0.00    +0.000 A 
ATOM     12  C   UNL     1       1.734  13.783  18.543  0.00  0.00    +0.000 A 
ATOM     13  S   UNL     1       0.463  12.650  18.714  0.00  0.00    +0.000 S 
ENDBRANCH   8   9
BRANCH   1  14
ATOM     14  C   UNL     1       2.505   7.365  17.748  0.00  0.00    +0.000 C 
BRANCH  14  25
ATOM     15  O   UNL     1       1.311   4.939  18.049  0.00  0.00    +0.000 OA
ATOM     16  C   UNL     1       2.531   4.936  17.858  0.00  0.00    +0.000 C 
ATOM     17  C   UNL     1       3.262   3.626  17.690  0.00  0.00    +0.000 C 
ATOM     18  S   UNL     1       4.680   3.539  18.790  0.00  0.00    +0.000 S 
ATOM     19  C   UNL     1       5.447   5.055  18.256  0.00  0.00    +0.000 A 
ATOM     20  C   UNL     1       6.836   5.152  18.418  0.00  0.00    +0.000 A 
ATOM     21  C   UNL     1       7.514   6.302  18.031  0.00  0.00    +0.000 A 
ATOM     22  C   UNL     1       6.806   7.363  17.481  0.00  0.00    +0.000 A 
ATOM     23  C   UNL     1       5.415   7.287  17.346  0.00  0.00    +0.000 A 
ATOM     24  C   UNL     1       4.705   6.145  17.747  0.00  0.00    +0.000 A 
ATOM     25  N   UNL     1       3.270   6.113  17.700  0.00  0.00    +0.000 N 
ENDBRANCH  14  25
ENDBRANCH   1  14
TORSDOF 3
ENDMDL
MODEL 6
REMARK VINA RESULT:      -6.1      2.336      4.253
REMARK  Name = 
REMARK  3 active torsions:
REMARK  status: ('A' for Active; 'I' for Inactive)
REMARK    1  A    between atoms: N_11  and  C_12
REMARK    2  A    between atoms: C_12  and  C_13
REMARK    3  A    between atoms: C_20  and  C_21
REMARK                            x       y       z     vdW  Elec       q    Type
REMARK                         _______ _______ _______ _____ _____    ______ ____
ROOT
ATOM      1  C   UNL     1       2.933   7.328  18.341  0.00  0.00    +0.000 C 
ATOM      2  O   UNL     1       3.963   7.933  18.021  0.00  0.00    +0.000 OA
ATOM      3  N   UNL     1       2.945   5.947  18.553  0.00  0.00    +0.000 N 
ATOM      4  C   UNL     1       4.185   5.201  18.299  0.00  0.00    +0.000 C 
ATOM      5  C   UNL     1       4.068   4.385  17.008  0.00  0.00    +0.000 C 
ATOM      6  C   UNL     1       2.797   3.532  16.957  0.00  0.00    +0.000 C 
ATOM      7  C   UNL     1       1.553   4.316  17.384  0.00  0.00    +0.000 C 
ATOM      8  C   UNL     1       1.747   5.095  18.693  0.00  0.00    +0.000 C 
ENDROOT
BRANCH   8   9
ATOM      9  C   UNL     1       1.844   4.220  19.930  0.00  0.00    +0.000 A 
ATOM     10  N   UNL     1       2.505   4.520  21.034  0.00  0.00    +0.000 NA
ATOM     11  C   UNL     1       2.357   3.511  21.966  0.00  0.00    +0.000 A 
ATOM     12  C   UNL     1       1.595   2.439  21.563  0.00  0.00    +0.000 A 
ATOM     13  S   UNL     1       1.034   2.696  19.966  0.00  0.00    +0.000 S 
ENDBRANCH   8   9
BRANCH   1  14
ATOM     14  C   UNL     1       1.589   8.088  18.423  0.00  0.00    +0.000 C 
BRANCH  14  25
ATOM     15  O   UNL     1       0.792   7.348  20.916  0.00  0.00    +0.000 OA
ATOM     16  C   UNL     1       1.065   8.541  20.753  0.00  0.00    +0.000 C 
ATOM     17  C   UNL     1       1.056   9.481  21.934  0.00  0.00    +0.000 C 
ATOM     18  S   UNL     1       0.060  10.936  21.585  0.00  0.00    +0.000 S 
ATOM     19  C   UNL     1       0.900  11.405  20.087  0.00  0.00    +0.000 A 
ATOM     20  C   UNL     1       0.855  12.761  19.736  0.00  0.00    +0.000 A 
ATOM     21  C   UNL     1       1.481  13.213  18.579  0.00  0.00    +0.000 A 
ATOM     22  C   UNL     1       2.154  12.309  17.767  0.00  0.00    +0.000 A 
ATOM     23  C   UNL     1       2.175  10.949  18.093  0.00  0.00    +0.000 A 
ATOM     24  C   UNL     1       1.535  10.465  19.245  0.00  0.00    +0.000 A 
ATOM     25  N   UNL     1       1.475   9.057  19.520  0.00  0.00    +0.000 N 
ENDBRANCH  14  25
ENDBRANCH   1  14
TORSDOF 3
ENDMDL
MODEL 7
REMARK VINA RESULT:      -6.0      6.002     10.706
REMARK  Name = 
REMARK  3 active torsions:
REMARK  status: ('A' for Active; 'I' for Inactive)
REMARK    1  A    between atoms: N_11  and  C_12
REMARK    2  A    between atoms: C_12  and  C_13
REMARK    3  A    between atoms: C_20  and  C_21
REMARK                            x       y       z     vdW  Elec       q    Type
REMARK                         _______ _______ _______ _____ _____    ______ ____
ROOT
ATOM      1  C   UNL     1      -2.488  13.802  20.957  0.00  0.00    +0.000 C 
ATOM      2  O   UNL     1      -1.721  14.747  20.740  0.00  0.00    +0.000 OA
ATOM      3  N   UNL     1      -3.456  13.874  21.961  0.00  0.00    +0.000 N 
ATOM      4  C   UNL     1      -3.493  15.060  22.828  0.00  0.00    +0.000 C 
ATOM      5  C   UNL     1      -2.952  14.727  24.221  0.00  0.00    +0.000 C 
ATOM      6  C   UNL     1      -3.601  13.482  24.830  0.00  0.00    +0.000 C 
ATOM      7  C   UNL     1      -3.682  12.322  23.834  0.00  0.00    +0.000 C 
ATOM      8  C   UNL     1      -4.248  12.734  22.467  0.00  0.00    +0.000 C 
ENDROOT
BRANCH   8   9
ATOM      9  C   UNL     1      -5.729  13.065  22.481  0.00  0.00    +0.000 A 
ATOM     10  N   UNL     1      -6.631  12.522  23.279  0.00  0.00    +0.000 NA
ATOM     11  C   UNL     1      -7.874  13.077  23.039  0.00  0.00    +0.000 A 
ATOM     12  C   UNL     1      -7.916  14.031  22.049  0.00  0.00    +0.000 A 
ATOM     13  S   UNL     1      -6.351  14.253  21.393  0.00  0.00    +0.000 S 
ENDBRANCH   8   9
BRANCH   1  14
ATOM     14  C   UNL     1      -2.321  12.482  20.169  0.00  0.00    +0.000 C 
BRANCH  14  25
ATOM     15  O   UNL     1      -0.888  12.934  17.901  0.00  0.00    +0.000 OA
ATOM     16  C   UNL     1      -0.316  12.315  18.804  0.00  0.00    +0.000 C 
ATOM     17  C   UNL     1       1.142  11.953  18.657  0.00  0.00    +0.000 C 
ATOM     18  S   UNL     1       1.400  10.204  18.981  0.00  0.00    +0.000 S 
ATOM     19  C   UNL     1       0.639  10.177  20.590  0.00  0.00    +0.000 A 
ATOM     20  C   UNL     1       1.070   9.181  21.476  0.00  0.00    +0.000 A 
ATOM     21  C   UNL     1       0.525   9.086  22.752  0.00  0.00    +0.000 A 
ATOM     22  C   UNL     1      -0.456   9.987  23.147  0.00  0.00    +0.000 A 
ATOM     23  C   UNL     1      -0.915  10.963  22.256  0.00  0.00    +0.000 A 
ATOM     24  C   UNL     1      -0.395  11.068  20.957  0.00  0.00    +0.000 A 
ATOM     25  N   UNL     1      -0.941  12.005  20.016  0.00  0.00    +0.000 N 
ENDBRANCH  14  25
ENDBRANCH   1  14
TORSDOF 3
ENDMDL
MODEL 8
REMARK VINA RESULT:      -6.0      6.221      8.473
REMARK  Name = 
REMARK  3 active torsions:
REMARK  status: ('A' for Active; 'I' for Inactive)
REMARK    1  A    between atoms: N_11  and  C_12
REMARK    2  A    between atoms: C_12  and  C_13
REMARK    3  A    between atoms: C_20  and  C_21
REMARK                            x       y       z     vdW  Elec       q    Type
REMARK                         _______ _______ _______ _____ _____    ______ ____
ROOT
ATOM      1  C   UNL     1      -1.971  11.125  18.826  0.00  0.00    +0.000 C 
ATOM      2  O   UNL     1      -2.233  10.068  18.242  0.00  0.00    +0.000 OA
ATOM      3  N   UNL     1      -0.841  11.237  19.642  0.00  0.00    +0.000 N 
ATOM      4  C   UNL     1      -0.012  10.047  19.873  0.00  0.00    +0.000 C 
ATOM      5  C   UNL     1      -0.227   9.507  21.290  0.00  0.00    +0.000 C 
ATOM      6  C   UNL     1      -0.092  10.587  22.366  0.00  0.00    +0.000 C 
ATOM      7  C   UNL     1      -0.848  11.868  22.002  0.00  0.00    +0.000 C 
ATOM      8  C   UNL     1      -0.567  12.352  20.571  0.00  0.00    +0.000 C 
ENDROOT
BRANCH   8   9
ATOM      9  C   UNL     1       0.833  12.902  20.363  0.00  0.00    +0.000 A 
ATOM     10  N   UNL     1       1.678  13.238  21.321  0.00  0.00    +0.000 NA
ATOM     11  C   UNL     1       2.869  13.673  20.774  0.00  0.00    +0.000 A 
ATOM     12  C   UNL     1       2.923  13.679  19.399  0.00  0.00    +0.000 A 
ATOM     13  S   UNL     1       1.437  13.118  18.760  0.00  0.00    +0.000 S 
ENDBRANCH   8   9
BRANCH   1  14
ATOM     14  C   UNL     1      -2.949  12.319  18.732  0.00  0.00    +0.000 C 
BRANCH  14  25
ATOM     15  O   UNL     1      -4.645  11.515  16.762  0.00  0.00    +0.000 OA
ATOM     16  C   UNL     1      -5.116  11.594  17.902  0.00  0.00    +0.000 C 
ATOM     17  C   UNL     1      -6.534  11.144  18.160  0.00  0.00    +0.000 C 
ATOM     18  S   UNL     1      -7.460  12.417  19.024  0.00  0.00    +0.000 S 
ATOM     19  C   UNL     1      -6.330  12.607  20.386  0.00  0.00    +0.000 A 
ATOM     20  C   UNL     1      -6.867  13.078  21.592  0.00  0.00    +0.000 A 
ATOM     21  C   UNL     1      -6.053  13.258  22.705  0.00  0.00    +0.000 A 
ATOM     22  C   UNL     1      -4.697  12.970  22.617  0.00  0.00    +0.000 A 
ATOM     23  C   UNL     1      -4.148  12.531  21.407  0.00  0.00    +0.000 A 
ATOM     24  C   UNL     1      -4.944  12.358  20.265  0.00  0.00    +0.000 A 
ATOM     25  N   UNL     1      -4.358  12.006  19.002  0.00  0.00    +0.000 N 
ENDBRANCH  14  25
ENDBRANCH   1  14
TORSDOF 3
ENDMDL
MODEL 9
REMARK VINA RESULT:      -5.9      6.505      8.790
REMARK  Name = 
REMARK  3 active torsions:
REMARK  status: ('A' for Active; 'I' for Inactive)
REMARK    1  A    between atoms: N_11  and  C_12
REMARK    2  A    between atoms: C_12  and  C_13
REMARK    3  A    between atoms: C_20  and  C_21
REMARK                            x       y       z     vdW  Elec       q    Type
REMARK                         _______ _______ _______ _____ _____    ______ ____
ROOT
ATOM      1  C   UNL     1      -2.428  11.897  19.314  0.00  0.00    +0.000 C 
ATOM      2  O   UNL     1      -2.905  11.072  18.528  0.00  0.00    +0.000 OA
ATOM      3  N   UNL     1      -1.121  11.766  19.792  0.00  0.00    +0.000 N 
ATOM      4  C   UNL     1      -0.346  10.575  19.420  0.00  0.00    +0.000 C 
ATOM      5  C   UNL     1      -0.225   9.616  20.608  0.00  0.00    +0.000 C 
ATOM      6  C   UNL     1       0.258  10.309  21.885  0.00  0.00    +0.000 C 
ATOM      7  C   UNL     1      -0.474  11.629  22.144  0.00  0.00    +0.000 C 
ATOM      8  C   UNL     1      -0.539  12.539  20.908  0.00  0.00    +0.000 C 
ENDROOT
BRANCH   8   9
ATOM      9  C   UNL     1       0.795  13.146  20.511  0.00  0.00    +0.000 A 
ATOM     10  N   UNL     1       1.886  13.160  21.255  0.00  0.00    +0.000 NA
ATOM     11  C   UNL     1       2.921  13.768  20.571  0.00  0.00    +0.000 A 
ATOM     12  C   UNL     1       2.610  14.227  19.313  0.00  0.00    +0.000 A 
ATOM     13  S   UNL     1       0.970  13.887  18.961  0.00  0.00    +0.000 S 
ENDBRANCH   8   9
BRANCH   1  14
ATOM     14  C   UNL     1      -3.311  13.046  19.853  0.00  0.00    +0.000 C 
BRANCH  14  25
ATOM     15  O   UNL     1      -5.551  12.812  18.327  0.00  0.00    +0.000 OA
ATOM     16  C   UNL     1      -5.668  12.548  19.528  0.00  0.00    +0.000 C 
ATOM     17  C   UNL     1      -6.978  12.012  20.054  0.00  0.00    +0.000 C 
ATOM     18  S   UNL     1      -7.531  12.962  21.475  0.00  0.00    +0.000 S 
ATOM     19  C   UNL     1      -6.047  12.773  22.440  0.00  0.00    +0.000 A 
ATOM     20  C   UNL     1      -6.181  12.863  23.832  0.00  0.00    +0.000 A 
ATOM     21  C   UNL     1      -5.072  12.731  24.660  0.00  0.00    +0.000 A 
ATOM     22  C   UNL     1      -3.821  12.509  24.098  0.00  0.00    +0.000 A 
ATOM     23  C   UNL     1      -3.673  12.450  22.708  0.00  0.00    +0.000 A 
ATOM     24  C   UNL     1      -4.774  12.599  21.850  0.00  0.00    +0.000 A 
ATOM     25  N   UNL     1      -4.600  12.639  20.426  0.00  0.00    +0.000 N 
ENDBRANCH  14  25
ENDBRANCH   1  14
TORSDOF 3
ENDMDL
