MODEL 1
REMARK VINA RESULT:      -7.5      0.000      0.000
REMARK  Name = 
REMARK  3 active torsions:
REMARK  status: ('A' for Active; 'I' for Inactive)
REMARK    1  A    between atoms: C_1  and  C_2
REMARK    2  A    between atoms: C_5  and  N_6
REMARK    3  A    between atoms: C_17  and  O_18
REMARK                            x       y       z     vdW  Elec       q    Type
REMARK                         _______ _______ _______ _____ _____    ______ ____
ROOT
ATOM      1  N   UNL     1       4.713   3.100  16.887  0.00  0.00    +0.000 N 
ATOM      2  C   UNL     1       5.678   4.039  16.554  0.00  0.00    +0.000 A 
ATOM      3  N   UNL     1       6.182   4.867  17.421  0.00  0.00    +0.000 NA
ATOM      4  C   UNL     1       7.095   5.812  17.041  0.00  0.00    +0.000 A 
ATOM      5  N   UNL     1       7.555   6.010  15.848  0.00  0.00    +0.000 NA
ATOM      6  N   UNL     1       7.059   5.158  14.942  0.00  0.00    +0.000 N 
ATOM      7  C   UNL     1       7.362   5.157  13.609  0.00  0.00    +0.000 A 
ATOM      8  C   UNL     1       6.669   4.127  13.011  0.00  0.00    +0.000 A 
ATOM      9  C   UNL     1       5.910   3.489  14.027  0.00  0.00    +0.000 A 
ATOM     10  C   UNL     1       6.163   4.164  15.206  0.00  0.00    +0.000 A 
ATOM     11  H   UNL     1       4.379   2.538  16.117  0.00  0.00    +0.000 HD
ENDROOT
BRANCH   1  16
ATOM     12  C   UNL     1       1.085   2.980  21.351  0.00  0.00    +0.000 C 
ATOM     13  C   UNL     1       2.048   3.057  20.204  0.00  0.00    +0.000 A 
ATOM     14  C   UNL     1       1.634   3.583  18.982  0.00  0.00    +0.000 A 
ATOM     15  C   UNL     1       2.512   3.636  17.897  0.00  0.00    +0.000 A 
ATOM     16  C   UNL     1       3.820   3.144  17.982  0.00  0.00    +0.000 A 
ATOM     17  C   UNL     1       4.247   2.661  19.230  0.00  0.00    +0.000 A 
ATOM     18  C   UNL     1       3.366   2.615  20.319  0.00  0.00    +0.000 A 
BRANCH  18  19
ATOM     19  O   UNL     1       3.779   2.119  21.526  0.00  0.00    +0.000 OA
ATOM     20  H   UNL     1       3.197   1.388  21.782  0.00  0.00    +0.000 HD
ENDBRANCH  18  19
ENDBRANCH   1  16
TORSDOF 2
ENDMDL
MODEL 2
REMARK VINA RESULT:      -7.4      1.156      1.543
REMARK  Name = 
REMARK  3 active torsions:
REMARK  status: ('A' for Active; 'I' for Inactive)
REMARK    1  A    between atoms: C_1  and  C_2
REMARK    2  A    between atoms: C_5  and  N_6
REMARK    3  A    between atoms: C_17  and  O_18
REMARK                            x       y       z     vdW  Elec       q    Type
REMARK                         _______ _______ _______ _____ _____    ______ ____
ROOT
ATOM      1  N   UNL     1       4.818   2.866  16.877  0.00  0.00    +0.000 N 
ATOM      2  C   UNL     1       5.726   3.875  16.592  0.00  0.00    +0.000 A 
ATOM      3  N   UNL     1       6.185   4.685  17.500  0.00  0.00    +0.000 NA
ATOM      4  C   UNL     1       7.041   5.699  17.168  0.00  0.00    +0.000 A 
ATOM      5  N   UNL     1       7.485   5.983  15.988  0.00  0.00    +0.000 NA
ATOM      6  N   UNL     1       7.037   5.152  15.039  0.00  0.00    +0.000 N 
ATOM      7  C   UNL     1       7.335   5.235  13.708  0.00  0.00    +0.000 A 
ATOM      8  C   UNL     1       6.701   4.199  13.059  0.00  0.00    +0.000 A 
ATOM      9  C   UNL     1       5.983   3.467  14.040  0.00  0.00    +0.000 A 
ATOM     10  C   UNL     1       6.200   4.095  15.252  0.00  0.00    +0.000 A 
ATOM     11  H   UNL     1       4.514   2.325  16.079  0.00  0.00    +0.000 HD
ENDROOT
BRANCH   1  16
ATOM     12  C   UNL     1       1.050   2.851  21.225  0.00  0.00    +0.000 C 
ATOM     13  C   UNL     1       2.036   2.804  20.097  0.00  0.00    +0.000 A 
ATOM     14  C   UNL     1       3.392   3.006  20.348  0.00  0.00    +0.000 A 
ATOM     15  C   UNL     1       4.318   2.991  19.303  0.00  0.00    +0.000 A 
ATOM     16  C   UNL     1       3.926   2.804  17.973  0.00  0.00    +0.000 A 
ATOM     17  C   UNL     1       2.565   2.551  17.731  0.00  0.00    +0.000 A 
ATOM     18  C   UNL     1       1.639   2.560  18.782  0.00  0.00    +0.000 A 
BRANCH  18  19
ATOM     19  O   UNL     1       0.310   2.339  18.538  0.00  0.00    +0.000 OA
ATOM     20  H   UNL     1       0.207   1.474  18.115  0.00  0.00    +0.000 HD
ENDBRANCH  18  19
ENDBRANCH   1  16
TORSDOF 2
ENDMDL
MODEL 3
REMARK VINA RESULT:      -7.3      3.894      4.292
REMARK  Name = 
REMARK  3 active torsions:
REMARK  status: ('A' for Active; 'I' for Inactive)
REMARK    1  A    between atoms: C_1  and  C_2
REMARK    2  A    between atoms: C_5  and  N_6
REMARK    3  A    between atoms: C_17  and  O_18
REMARK                            x       y       z     vdW  Elec       q    Type
REMARK                         _______ _______ _______ _____ _____    ______ ____
ROOT
ATOM      1  N   UNL     1       3.642   5.914  17.659  0.00  0.00    +0.000 N 
ATOM      2  C   UNL     1       4.965   6.053  17.266  0.00  0.00    +0.000 A 
ATOM      3  N   UNL     1       5.782   6.892  17.831  0.00  0.00    +0.000 NA
ATOM      4  C   UNL     1       7.065   7.035  17.379  0.00  0.00    +0.000 A 
ATOM      5  N   UNL     1       7.613   6.405  16.392  0.00  0.00    +0.000 NA
ATOM      6  N   UNL     1       6.793   5.525  15.804  0.00  0.00    +0.000 N 
ATOM      7  C   UNL     1       7.111   4.741  14.730  0.00  0.00    +0.000 A 
ATOM      8  C   UNL     1       6.017   3.961  14.427  0.00  0.00    +0.000 A 
ATOM      9  C   UNL     1       4.995   4.297  15.353  0.00  0.00    +0.000 A 
ATOM     10  C   UNL     1       5.504   5.280  16.180  0.00  0.00    +0.000 A 
ATOM     11  H   UNL     1       3.101   5.252  17.120  0.00  0.00    +0.000 HD
ENDROOT
BRANCH   1  16
ATOM     12  C   UNL     1       0.639   9.981  20.406  0.00  0.00    +0.000 C 
ATOM     13  C   UNL     1       1.377   8.901  19.673  0.00  0.00    +0.000 A 
ATOM     14  C   UNL     1       1.733   7.729  20.337  0.00  0.00    +0.000 A 
ATOM     15  C   UNL     1       2.444   6.725  19.674  0.00  0.00    +0.000 A 
ATOM     16  C   UNL     1       2.849   6.865  18.342  0.00  0.00    +0.000 A 
ATOM     17  C   UNL     1       2.444   8.028  17.664  0.00  0.00    +0.000 A 
ATOM     18  C   UNL     1       1.725   9.029  18.328  0.00  0.00    +0.000 A 
BRANCH  18  19
ATOM     19  O   UNL     1       1.355  10.172  17.671  0.00  0.00    +0.000 OA
ATOM     20  H   UNL     1       0.903   9.930  16.849  0.00  0.00    +0.000 HD
ENDBRANCH  18  19
ENDBRANCH   1  16
TORSDOF 2
ENDMDL
MODEL 4
REMARK VINA RESULT:      -7.2      3.669      4.013
REMARK  Name = 
REMARK  3 active torsions:
REMARK  status: ('A' for Active; 'I' for Inactive)
REMARK    1  A    between atoms: C_1  and  C_2
REMARK    2  A    between atoms: C_5  and  N_6
REMARK    3  A    between atoms: C_17  and  O_18
REMARK                            x       y       z     vdW  Elec       q    Type
REMARK                         _______ _______ _______ _____ _____    ______ ____
ROOT
ATOM      1  N   UNL     1       3.631   6.154  17.613  0.00  0.00    +0.000 N 
ATOM      2  C   UNL     1       4.964   6.215  17.237  0.00  0.00    +0.000 A 
ATOM      3  N   UNL     1       5.811   7.041  17.778  0.00  0.00    +0.000 NA
ATOM      4  C   UNL     1       7.106   7.104  17.342  0.00  0.00    +0.000 A 
ATOM      5  N   UNL     1       7.639   6.405  16.394  0.00  0.00    +0.000 NA
ATOM      6  N   UNL     1       6.788   5.537  15.832  0.00  0.00    +0.000 N 
ATOM      7  C   UNL     1       7.086   4.692  14.800  0.00  0.00    +0.000 A 
ATOM      8  C   UNL     1       5.962   3.949  14.514  0.00  0.00    +0.000 A 
ATOM      9  C   UNL     1       4.942   4.374  15.406  0.00  0.00    +0.000 A 
ATOM     10  C   UNL     1       5.484   5.369  16.197  0.00  0.00    +0.000 A 
ATOM     11  H   UNL     1       3.068   5.493  17.095  0.00  0.00    +0.000 HD
ENDROOT
BRANCH   1  16
ATOM     12  C   UNL     1       0.327  10.090  20.202  0.00  0.00    +0.000 C 
ATOM     13  C   UNL     1       1.230   9.090  19.544  0.00  0.00    +0.000 A 
ATOM     14  C   UNL     1       1.587   9.249  18.207  0.00  0.00    +0.000 A 
ATOM     15  C   UNL     1       2.406   8.310  17.573  0.00  0.00    +0.000 A 
ATOM     16  C   UNL     1       2.872   7.171  18.239  0.00  0.00    +0.000 A 
ATOM     17  C   UNL     1       2.550   7.041  19.600  0.00  0.00    +0.000 A 
ATOM     18  C   UNL     1       1.734   7.987  20.235  0.00  0.00    +0.000 A 
BRANCH  18  19
ATOM     19  O   UNL     1       1.401   7.843  21.555  0.00  0.00    +0.000 OA
ATOM     20  H   UNL     1       1.808   8.561  22.063  0.00  0.00    +0.000 HD
ENDBRANCH  18  19
ENDBRANCH   1  16
TORSDOF 2
ENDMDL
MODEL 5
REMARK VINA RESULT:      -7.1      1.069      1.164
REMARK  Name = 
REMARK  3 active torsions:
REMARK  status: ('A' for Active; 'I' for Inactive)
REMARK    1  A    between atoms: C_1  and  C_2
REMARK    2  A    between atoms: C_5  and  N_6
REMARK    3  A    between atoms: C_17  and  O_18
REMARK                            x       y       z     vdW  Elec       q    Type
REMARK                         _______ _______ _______ _____ _____    ______ ____
ROOT
ATOM      1  N   UNL     1       4.695   3.019  16.669  0.00  0.00    +0.000 N 
ATOM      2  C   UNL     1       5.676   3.950  16.365  0.00  0.00    +0.000 A 
ATOM      3  N   UNL     1       6.193   4.743  17.257  0.00  0.00    +0.000 NA
ATOM      4  C   UNL     1       7.124   5.682  16.905  0.00  0.00    +0.000 A 
ATOM      5  N   UNL     1       7.589   5.906  15.720  0.00  0.00    +0.000 NA
ATOM      6  N   UNL     1       7.080   5.090  14.788  0.00  0.00    +0.000 N 
ATOM      7  C   UNL     1       7.386   5.122  13.456  0.00  0.00    +0.000 A 
ATOM      8  C   UNL     1       6.676   4.122  12.828  0.00  0.00    +0.000 A 
ATOM      9  C   UNL     1       5.904   3.468  13.823  0.00  0.00    +0.000 A 
ATOM     10  C   UNL     1       6.167   4.104  15.022  0.00  0.00    +0.000 A 
ATOM     11  H   UNL     1       4.351   2.485  15.883  0.00  0.00    +0.000 HD
ENDROOT
BRANCH   1  16
ATOM     12  C   UNL     1       1.290   3.150  21.306  0.00  0.00    +0.000 C 
ATOM     13  C   UNL     1       2.140   3.139  20.071  0.00  0.00    +0.000 A 
ATOM     14  C   UNL     1       2.139   2.023  19.236  0.00  0.00    +0.000 A 
ATOM     15  C   UNL     1       2.947   1.989  18.096  0.00  0.00    +0.000 A 
ATOM     16  C   UNL     1       3.800   3.047  17.764  0.00  0.00    +0.000 A 
ATOM     17  C   UNL     1       3.759   4.189  18.582  0.00  0.00    +0.000 A 
ATOM     18  C   UNL     1       2.943   4.224  19.720  0.00  0.00    +0.000 A 
BRANCH  18  19
ATOM     19  O   UNL     1       2.926   5.329  20.529  0.00  0.00    +0.000 OA
ATOM     20  H   UNL     1       3.732   5.845  20.374  0.00  0.00    +0.000 HD
ENDBRANCH  18  19
ENDBRANCH   1  16
TORSDOF 2
ENDMDL
MODEL 6
REMARK VINA RESULT:      -7.0      4.093      4.608
REMARK  Name = 
REMARK  3 active torsions:
REMARK  status: ('A' for Active; 'I' for Inactive)
REMARK    1  A    between atoms: C_1  and  C_2
REMARK    2  A    between atoms: C_5  and  N_6
REMARK    3  A    between atoms: C_17  and  O_18
REMARK                            x       y       z     vdW  Elec       q    Type
REMARK                         _______ _______ _______ _____ _____    ______ ____
ROOT
ATOM      1  N   UNL     1       3.289   6.123  17.697  0.00  0.00    +0.000 N 
ATOM      2  C   UNL     1       4.568   5.652  17.951  0.00  0.00    +0.000 A 
ATOM      3  N   UNL     1       5.111   5.693  19.131  0.00  0.00    +0.000 NA
ATOM      4  C   UNL     1       6.395   5.264  19.328  0.00  0.00    +0.000 A 
ATOM      5  N   UNL     1       7.201   4.794  18.433  0.00  0.00    +0.000 NA
ATOM      6  N   UNL     1       6.657   4.730  17.211  0.00  0.00    +0.000 N 
ATOM      7  C   UNL     1       7.292   4.290  16.084  0.00  0.00    +0.000 A 
ATOM      8  C   UNL     1       6.403   4.360  15.034  0.00  0.00    +0.000 A 
ATOM      9  C   UNL     1       5.185   4.873  15.551  0.00  0.00    +0.000 A 
ATOM     10  C   UNL     1       5.383   5.106  16.899  0.00  0.00    +0.000 A 
ATOM     11  H   UNL     1       2.993   6.065  16.733  0.00  0.00    +0.000 HD
ENDROOT
BRANCH   1  16
ATOM     12  C   UNL     1       0.562  10.180  20.733  0.00  0.00    +0.000 C 
ATOM     13  C   UNL     1       1.226   9.104  19.927  0.00  0.00    +0.000 A 
ATOM     14  C   UNL     1       1.588   7.903  20.534  0.00  0.00    +0.000 A 
ATOM     15  C   UNL     1       2.232   6.902  19.801  0.00  0.00    +0.000 A 
ATOM     16  C   UNL     1       2.562   7.073  18.452  0.00  0.00    +0.000 A 
ATOM     17  C   UNL     1       2.151   8.266  17.833  0.00  0.00    +0.000 A 
ATOM     18  C   UNL     1       1.499   9.265  18.568  0.00  0.00    +0.000 A 
BRANCH  18  19
ATOM     19  O   UNL     1       1.124  10.436  17.967  0.00  0.00    +0.000 OA
ATOM     20  H   UNL     1       1.881  11.040  17.955  0.00  0.00    +0.000 HD
ENDBRANCH  18  19
ENDBRANCH   1  16
TORSDOF 2
ENDMDL
MODEL 7
REMARK VINA RESULT:      -6.9      1.314      1.368
REMARK  Name = 
REMARK  3 active torsions:
REMARK  status: ('A' for Active; 'I' for Inactive)
REMARK    1  A    between atoms: C_1  and  C_2
REMARK    2  A    between atoms: C_5  and  N_6
REMARK    3  A    between atoms: C_17  and  O_18
REMARK                            x       y       z     vdW  Elec       q    Type
REMARK                         _______ _______ _______ _____ _____    ______ ____
ROOT
ATOM      1  N   UNL     1       4.472   3.320  16.078  0.00  0.00    +0.000 N 
ATOM      2  C   UNL     1       5.593   4.067  15.752  0.00  0.00    +0.000 A 
ATOM      3  N   UNL     1       6.240   4.783  16.624  0.00  0.00    +0.000 NA
ATOM      4  C   UNL     1       7.312   5.545  16.250  0.00  0.00    +0.000 A 
ATOM      5  N   UNL     1       7.802   5.662  15.060  0.00  0.00    +0.000 NA
ATOM      6  N   UNL     1       7.160   4.922  14.147  0.00  0.00    +0.000 N 
ATOM      7  C   UNL     1       7.460   4.873  12.815  0.00  0.00    +0.000 A 
ATOM      8  C   UNL     1       6.590   3.992  12.210  0.00  0.00    +0.000 A 
ATOM      9  C   UNL     1       5.725   3.499  13.221  0.00  0.00    +0.000 A 
ATOM     10  C   UNL     1       6.096   4.108  14.405  0.00  0.00    +0.000 A 
ATOM     11  H   UNL     1       4.040   2.833  15.304  0.00  0.00    +0.000 HD
ENDROOT
BRANCH   1  16
ATOM     12  C   UNL     1       0.702   4.023  20.367  0.00  0.00    +0.000 C 
ATOM     13  C   UNL     1       1.721   3.834  19.284  0.00  0.00    +0.000 A 
ATOM     14  C   UNL     1       2.340   4.943  18.710  0.00  0.00    +0.000 A 
ATOM     15  C   UNL     1       3.272   4.783  17.682  0.00  0.00    +0.000 A 
ATOM     16  C   UNL     1       3.599   3.521  17.172  0.00  0.00    +0.000 A 
ATOM     17  C   UNL     1       3.010   2.405  17.789  0.00  0.00    +0.000 A 
ATOM     18  C   UNL     1       2.080   2.567  18.825  0.00  0.00    +0.000 A 
BRANCH  18  19
ATOM     19  O   UNL     1       1.489   1.477  19.405  0.00  0.00    +0.000 OA
ATOM     20  H   UNL     1       1.513   1.581  20.368  0.00  0.00    +0.000 HD
ENDBRANCH  18  19
ENDBRANCH   1  16
TORSDOF 2
ENDMDL
MODEL 8
REMARK VINA RESULT:      -6.8      4.982      6.553
REMARK  Name = 
REMARK  3 active torsions:
REMARK  status: ('A' for Active; 'I' for Inactive)
REMARK    1  A    between atoms: C_1  and  C_2
REMARK    2  A    between atoms: C_5  and  N_6
REMARK    3  A    between atoms: C_17  and  O_18
REMARK                            x       y       z     vdW  Elec       q    Type
REMARK                         _______ _______ _______ _____ _____    ______ ____
ROOT
ATOM      1  N   UNL     1       2.681   7.169  18.512  0.00  0.00    +0.000 N 
ATOM      2  C   UNL     1       1.984   7.894  19.467  0.00  0.00    +0.000 A 
ATOM      3  N   UNL     1       1.744   7.437  20.661  0.00  0.00    +0.000 NA
ATOM      4  C   UNL     1       1.009   8.164  21.556  0.00  0.00    +0.000 A 
ATOM      5  N   UNL     1       0.479   9.327  21.360  0.00  0.00    +0.000 NA
ATOM      6  N   UNL     1       0.725   9.823  20.142  0.00  0.00    +0.000 N 
ATOM      7  C   UNL     1       0.271  11.022  19.668  0.00  0.00    +0.000 A 
ATOM      8  C   UNL     1       0.746  11.186  18.385  0.00  0.00    +0.000 A 
ATOM      9  C   UNL     1       1.509  10.032  18.071  0.00  0.00    +0.000 A 
ATOM     10  C   UNL     1       1.462   9.202  19.175  0.00  0.00    +0.000 A 
ATOM     11  H   UNL     1       2.773   7.621  17.613  0.00  0.00    +0.000 HD
ENDROOT
BRANCH   1  16
ATOM     12  C   UNL     1       3.580   1.500  18.104  0.00  0.00    +0.000 C 
ATOM     13  C   UNL     1       3.326   2.970  18.258  0.00  0.00    +0.000 A 
ATOM     14  C   UNL     1       2.141   3.525  17.779  0.00  0.00    +0.000 A 
ATOM     15  C   UNL     1       1.903   4.897  17.891  0.00  0.00    +0.000 A 
ATOM     16  C   UNL     1       2.844   5.765  18.456  0.00  0.00    +0.000 A 
ATOM     17  C   UNL     1       4.015   5.193  18.982  0.00  0.00    +0.000 A 
ATOM     18  C   UNL     1       4.248   3.816  18.874  0.00  0.00    +0.000 A 
BRANCH  18  19
ATOM     19  O   UNL     1       5.402   3.267  19.364  0.00  0.00    +0.000 OA
ATOM     20  H   UNL     1       5.372   2.306  19.239  0.00  0.00    +0.000 HD
ENDBRANCH  18  19
ENDBRANCH   1  16
TORSDOF 2
ENDMDL
MODEL 9
REMARK VINA RESULT:      -6.7      3.819      4.277
REMARK  Name = 
REMARK  3 active torsions:
REMARK  status: ('A' for Active; 'I' for Inactive)
REMARK    1  A    between atoms: C_1  and  C_2
REMARK    2  A    between atoms: C_5  and  N_6
REMARK    3  A    between atoms: C_17  and  O_18
REMARK                            x       y       z     vdW  Elec       q    Type
REMARK                         _______ _______ _______ _____ _____    ______ ____
ROOT
ATOM      1  N   UNL     1       3.302   6.316  17.566  0.00  0.00    +0.000 N 
ATOM      2  C   UNL     1       4.543   5.767  17.852  0.00  0.00    +0.000 A 
ATOM      3  N   UNL     1       5.067   5.795  19.042  0.00  0.00    +0.000 NA
ATOM      4  C   UNL     1       6.316   5.286  19.271  0.00  0.00    +0.000 A 
ATOM      5  N   UNL     1       7.105   4.746  18.400  0.00  0.00    +0.000 NA
ATOM      6  N   UNL     1       6.579   4.694  17.170  0.00  0.00    +0.000 N 
ATOM      7  C   UNL     1       7.203   4.191  16.063  0.00  0.00    +0.000 A 
ATOM      8  C   UNL     1       6.339   4.299  14.996  0.00  0.00    +0.000 A 
ATOM      9  C   UNL     1       5.149   4.901  15.480  0.00  0.00    +0.000 A 
ATOM     10  C   UNL     1       5.338   5.147  16.826  0.00  0.00    +0.000 A 
ATOM     11  H   UNL     1       3.021   6.259  16.597  0.00  0.00    +0.000 HD
ENDROOT
BRANCH   1  16
ATOM     12  C   UNL     1       0.334  10.235  20.555  0.00  0.00    +0.000 C 
ATOM     13  C   UNL     1       1.151   9.237  19.792  0.00  0.00    +0.000 A 
ATOM     14  C   UNL     1       1.445   9.459  18.448  0.00  0.00    +0.000 A 
ATOM     15  C   UNL     1       2.183   8.524  17.718  0.00  0.00    +0.000 A 
ATOM     16  C   UNL     1       2.628   7.327  18.289  0.00  0.00    +0.000 A 
ATOM     17  C   UNL     1       2.371   7.131  19.657  0.00  0.00    +0.000 A 
ATOM     18  C   UNL     1       1.637   8.073  20.389  0.00  0.00    +0.000 A 
BRANCH  18  19
ATOM     19  O   UNL     1       1.367   7.866  21.715  0.00  0.00    +0.000 OA
ATOM     20  H   UNL     1       2.181   7.992  22.226  0.00  0.00    +0.000 HD
ENDBRANCH  18  19
ENDBRANCH   1  16
TORSDOF 2
ENDMDL
