MODEL 1
REMARK VINA RESULT:      -8.0      0.000      0.000
REMARK  Name = 
REMARK  4 active torsions:
REMARK  status: ('A' for Active; 'I' for Inactive)
REMARK    1  A    between atoms: N_1  and  C_2
REMARK    2  A    between atoms: C_13  and  N_14
REMARK    3  A    between atoms: N_14  and  C_15
REMARK    4  A    between atoms: C_20  and  N_21
REMARK                            x       y       z     vdW  Elec       q    Type
REMARK                         _______ _______ _______ _____ _____    ______ ____
ROOT
ATOM      1  C   UNL     1       1.707   2.565  18.510  0.00  0.00    +0.000 A 
ATOM      2  C   UNL     1       2.561   2.616  17.404  0.00  0.00    +0.000 A 
ATOM      3  C   UNL     1       3.446   3.687  17.221  0.00  0.00    +0.000 A 
ATOM      4  C   UNL     1       3.453   4.754  18.125  0.00  0.00    +0.000 A 
ATOM      5  C   UNL     1       2.557   4.727  19.194  0.00  0.00    +0.000 A 
ATOM      6  C   UNL     1       1.690   3.646  19.389  0.00  0.00    +0.000 A 
ATOM      7  C   UNL     1       2.457   5.877  20.108  0.00  0.00    +0.000 C 
ATOM      8  O   UNL     1       2.447   5.681  21.319  0.00  0.00    +0.000 OA
ATOM      9  C   UNL     1       2.238   7.235  19.552  0.00  0.00    +0.000 A 
ATOM     10  C   UNL     1       1.373   8.056  20.295  0.00  0.00    +0.000 A 
ATOM     11  C   UNL     1       0.949   9.290  19.796  0.00  0.00    +0.000 A 
ATOM     12  C   UNL     1       1.404   9.744  18.557  0.00  0.00    +0.000 A 
ATOM     13  C   UNL     1       2.291   8.931  17.837  0.00  0.00    +0.000 A 
ATOM     14  C   UNL     1       2.725   7.686  18.320  0.00  0.00    +0.000 A 
ATOM     15  O   UNL     1       3.576   7.050  17.456  0.00  0.00    +0.000 OA
ATOM     16  C   UNL     1       4.335   5.950  17.945  0.00  0.00    +0.000 C 
ENDROOT
BRANCH   1  17
ATOM     17  N   UNL     1       0.717   1.581  18.592  0.00  0.00    +0.000 N 
ATOM     18  H   UNL     1      -0.219   1.913  18.378  0.00  0.00    +0.000 HD
ATOM     19  H   UNL     1       0.945   0.722  18.101  0.00  0.00    +0.000 HD
ENDBRANCH   1  17
BRANCH  12  20
ATOM     20  N   UNL     1       0.926  10.963  18.031  0.00  0.00    +0.000 N 
ATOM     21  H   UNL     1       0.042  10.870  17.541  0.00  0.00    +0.000 HD
BRANCH  20  22
ATOM     22  C   UNL     1       1.010  12.257  18.613  0.00  0.00    +0.000 A 
ATOM     23  C   UNL     1       2.125  12.646  19.372  0.00  0.00    +0.000 A 
ATOM     24  C   UNL     1       2.188  13.907  19.965  0.00  0.00    +0.000 A 
ATOM     25  C   UNL     1       1.137  14.801  19.798  0.00  0.00    +0.000 A 
ATOM     26  C   UNL     1       0.021  14.434  19.046  0.00  0.00    +0.000 A 
ATOM     27  C   UNL     1      -0.082  13.152  18.489  0.00  0.00    +0.000 A 
BRANCH  27  28
ATOM     28  N   UNL     1      -1.156  12.872  17.629  0.00  0.00    +0.000 N 
ATOM     29  H   UNL     1      -1.635  11.999  17.815  0.00  0.00    +0.000 HD
ATOM     30  H   UNL     1      -0.953  13.039  16.650  0.00  0.00    +0.000 HD
ENDBRANCH  27  28
ENDBRANCH  20  22
ENDBRANCH  12  20
TORSDOF 4
ENDMDL
MODEL 2
REMARK VINA RESULT:      -8.0      2.381      8.210
REMARK  Name = 
REMARK  4 active torsions:
REMARK  status: ('A' for Active; 'I' for Inactive)
REMARK    1  A    between atoms: N_1  and  C_2
REMARK    2  A    between atoms: C_13  and  N_14
REMARK    3  A    between atoms: N_14  and  C_15
REMARK    4  A    between atoms: C_20  and  N_21
REMARK                            x       y       z     vdW  Elec       q    Type
REMARK                         _______ _______ _______ _____ _____    ______ ____
ROOT
ATOM      1  C   UNL     1      -2.269  11.696  18.032  0.00  0.00    +0.000 A 
ATOM      2  C   UNL     1      -2.575  11.989  19.364  0.00  0.00    +0.000 A 
ATOM      3  C   UNL     1      -1.631  11.800  20.382  0.00  0.00    +0.000 A 
ATOM      4  C   UNL     1      -0.374  11.265  20.084  0.00  0.00    +0.000 A 
ATOM      5  C   UNL     1      -0.095  10.919  18.762  0.00  0.00    +0.000 A 
ATOM      6  C   UNL     1      -1.030  11.129  17.743  0.00  0.00    +0.000 A 
ATOM      7  C   UNL     1       1.174  10.255  18.421  0.00  0.00    +0.000 C 
ATOM      8  O   UNL     1       1.823  10.660  17.461  0.00  0.00    +0.000 OA
ATOM      9  C   UNL     1       1.580   9.032  19.156  0.00  0.00    +0.000 A 
ATOM     10  C   UNL     1       2.198   8.041  18.376  0.00  0.00    +0.000 A 
ATOM     11  C   UNL     1       2.473   6.778  18.906  0.00  0.00    +0.000 A 
ATOM     12  C   UNL     1       2.163   6.488  20.236  0.00  0.00    +0.000 A 
ATOM     13  C   UNL     1       1.573   7.494  21.015  0.00  0.00    +0.000 A 
ATOM     14  C   UNL     1       1.285   8.768  20.498  0.00  0.00    +0.000 A 
ATOM     15  O   UNL     1       0.700   9.593  21.420  0.00  0.00    +0.000 OA
ATOM     16  C   UNL     1       0.649  10.988  21.141  0.00  0.00    +0.000 C 
ENDROOT
BRANCH   1  17
ATOM     17  N   UNL     1      -3.269  11.730  17.054  0.00  0.00    +0.000 N 
ATOM     18  H   UNL     1      -3.197  12.512  16.411  0.00  0.00    +0.000 HD
ATOM     19  H   UNL     1      -3.408  10.846  16.574  0.00  0.00    +0.000 HD
ENDBRANCH   1  17
BRANCH  12  20
ATOM     20  N   UNL     1       2.387   5.192  20.749  0.00  0.00    +0.000 N 
ATOM     21  H   UNL     1       1.790   4.963  21.537  0.00  0.00    +0.000 HD
BRANCH  20  22
ATOM     22  C   UNL     1       2.689   4.007  20.024  0.00  0.00    +0.000 A 
ATOM     23  C   UNL     1       3.995   3.731  19.588  0.00  0.00    +0.000 A 
ATOM     24  C   UNL     1       4.279   2.580  18.852  0.00  0.00    +0.000 A 
ATOM     25  C   UNL     1       3.258   1.686  18.549  0.00  0.00    +0.000 A 
ATOM     26  C   UNL     1       1.956   1.942  18.975  0.00  0.00    +0.000 A 
ATOM     27  C   UNL     1       1.644   3.120  19.669  0.00  0.00    +0.000 A 
BRANCH  27  28
ATOM     28  N   UNL     1       0.350   3.272  20.195  0.00  0.00    +0.000 N 
ATOM     29  H   UNL     1      -0.354   2.681  19.772  0.00  0.00    +0.000 HD
ATOM     30  H   UNL     1       0.069   4.238  20.319  0.00  0.00    +0.000 HD
ENDBRANCH  27  28
ENDBRANCH  20  22
ENDBRANCH  12  20
TORSDOF 4
ENDMDL
MODEL 3
REMARK VINA RESULT:      -7.9      1.550      2.042
REMARK  Name = 
REMARK  4 active torsions:
REMARK  status: ('A' for Active; 'I' for Inactive)
REMARK    1  A    between atoms: N_1  and  C_2
REMARK    2  A    between atoms: C_13  and  N_14
REMARK    3  A    between atoms: N_14  and  C_15
REMARK    4  A    between atoms: C_20  and  N_21
REMARK                            x       y       z     vdW  Elec       q    Type
REMARK                         _______ _______ _______ _____ _____    ______ ____
ROOT
ATOM      1  C   UNL     1       1.825   2.660  18.422  0.00  0.00    +0.000 A 
ATOM      2  C   UNL     1       2.594   2.835  17.267  0.00  0.00    +0.000 A 
ATOM      3  C   UNL     1       3.386   3.977  17.090  0.00  0.00    +0.000 A 
ATOM      4  C   UNL     1       3.382   4.990  18.055  0.00  0.00    +0.000 A 
ATOM      5  C   UNL     1       2.568   4.838  19.176  0.00  0.00    +0.000 A 
ATOM      6  C   UNL     1       1.795   3.687  19.363  0.00  0.00    +0.000 A 
ATOM      7  C   UNL     1       2.452   5.925  20.163  0.00  0.00    +0.000 C 
ATOM      8  O   UNL     1       2.540   5.662  21.358  0.00  0.00    +0.000 OA
ATOM      9  C   UNL     1       2.100   7.292  19.705  0.00  0.00    +0.000 A 
ATOM     10  C   UNL     1       1.234   8.004  20.551  0.00  0.00    +0.000 A 
ATOM     11  C   UNL     1       0.690   9.229  20.157  0.00  0.00    +0.000 A 
ATOM     12  C   UNL     1       1.024   9.783  18.920  0.00  0.00    +0.000 A 
ATOM     13  C   UNL     1       1.913   9.079  18.095  0.00  0.00    +0.000 A 
ATOM     14  C   UNL     1       2.466   7.845  18.473  0.00  0.00    +0.000 A 
ATOM     15  O   UNL     1       3.297   7.322  17.518  0.00  0.00    +0.000 OA
ATOM     16  C   UNL     1       4.163   6.256  17.889  0.00  0.00    +0.000 C 
ENDROOT
BRANCH   1  17
ATOM     17  N   UNL     1       0.914   1.602  18.510  0.00  0.00    +0.000 N 
ATOM     18  H   UNL     1       0.973   1.072  19.374  0.00  0.00    +0.000 HD
ATOM     19  H   UNL     1      -0.041   1.858  18.277  0.00  0.00    +0.000 HD
ENDBRANCH   1  17
BRANCH  12  20
ATOM     20  N   UNL     1       0.426  10.990  18.501  0.00  0.00    +0.000 N 
ATOM     21  H   UNL     1       0.687  11.263  17.559  0.00  0.00    +0.000 HD
BRANCH  20  22
ATOM     22  C   UNL     1      -0.888  11.456  18.781  0.00  0.00    +0.000 A 
ATOM     23  C   UNL     1      -1.149  12.289  19.881  0.00  0.00    +0.000 A 
ATOM     24  C   UNL     1      -2.445  12.719  20.166  0.00  0.00    +0.000 A 
ATOM     25  C   UNL     1      -3.498  12.326  19.348  0.00  0.00    +0.000 A 
ATOM     26  C   UNL     1      -3.259  11.500  18.251  0.00  0.00    +0.000 A 
ATOM     27  C   UNL     1      -1.971  11.016  17.981  0.00  0.00    +0.000 A 
BRANCH  27  28
ATOM     28  N   UNL     1      -1.752  10.301  16.792  0.00  0.00    +0.000 N 
ATOM     29  H   UNL     1      -2.227   9.408  16.738  0.00  0.00    +0.000 HD
ATOM     30  H   UNL     1      -0.782  10.279  16.498  0.00  0.00    +0.000 HD
ENDBRANCH  27  28
ENDBRANCH  20  22
ENDBRANCH  12  20
TORSDOF 4
ENDMDL
MODEL 4
REMARK VINA RESULT:      -7.9      2.554      8.298
REMARK  Name = 
REMARK  4 active torsions:
REMARK  status: ('A' for Active; 'I' for Inactive)
REMARK    1  A    between atoms: N_1  and  C_2
REMARK    2  A    between atoms: C_13  and  N_14
REMARK    3  A    between atoms: N_14  and  C_15
REMARK    4  A    between atoms: C_20  and  N_21
REMARK                            x       y       z     vdW  Elec       q    Type
REMARK                         _______ _______ _______ _____ _____    ______ ____
ROOT
ATOM      1  C   UNL     1      -2.489  11.847  18.185  0.00  0.00    +0.000 A 
ATOM      2  C   UNL     1      -2.847  12.039  19.523  0.00  0.00    +0.000 A 
ATOM      3  C   UNL     1      -1.923  11.832  20.557  0.00  0.00    +0.000 A 
ATOM      4  C   UNL     1      -0.633  11.378  20.265  0.00  0.00    +0.000 A 
ATOM      5  C   UNL     1      -0.300  11.130  18.934  0.00  0.00    +0.000 A 
ATOM      6  C   UNL     1      -1.215  11.360  17.900  0.00  0.00    +0.000 A 
ATOM      7  C   UNL     1       1.011  10.552  18.591  0.00  0.00    +0.000 C 
ATOM      8  O   UNL     1       1.665  11.049  17.680  0.00  0.00    +0.000 OA
ATOM      9  C   UNL     1       1.456   9.306  19.262  0.00  0.00    +0.000 A 
ATOM     10  C   UNL     1       2.145   8.397  18.442  0.00  0.00    +0.000 A 
ATOM     11  C   UNL     1       2.469   7.118  18.901  0.00  0.00    +0.000 A 
ATOM     12  C   UNL     1       2.136   6.729  20.200  0.00  0.00    +0.000 A 
ATOM     13  C   UNL     1       1.474   7.654  21.020  0.00  0.00    +0.000 A 
ATOM     14  C   UNL     1       1.138   8.943  20.575  0.00  0.00    +0.000 A 
ATOM     15  O   UNL     1       0.486   9.679  21.528  0.00  0.00    +0.000 OA
ATOM     16  C   UNL     1       0.373  11.084  21.334  0.00  0.00    +0.000 C 
ENDROOT
BRANCH   1  17
ATOM     17  N   UNL     1      -3.461  11.894  17.181  0.00  0.00    +0.000 N 
ATOM     18  H   UNL     1      -3.463  11.087  16.565  0.00  0.00    +0.000 HD
ATOM     19  H   UNL     1      -4.390  12.128  17.515  0.00  0.00    +0.000 HD
ENDBRANCH   1  17
BRANCH  12  20
ATOM     20  N   UNL     1       2.410   5.416  20.638  0.00  0.00    +0.000 N 
ATOM     21  H   UNL     1       2.178   5.262  21.614  0.00  0.00    +0.000 HD
BRANCH  20  22
ATOM     22  C   UNL     1       2.248   4.203  19.914  0.00  0.00    +0.000 A 
ATOM     23  C   UNL     1       0.986   3.607  19.762  0.00  0.00    +0.000 A 
ATOM     24  C   UNL     1       0.839   2.401  19.075  0.00  0.00    +0.000 A 
ATOM     25  C   UNL     1       1.954   1.781  18.525  0.00  0.00    +0.000 A 
ATOM     26  C   UNL     1       3.215   2.358  18.664  0.00  0.00    +0.000 A 
ATOM     27  C   UNL     1       3.388   3.541  19.397  0.00  0.00    +0.000 A 
BRANCH  27  28
ATOM     28  N   UNL     1       4.650   4.158  19.397  0.00  0.00    +0.000 N 
ATOM     29  H   UNL     1       4.832   4.755  18.599  0.00  0.00    +0.000 HD
ATOM     30  H   UNL     1       5.412   3.535  19.637  0.00  0.00    +0.000 HD
ENDBRANCH  27  28
ENDBRANCH  20  22
ENDBRANCH  12  20
TORSDOF 4
ENDMDL
MODEL 5
REMARK VINA RESULT:      -7.8      5.555      6.768
REMARK  Name = 
REMARK  4 active torsions:
REMARK  status: ('A' for Active; 'I' for Inactive)
REMARK    1  A    between atoms: N_1  and  C_2
REMARK    2  A    between atoms: C_13  and  N_14
REMARK    3  A    between atoms: N_14  and  C_15
REMARK    4  A    between atoms: C_20  and  N_21
REMARK                            x       y       z     vdW  Elec       q    Type
REMARK                         _______ _______ _______ _____ _____    ______ ____
ROOT
ATOM      1  C   UNL     1       3.733   3.620  19.217  0.00  0.00    +0.000 A 
ATOM      2  C   UNL     1       2.908   4.069  18.182  0.00  0.00    +0.000 A 
ATOM      3  C   UNL     1       3.435   4.768  17.088  0.00  0.00    +0.000 A 
ATOM      4  C   UNL     1       4.799   5.071  17.039  0.00  0.00    +0.000 A 
ATOM      5  C   UNL     1       5.608   4.673  18.103  0.00  0.00    +0.000 A 
ATOM      6  C   UNL     1       5.086   3.955  19.184  0.00  0.00    +0.000 A 
ATOM      7  C   UNL     1       7.027   5.063  18.143  0.00  0.00    +0.000 C 
ATOM      8  O   UNL     1       7.874   4.217  18.413  0.00  0.00    +0.000 OA
ATOM      9  C   UNL     1       7.397   6.491  17.987  0.00  0.00    +0.000 A 
ATOM     10  C   UNL     1       8.458   6.928  18.798  0.00  0.00    +0.000 A 
ATOM     11  C   UNL     1       8.793   8.282  18.875  0.00  0.00    +0.000 A 
ATOM     12  C   UNL     1       8.092   9.226  18.121  0.00  0.00    +0.000 A 
ATOM     13  C   UNL     1       7.054   8.777  17.293  0.00  0.00    +0.000 A 
ATOM     14  C   UNL     1       6.701   7.420  17.205  0.00  0.00    +0.000 A 
ATOM     15  O   UNL     1       5.655   7.200  16.351  0.00  0.00    +0.000 OA
ATOM     16  C   UNL     1       5.403   5.866  15.923  0.00  0.00    +0.000 C 
ENDROOT
BRANCH   1  17
ATOM     17  N   UNL     1       3.176   3.075  20.378  0.00  0.00    +0.000 N 
ATOM     18  H   UNL     1       3.859   2.728  21.045  0.00  0.00    +0.000 HD
ATOM     19  H   UNL     1       2.472   3.662  20.815  0.00  0.00    +0.000 HD
ENDBRANCH   1  17
BRANCH  12  20
ATOM     20  N   UNL     1       8.395  10.599  18.249  0.00  0.00    +0.000 N 
ATOM     21  H   UNL     1       7.640  11.139  18.659  0.00  0.00    +0.000 HD
BRANCH  20  22
ATOM     22  C   UNL     1       9.642  11.189  18.592  0.00  0.00    +0.000 A 
ATOM     23  C   UNL     1      10.594  11.507  17.610  0.00  0.00    +0.000 A 
ATOM     24  C   UNL     1      11.827  12.060  17.957  0.00  0.00    +0.000 A 
ATOM     25  C   UNL     1      12.120  12.309  19.293  0.00  0.00    +0.000 A 
ATOM     26  C   UNL     1      11.187  12.002  20.282  0.00  0.00    +0.000 A 
ATOM     27  C   UNL     1       9.965  11.396  19.955  0.00  0.00    +0.000 A 
BRANCH  27  28
ATOM     28  N   UNL     1       9.002  11.230  20.964  0.00  0.00    +0.000 N 
ATOM     29  H   UNL     1       8.100  11.643  20.764  0.00  0.00    +0.000 HD
ATOM     30  H   UNL     1       9.350  11.412  21.899  0.00  0.00    +0.000 HD
ENDBRANCH  27  28
ENDBRANCH  20  22
ENDBRANCH  12  20
TORSDOF 4
ENDMDL
MODEL 6
REMARK VINA RESULT:      -7.8      0.766      1.158
REMARK  Name = 
REMARK  4 active torsions:
REMARK  status: ('A' for Active; 'I' for Inactive)
REMARK    1  A    between atoms: N_1  and  C_2
REMARK    2  A    between atoms: C_13  and  N_14
REMARK    3  A    between atoms: N_14  and  C_15
REMARK    4  A    between atoms: C_20  and  N_21
REMARK                            x       y       z     vdW  Elec       q    Type
REMARK                         _______ _______ _______ _____ _____    ______ ____
ROOT
ATOM      1  C   UNL     1       1.697   2.655  18.472  0.00  0.00    +0.000 A 
ATOM      2  C   UNL     1       2.513   2.778  17.342  0.00  0.00    +0.000 A 
ATOM      3  C   UNL     1       3.350   3.888  17.170  0.00  0.00    +0.000 A 
ATOM      4  C   UNL     1       3.347   4.922  18.111  0.00  0.00    +0.000 A 
ATOM      5  C   UNL     1       2.488   4.824  19.206  0.00  0.00    +0.000 A 
ATOM      6  C   UNL     1       1.669   3.705  19.389  0.00  0.00    +0.000 A 
ATOM      7  C   UNL     1       2.375   5.937  20.163  0.00  0.00    +0.000 C 
ATOM      8  O   UNL     1       2.412   5.698  21.366  0.00  0.00    +0.000 OA
ATOM      9  C   UNL     1       2.088   7.304  19.663  0.00  0.00    +0.000 A 
ATOM     10  C   UNL     1       1.218   8.064  20.462  0.00  0.00    +0.000 A 
ATOM     11  C   UNL     1       0.732   9.298  20.021  0.00  0.00    +0.000 A 
ATOM     12  C   UNL     1       1.129   9.812  18.785  0.00  0.00    +0.000 A 
ATOM     13  C   UNL     1       2.021   9.059  18.009  0.00  0.00    +0.000 A 
ATOM     14  C   UNL     1       2.517   7.815  18.433  0.00  0.00    +0.000 A 
ATOM     15  O   UNL     1       3.363   7.243  17.521  0.00  0.00    +0.000 OA
ATOM     16  C   UNL     1       4.178   6.156  17.946  0.00  0.00    +0.000 C 
ENDROOT
BRANCH   1  17
ATOM     17  N   UNL     1       0.747   1.632  18.550  0.00  0.00    +0.000 N 
ATOM     18  H   UNL     1      -0.198   1.954  18.734  0.00  0.00    +0.000 HD
ATOM     19  H   UNL     1       0.788   0.970  17.782  0.00  0.00    +0.000 HD
ENDBRANCH   1  17
BRANCH  12  20
ATOM     20  N   UNL     1       0.588  11.029  18.318  0.00  0.00    +0.000 N 
ATOM     21  H   UNL     1      -0.354  10.936  17.954  0.00  0.00    +0.000 HD
BRANCH  20  22
ATOM     22  C   UNL     1       0.757  12.328  18.872  0.00  0.00    +0.000 A 
ATOM     23  C   UNL     1      -0.101  12.812  19.872  0.00  0.00    +0.000 A 
ATOM     24  C   UNL     1       0.053  14.098  20.391  0.00  0.00    +0.000 A 
ATOM     25  C   UNL     1       1.074  14.914  19.919  0.00  0.00    +0.000 A 
ATOM     26  C   UNL     1       1.937  14.451  18.927  0.00  0.00    +0.000 A 
ATOM     27  C   UNL     1       1.763  13.181  18.357  0.00  0.00    +0.000 A 
BRANCH  27  28
ATOM     28  N   UNL     1       2.734  12.703  17.462  0.00  0.00    +0.000 N 
ATOM     29  H   UNL     1       3.616  12.446  17.887  0.00  0.00    +0.000 HD
ATOM     30  H   UNL     1       2.821  13.255  16.616  0.00  0.00    +0.000 HD
ENDBRANCH  27  28
ENDBRANCH  20  22
ENDBRANCH  12  20
TORSDOF 4
ENDMDL
MODEL 7
REMARK VINA RESULT:      -7.8      2.591      3.464
REMARK  Name = 
REMARK  4 active torsions:
REMARK  status: ('A' for Active; 'I' for Inactive)
REMARK    1  A    between atoms: N_1  and  C_2
REMARK    2  A    between atoms: C_13  and  N_14
REMARK    3  A    between atoms: N_14  and  C_15
REMARK    4  A    between atoms: C_20  and  N_21
REMARK                            x       y       z     vdW  Elec       q    Type
REMARK                         _______ _______ _______ _____ _____    ______ ____
ROOT
ATOM      1  C   UNL     1       1.512   4.047  19.851  0.00  0.00    +0.000 A 
ATOM      2  C   UNL     1       2.071   3.995  18.570  0.00  0.00    +0.000 A 
ATOM      3  C   UNL     1       2.618   5.137  17.972  0.00  0.00    +0.000 A 
ATOM      4  C   UNL     1       2.568   6.369  18.633  0.00  0.00    +0.000 A 
ATOM      5  C   UNL     1       1.956   6.428  19.885  0.00  0.00    +0.000 A 
ATOM      6  C   UNL     1       1.431   5.282  20.492  0.00  0.00    +0.000 A 
ATOM      7  C   UNL     1       1.788   7.721  20.569  0.00  0.00    +0.000 C 
ATOM      8  O   UNL     1       2.085   7.814  21.755  0.00  0.00    +0.000 OA
ATOM      9  C   UNL     1       1.141   8.847  19.852  0.00  0.00    +0.000 A 
ATOM     10  C   UNL     1       0.288   9.645  20.632  0.00  0.00    +0.000 A 
ATOM     11  C   UNL     1      -0.512  10.629  20.046  0.00  0.00    +0.000 A 
ATOM     12  C   UNL     1      -0.454  10.857  18.670  0.00  0.00    +0.000 A 
ATOM     13  C   UNL     1       0.422  10.076  17.903  0.00  0.00    +0.000 A 
ATOM     14  C   UNL     1       1.231   9.080  18.475  0.00  0.00    +0.000 A 
ATOM     15  O   UNL     1       2.001   8.427  17.549  0.00  0.00    +0.000 OA
ATOM     16  C   UNL     1       3.084   7.630  18.015  0.00  0.00    +0.000 C 
ENDROOT
BRANCH   1  17
ATOM     17  N   UNL     1       0.822   2.945  20.366  0.00  0.00    +0.000 N 
ATOM     18  H   UNL     1       0.779   2.917  21.380  0.00  0.00    +0.000 HD
ATOM     19  H   UNL     1      -0.084   2.786  19.936  0.00  0.00    +0.000 HD
ENDBRANCH   1  17
BRANCH  12  20
ATOM     20  N   UNL     1      -1.308  11.810  18.074  0.00  0.00    +0.000 N 
ATOM     21  H   UNL     1      -0.927  12.216  17.226  0.00  0.00    +0.000 HD
BRANCH  20  22
ATOM     22  C   UNL     1      -2.727  11.778  17.988  0.00  0.00    +0.000 A 
ATOM     23  C   UNL     1      -3.533  12.109  19.088  0.00  0.00    +0.000 A 
ATOM     24  C   UNL     1      -4.924  12.047  19.005  0.00  0.00    +0.000 A 
ATOM     25  C   UNL     1      -5.527  11.659  17.814  0.00  0.00    +0.000 A 
ATOM     26  C   UNL     1      -4.743  11.328  16.710  0.00  0.00    +0.000 A 
ATOM     27  C   UNL     1      -3.344  11.333  16.793  0.00  0.00    +0.000 A 
BRANCH  27  28
ATOM     28  N   UNL     1      -2.595  11.126  15.622  0.00  0.00    +0.000 N 
ATOM     29  H   UNL     1      -2.804  10.266  15.130  0.00  0.00    +0.000 HD
ATOM     30  H   UNL     1      -1.606  11.320  15.727  0.00  0.00    +0.000 HD
ENDBRANCH  27  28
ENDBRANCH  20  22
ENDBRANCH  12  20
TORSDOF 4
ENDMDL
MODEL 8
REMARK VINA RESULT:      -7.7      1.810      2.475
REMARK  Name = 
REMARK  4 active torsions:
REMARK  status: ('A' for Active; 'I' for Inactive)
REMARK    1  A    between atoms: N_1  and  C_2
REMARK    2  A    between atoms: C_13  and  N_14
REMARK    3  A    between atoms: N_14  and  C_15
REMARK    4  A    between atoms: C_20  and  N_21
REMARK                            x       y       z     vdW  Elec       q    Type
REMARK                         _______ _______ _______ _____ _____    ______ ____
ROOT
ATOM      1  C   UNL     1       2.126   2.598  18.474  0.00  0.00    +0.000 A 
ATOM      2  C   UNL     1       2.887   2.809  17.319  0.00  0.00    +0.000 A 
ATOM      3  C   UNL     1       3.607   3.996  17.133  0.00  0.00    +0.000 A 
ATOM      4  C   UNL     1       3.536   5.017  18.086  0.00  0.00    +0.000 A 
ATOM      5  C   UNL     1       2.729   4.827  19.207  0.00  0.00    +0.000 A 
ATOM      6  C   UNL     1       2.028   3.632  19.404  0.00  0.00    +0.000 A 
ATOM      7  C   UNL     1       2.542   5.915  20.181  0.00  0.00    +0.000 C 
ATOM      8  O   UNL     1       2.642   5.671  21.379  0.00  0.00    +0.000 OA
ATOM      9  C   UNL     1       2.108   7.252  19.707  0.00  0.00    +0.000 A 
ATOM     10  C   UNL     1       1.195   7.918  20.543  0.00  0.00    +0.000 A 
ATOM     11  C   UNL     1       0.578   9.103  20.134  0.00  0.00    +0.000 A 
ATOM     12  C   UNL     1       0.882   9.664  18.891  0.00  0.00    +0.000 A 
ATOM     13  C   UNL     1       1.816   9.007  18.077  0.00  0.00    +0.000 A 
ATOM     14  C   UNL     1       2.443   7.814  18.470  0.00  0.00    +0.000 A 
ATOM     15  O   UNL     1       3.308   7.334  17.524  0.00  0.00    +0.000 OA
ATOM     16  C   UNL     1       4.238   6.327  17.909  0.00  0.00    +0.000 C 
ENDROOT
BRANCH   1  17
ATOM     17  N   UNL     1       1.282   1.488  18.571  0.00  0.00    +0.000 N 
ATOM     18  H   UNL     1       0.654   1.371  17.782  0.00  0.00    +0.000 HD
ATOM     19  H   UNL     1       1.759   0.626  18.816  0.00  0.00    +0.000 HD
ENDBRANCH   1  17
BRANCH  12  20
ATOM     20  N   UNL     1       0.211  10.827  18.457  0.00  0.00    +0.000 N 
ATOM     21  H   UNL     1       0.703  11.323  17.721  0.00  0.00    +0.000 HD
BRANCH  20  22
ATOM     22  C   UNL     1      -1.189  11.022  18.306  0.00  0.00    +0.000 A 
ATOM     23  C   UNL     1      -1.908  10.390  17.280  0.00  0.00    +0.000 A 
ATOM     24  C   UNL     1      -3.277  10.608  17.120  0.00  0.00    +0.000 A 
ATOM     25  C   UNL     1      -3.946  11.458  17.993  0.00  0.00    +0.000 A 
ATOM     26  C   UNL     1      -3.249  12.094  19.020  0.00  0.00    +0.000 A 
ATOM     27  C   UNL     1      -1.864  11.927  19.161  0.00  0.00    +0.000 A 
BRANCH  27  28
ATOM     28  N   UNL     1      -1.228  12.476  20.287  0.00  0.00    +0.000 N 
ATOM     29  H   UNL     1      -1.841  12.670  21.070  0.00  0.00    +0.000 HD
ATOM     30  H   UNL     1      -0.577  13.221  20.069  0.00  0.00    +0.000 HD
ENDBRANCH  27  28
ENDBRANCH  20  22
ENDBRANCH  12  20
TORSDOF 4
ENDMDL
MODEL 9
REMARK VINA RESULT:      -7.6      3.040      4.473
REMARK  Name = 
REMARK  4 active torsions:
REMARK  status: ('A' for Active; 'I' for Inactive)
REMARK    1  A    between atoms: N_1  and  C_2
REMARK    2  A    between atoms: C_13  and  N_14
REMARK    3  A    between atoms: N_14  and  C_15
REMARK    4  A    between atoms: C_20  and  N_21
REMARK                            x       y       z     vdW  Elec       q    Type
REMARK                         _______ _______ _______ _____ _____    ______ ____
ROOT
ATOM      1  C   UNL     1       6.223   3.692  13.502  0.00  0.00    +0.000 A 
ATOM      2  C   UNL     1       7.228   4.665  13.519  0.00  0.00    +0.000 A 
ATOM      3  C   UNL     1       7.471   5.434  14.664  0.00  0.00    +0.000 A 
ATOM      4  C   UNL     1       6.673   5.273  15.801  0.00  0.00    +0.000 A 
ATOM      5  C   UNL     1       5.634   4.344  15.759  0.00  0.00    +0.000 A 
ATOM      6  C   UNL     1       5.407   3.559  14.623  0.00  0.00    +0.000 A 
ATOM      7  C   UNL     1       4.705   4.216  16.894  0.00  0.00    +0.000 C 
ATOM      8  O   UNL     1       4.427   3.100  17.319  0.00  0.00    +0.000 OA
ATOM      9  C   UNL     1       4.022   5.425  17.417  0.00  0.00    +0.000 A 
ATOM     10  C   UNL     1       2.686   5.237  17.808  0.00  0.00    +0.000 A 
ATOM     11  C   UNL     1       1.879   6.323  18.155  0.00  0.00    +0.000 A 
ATOM     12  C   UNL     1       2.399   7.619  18.148  0.00  0.00    +0.000 A 
ATOM     13  C   UNL     1       3.742   7.793  17.785  0.00  0.00    +0.000 A 
ATOM     14  C   UNL     1       4.567   6.714  17.429  0.00  0.00    +0.000 A 
ATOM     15  O   UNL     1       5.837   7.104  17.097  0.00  0.00    +0.000 OA
ATOM     16  C   UNL     1       6.852   6.109  17.029  0.00  0.00    +0.000 C 
ENDROOT
BRANCH   1  17
ATOM     17  N   UNL     1       5.880   3.051  12.307  0.00  0.00    +0.000 N 
ATOM     18  H   UNL     1       5.025   3.394  11.881  0.00  0.00    +0.000 HD
ATOM     19  H   UNL     1       6.644   2.982  11.641  0.00  0.00    +0.000 HD
ENDBRANCH   1  17
BRANCH  12  20
ATOM     20  N   UNL     1       1.564   8.718  18.441  0.00  0.00    +0.000 N 
ATOM     21  H   UNL     1       0.847   8.876  17.740  0.00  0.00    +0.000 HD
BRANCH  20  22
ATOM     22  C   UNL     1       1.083   9.134  19.713  0.00  0.00    +0.000 A 
ATOM     23  C   UNL     1       1.494   8.495  20.894  0.00  0.00    +0.000 A 
ATOM     24  C   UNL     1       0.996   8.890  22.136  0.00  0.00    +0.000 A 
ATOM     25  C   UNL     1       0.083   9.936  22.212  0.00  0.00    +0.000 A 
ATOM     26  C   UNL     1      -0.336  10.583  21.051  0.00  0.00    +0.000 A 
ATOM     27  C   UNL     1       0.114  10.164  19.790  0.00  0.00    +0.000 A 
BRANCH  27  28
ATOM     28  N   UNL     1      -0.226  10.929  18.662  0.00  0.00    +0.000 N 
ATOM     29  H   UNL     1      -1.218  10.981  18.466  0.00  0.00    +0.000 HD
ATOM     30  H   UNL     1       0.354  10.745  17.851  0.00  0.00    +0.000 HD
ENDBRANCH  27  28
ENDBRANCH  20  22
ENDBRANCH  12  20
TORSDOF 4
ENDMDL
