MODEL 1
REMARK VINA RESULT:      -7.2      0.000      0.000
REMARK  Name = 
REMARK  11 active torsions:
REMARK  status: ('A' for Active; 'I' for Inactive)
REMARK    1  A    between atoms: C_1  and  O_2
REMARK    2  A    between atoms: O_2  and  C_3
REMARK    3  A    between atoms: C_8  and  C_9
REMARK    4  A    between atoms: C_14  and  C_15
REMARK    5  A    between atoms: C_15  and  C_16
REMARK    6  A    between atoms: C_15  and  C_17
REMARK    7  A    between atoms: C_15  and  C_18
REMARK    8  A    between atoms: N_21  and  C_22
REMARK    9  A    between atoms: C_25  and  C_26
REMARK   10  A    between atoms: C_26  and  C_27
REMARK   11  A    between atoms: C_26  and  C_28
REMARK                            x       y       z     vdW  Elec       q    Type
REMARK                         _______ _______ _______ _____ _____    ______ ____
ROOT
ATOM      1  C   UNL     1      -0.899  11.583  20.310  0.00  0.00    +0.000 C 
ATOM      2  C   UNL     1      -2.243  12.087  19.937  0.00  0.00    +0.000 A 
ATOM      3  C   UNL     1      -2.602  11.602  18.677  0.00  0.00    +0.000 A 
ATOM      4  N   UNL     1      -3.822  11.980  18.305  0.00  0.00    +0.000 NA
ATOM      5  N   UNL     1      -4.213  12.750  19.345  0.00  0.00    +0.000 N 
ATOM      6  C   UNL     1      -3.358  12.727  20.433  0.00  0.00    +0.000 A 
ATOM      7  C   UNL     1      -1.579  10.730  18.129  0.00  0.00    +0.000 C 
ATOM      8  O   UNL     1      -1.643  10.078  17.096  0.00  0.00    +0.000 OA
ATOM      9  N   UNL     1      -0.575  10.730  19.126  0.00  0.00    +0.000 N 
ATOM     10  H   UNL     1      -5.106  13.233  19.262  0.00  0.00    +0.000 HD
ENDROOT
BRANCH   1  16
ATOM     11  C   UNL     1       0.919  13.293  19.511  0.00  0.00    +0.000 A 
ATOM     12  C   UNL     1       1.737  14.404  19.820  0.00  0.00    +0.000 A 
ATOM     13  C   UNL     1       1.712  15.009  21.072  0.00  0.00    +0.000 A 
ATOM     14  C   UNL     1       0.864  14.511  22.043  0.00  0.00    +0.000 A 
ATOM     15  C   UNL     1       0.025  13.433  21.745  0.00  0.00    +0.000 A 
ATOM     16  C   UNL     1       0.025  12.785  20.480  0.00  0.00    +0.000 A 
BRANCH  11  18
ATOM     17  C   UNL     1       2.608  12.637  17.923  0.00  0.00    +0.000 C 
ATOM     18  O   UNL     1       1.254  12.809  18.273  0.00  0.00    +0.000 OA
ENDBRANCH  11  18
ENDBRANCH   1  16
BRANCH   9  19
ATOM     19  C   UNL     1       0.404   9.710  19.199  0.00  0.00    +0.000 A 
ATOM     20  C   UNL     1       0.703   9.067  20.401  0.00  0.00    +0.000 A 
ATOM     21  C   UNL     1       1.646   8.031  20.418  0.00  0.00    +0.000 A 
ATOM     22  C   UNL     1       2.321   7.639  19.247  0.00  0.00    +0.000 A 
ATOM     23  C   UNL     1       2.045   8.322  18.069  0.00  0.00    +0.000 A 
ATOM     24  C   UNL     1       1.104   9.350  18.055  0.00  0.00    +0.000 A 
BRANCH  22  25
ATOM     25  C   UNL     1       3.283   6.461  19.284  0.00  0.00    +0.000 C 
ATOM     26  C   UNL     1       2.639   5.282  20.017  0.00  0.00    +0.000 C 
ATOM     27  C   UNL     1       3.773   6.002  17.906  0.00  0.00    +0.000 C 
ENDBRANCH  22  25
ENDBRANCH   9  19
BRANCH   6  28
ATOM     28  C   UNL     1      -3.754  13.217  21.810  0.00  0.00    +0.000 C 
ATOM     29  C   UNL     1      -5.290  13.127  21.922  0.00  0.00    +0.000 C 
ATOM     30  C   UNL     1      -3.126  12.364  22.918  0.00  0.00    +0.000 C 
ATOM     31  C   UNL     1      -3.321  14.671  22.058  0.00  0.00    +0.000 C 
ENDBRANCH   6  28
TORSDOF 5
ENDMDL
MODEL 2
REMARK VINA RESULT:      -7.1      1.069      1.768
REMARK  Name = 
REMARK  11 active torsions:
REMARK  status: ('A' for Active; 'I' for Inactive)
REMARK    1  A    between atoms: C_1  and  O_2
REMARK    2  A    between atoms: O_2  and  C_3
REMARK    3  A    between atoms: C_8  and  C_9
REMARK    4  A    between atoms: C_14  and  C_15
REMARK    5  A    between atoms: C_15  and  C_16
REMARK    6  A    between atoms: C_15  and  C_17
REMARK    7  A    between atoms: C_15  and  C_18
REMARK    8  A    between atoms: N_21  and  C_22
REMARK    9  A    between atoms: C_25  and  C_26
REMARK   10  A    between atoms: C_26  and  C_27
REMARK   11  A    between atoms: C_26  and  C_28
REMARK                            x       y       z     vdW  Elec       q    Type
REMARK                         _______ _______ _______ _____ _____    ______ ____
ROOT
ATOM      1  C   UNL     1      -1.123  11.666  19.986  0.00  0.00    +0.000 C 
ATOM      2  C   UNL     1      -2.485  12.097  19.587  0.00  0.00    +0.000 A 
ATOM      3  C   UNL     1      -2.841  11.497  18.377  0.00  0.00    +0.000 A 
ATOM      4  N   UNL     1      -4.074  11.806  17.989  0.00  0.00    +0.000 NA
ATOM      5  N   UNL     1      -4.479  12.650  18.964  0.00  0.00    +0.000 N 
ATOM      6  C   UNL     1      -3.613  12.744  20.041  0.00  0.00    +0.000 A 
ATOM      7  C   UNL     1      -1.797  10.611  17.893  0.00  0.00    +0.000 C 
ATOM      8  O   UNL     1      -1.850   9.872  16.920  0.00  0.00    +0.000 OA
ATOM      9  N   UNL     1      -0.784  10.725  18.875  0.00  0.00    +0.000 N 
ATOM     10  H   UNL     1      -5.387  13.097  18.851  0.00  0.00    +0.000 HD
ENDROOT
BRANCH   1  16
ATOM     11  C   UNL     1       0.154  13.600  21.210  0.00  0.00    +0.000 A 
ATOM     12  C   UNL     1       0.964  14.753  21.108  0.00  0.00    +0.000 A 
ATOM     13  C   UNL     1       1.381  15.252  19.877  0.00  0.00    +0.000 A 
ATOM     14  C   UNL     1       0.991  14.602  18.722  0.00  0.00    +0.000 A 
ATOM     15  C   UNL     1       0.216  13.441  18.806  0.00  0.00    +0.000 A 
ATOM     16  C   UNL     1      -0.233  12.905  20.043  0.00  0.00    +0.000 A 
BRANCH  11  18
ATOM     17  C   UNL     1      -0.552  14.540  23.314  0.00  0.00    +0.000 C 
ATOM     18  O   UNL     1      -0.228  13.425  22.515  0.00  0.00    +0.000 OA
ENDBRANCH  11  18
ENDBRANCH   1  16
BRANCH   9  19
ATOM     19  C   UNL     1       0.226   9.744  19.023  0.00  0.00    +0.000 A 
ATOM     20  C   UNL     1       0.455   9.107  20.243  0.00  0.00    +0.000 A 
ATOM     21  C   UNL     1       1.433   8.109  20.332  0.00  0.00    +0.000 A 
ATOM     22  C   UNL     1       2.213   7.750  19.217  0.00  0.00    +0.000 A 
ATOM     23  C   UNL     1       2.004   8.427  18.023  0.00  0.00    +0.000 A 
ATOM     24  C   UNL     1       1.028   9.418  17.936  0.00  0.00    +0.000 A 
BRANCH  22  25
ATOM     25  C   UNL     1       3.216   6.611  19.327  0.00  0.00    +0.000 C 
ATOM     26  C   UNL     1       2.566   5.406  20.012  0.00  0.00    +0.000 C 
ATOM     27  C   UNL     1       3.823   6.172  17.990  0.00  0.00    +0.000 C 
ENDBRANCH  22  25
ENDBRANCH   9  19
BRANCH   6  28
ATOM     28  C   UNL     1      -4.011  13.337  21.376  0.00  0.00    +0.000 C 
ATOM     29  C   UNL     1      -5.552  13.373  21.439  0.00  0.00    +0.000 C 
ATOM     30  C   UNL     1      -3.488  12.500  22.547  0.00  0.00    +0.000 C 
ATOM     31  C   UNL     1      -3.472  14.765  21.563  0.00  0.00    +0.000 C 
ENDBRANCH   6  28
TORSDOF 5
ENDMDL
MODEL 3
REMARK VINA RESULT:      -7.1      2.374      5.694
REMARK  Name = 
REMARK  11 active torsions:
REMARK  status: ('A' for Active; 'I' for Inactive)
REMARK    1  A    between atoms: C_1  and  O_2
REMARK    2  A    between atoms: O_2  and  C_3
REMARK    3  A    between atoms: C_8  and  C_9
REMARK    4  A    between atoms: C_14  and  C_15
REMARK    5  A    between atoms: C_15  and  C_16
REMARK    6  A    between atoms: C_15  and  C_17
REMARK    7  A    between atoms: C_15  and  C_18
REMARK    8  A    between atoms: N_21  and  C_22
REMARK    9  A    between atoms: C_25  and  C_26
REMARK   10  A    between atoms: C_26  and  C_27
REMARK   11  A    between atoms: C_26  and  C_28
REMARK                            x       y       z     vdW  Elec       q    Type
REMARK                         _______ _______ _______ _____ _____    ______ ____
ROOT
ATOM      1  C   UNL     1       0.015  12.274  19.081  0.00  0.00    +0.000 C 
ATOM      2  C   UNL     1      -1.445  12.370  19.324  0.00  0.00    +0.000 A 
ATOM      3  C   UNL     1      -1.713  13.418  20.209  0.00  0.00    +0.000 A 
ATOM      4  N   UNL     1      -3.013  13.588  20.430  0.00  0.00    +0.000 NA
ATOM      5  N   UNL     1      -3.562  12.597  19.693  0.00  0.00    +0.000 N 
ATOM      6  C   UNL     1      -2.668  11.921  18.879  0.00  0.00    +0.000 A 
ATOM      7  C   UNL     1      -0.499  14.115  20.594  0.00  0.00    +0.000 C 
ATOM      8  O   UNL     1      -0.416  15.129  21.273  0.00  0.00    +0.000 OA
ATOM      9  N   UNL     1       0.518  13.417  19.903  0.00  0.00    +0.000 N 
ATOM     10  H   UNL     1      -4.569  12.464  19.760  0.00  0.00    +0.000 HD
ENDROOT
BRANCH   1  16
ATOM     11  C   UNL     1       0.516  10.463  20.907  0.00  0.00    +0.000 A 
ATOM     12  C   UNL     1       1.003   9.172  21.213  0.00  0.00    +0.000 A 
ATOM     13  C   UNL     1       1.486   8.317  20.228  0.00  0.00    +0.000 A 
ATOM     14  C   UNL     1       1.490   8.741  18.913  0.00  0.00    +0.000 A 
ATOM     15  C   UNL     1       0.982  10.003  18.588  0.00  0.00    +0.000 A 
ATOM     16  C   UNL     1       0.485  10.906  19.567  0.00  0.00    +0.000 A 
BRANCH  11  18
ATOM     17  C   UNL     1      -0.916  10.846  22.808  0.00  0.00    +0.000 C 
ATOM     18  O   UNL     1       0.249  11.137  22.071  0.00  0.00    +0.000 OA
ENDBRANCH  11  18
ENDBRANCH   1  16
BRANCH   9  19
ATOM     19  C   UNL     1       1.789  13.993  19.663  0.00  0.00    +0.000 A 
ATOM     20  C   UNL     1       2.788  13.995  20.637  0.00  0.00    +0.000 A 
ATOM     21  C   UNL     1       4.046  14.535  20.339  0.00  0.00    +0.000 A 
ATOM     22  C   UNL     1       4.318  15.101  19.080  0.00  0.00    +0.000 A 
ATOM     23  C   UNL     1       3.298  15.133  18.139  0.00  0.00    +0.000 A 
ATOM     24  C   UNL     1       2.047  14.592  18.436  0.00  0.00    +0.000 A 
BRANCH  22  25
ATOM     25  C   UNL     1       5.716  15.610  18.763  0.00  0.00    +0.000 C 
ATOM     26  C   UNL     1       6.509  15.804  20.058  0.00  0.00    +0.000 C 
ATOM     27  C   UNL     1       6.512  14.717  17.805  0.00  0.00    +0.000 C 
ENDBRANCH  22  25
ENDBRANCH   9  19
BRANCH   6  28
ATOM     28  C   UNL     1      -3.101  11.031  17.732  0.00  0.00    +0.000 C 
ATOM     29  C   UNL     1      -4.613  11.241  17.513  0.00  0.00    +0.000 C 
ATOM     30  C   UNL     1      -2.360  11.377  16.436  0.00  0.00    +0.000 C 
ATOM     31  C   UNL     1      -2.841   9.544  18.019  0.00  0.00    +0.000 C 
ENDBRANCH   6  28
TORSDOF 5
ENDMDL
MODEL 4
REMARK VINA RESULT:      -7.1      2.386      5.779
REMARK  Name = 
REMARK  11 active torsions:
REMARK  status: ('A' for Active; 'I' for Inactive)
REMARK    1  A    between atoms: C_1  and  O_2
REMARK    2  A    between atoms: O_2  and  C_3
REMARK    3  A    between atoms: C_8  and  C_9
REMARK    4  A    between atoms: C_14  and  C_15
REMARK    5  A    between atoms: C_15  and  C_16
REMARK    6  A    between atoms: C_15  and  C_17
REMARK    7  A    between atoms: C_15  and  C_18
REMARK    8  A    between atoms: N_21  and  C_22
REMARK    9  A    between atoms: C_25  and  C_26
REMARK   10  A    between atoms: C_26  and  C_27
REMARK   11  A    between atoms: C_26  and  C_28
REMARK                            x       y       z     vdW  Elec       q    Type
REMARK                         _______ _______ _______ _____ _____    ______ ____
ROOT
ATOM      1  C   UNL     1       0.052  12.225  19.172  0.00  0.00    +0.000 C 
ATOM      2  C   UNL     1      -1.413  12.330  19.380  0.00  0.00    +0.000 A 
ATOM      3  C   UNL     1      -1.696  13.369  20.270  0.00  0.00    +0.000 A 
ATOM      4  N   UNL     1      -2.999  13.547  20.461  0.00  0.00    +0.000 NA
ATOM      5  N   UNL     1      -3.537  12.569  19.698  0.00  0.00    +0.000 N 
ATOM      6  C   UNL     1      -2.629  11.897  18.898  0.00  0.00    +0.000 A 
ATOM      7  C   UNL     1      -0.486  14.051  20.696  0.00  0.00    +0.000 C 
ATOM      8  O   UNL     1      -0.413  15.056  21.389  0.00  0.00    +0.000 OA
ATOM      9  N   UNL     1       0.543  13.353  20.021  0.00  0.00    +0.000 N 
ATOM     10  H   UNL     1      -4.547  12.445  19.738  0.00  0.00    +0.000 HD
ENDROOT
BRANCH   1  16
ATOM     11  C   UNL     1       0.457  10.374  20.982  0.00  0.00    +0.000 A 
ATOM     12  C   UNL     1       0.931   9.078  21.285  0.00  0.00    +0.000 A 
ATOM     13  C   UNL     1       1.469   8.246  20.309  0.00  0.00    +0.000 A 
ATOM     14  C   UNL     1       1.544   8.699  19.006  0.00  0.00    +0.000 A 
ATOM     15  C   UNL     1       1.051   9.967  18.682  0.00  0.00    +0.000 A 
ATOM     16  C   UNL     1       0.498  10.847  19.652  0.00  0.00    +0.000 A 
BRANCH  11  18
ATOM     17  C   UNL     1      -0.822  10.459  23.023  0.00  0.00    +0.000 C 
ATOM     18  O   UNL     1       0.125  11.022  22.145  0.00  0.00    +0.000 OA
ENDBRANCH  11  18
ENDBRANCH   1  16
BRANCH   9  19
ATOM     19  C   UNL     1       1.824  13.922  19.820  0.00  0.00    +0.000 A 
ATOM     20  C   UNL     1       2.764  13.990  20.849  0.00  0.00    +0.000 A 
ATOM     21  C   UNL     1       4.035  14.519  20.593  0.00  0.00    +0.000 A 
ATOM     22  C   UNL     1       4.379  15.009  19.319  0.00  0.00    +0.000 A 
ATOM     23  C   UNL     1       3.416  14.976  18.320  0.00  0.00    +0.000 A 
ATOM     24  C   UNL     1       2.152  14.447  18.577  0.00  0.00    +0.000 A 
BRANCH  22  25
ATOM     25  C   UNL     1       5.792  15.507  19.054  0.00  0.00    +0.000 C 
ATOM     26  C   UNL     1       6.374  14.800  17.827  0.00  0.00    +0.000 C 
ATOM     27  C   UNL     1       5.903  17.025  18.871  0.00  0.00    +0.000 C 
ENDBRANCH  22  25
ENDBRANCH   9  19
BRANCH   6  28
ATOM     28  C   UNL     1      -3.039  11.025  17.730  0.00  0.00    +0.000 C 
ATOM     29  C   UNL     1      -2.614   9.576  18.047  0.00  0.00    +0.000 C 
ATOM     30  C   UNL     1      -4.553  11.058  17.502  0.00  0.00    +0.000 C 
ATOM     31  C   UNL     1      -2.373  11.462  16.415  0.00  0.00    +0.000 C 
ENDBRANCH   6  28
TORSDOF 5
ENDMDL
MODEL 5
REMARK VINA RESULT:      -7.1      3.336      8.953
REMARK  Name = 
REMARK  11 active torsions:
REMARK  status: ('A' for Active; 'I' for Inactive)
REMARK    1  A    between atoms: C_1  and  O_2
REMARK    2  A    between atoms: O_2  and  C_3
REMARK    3  A    between atoms: C_8  and  C_9
REMARK    4  A    between atoms: C_14  and  C_15
REMARK    5  A    between atoms: C_15  and  C_16
REMARK    6  A    between atoms: C_15  and  C_17
REMARK    7  A    between atoms: C_15  and  C_18
REMARK    8  A    between atoms: N_21  and  C_22
REMARK    9  A    between atoms: C_25  and  C_26
REMARK   10  A    between atoms: C_26  and  C_27
REMARK   11  A    between atoms: C_26  and  C_28
REMARK                            x       y       z     vdW  Elec       q    Type
REMARK                         _______ _______ _______ _____ _____    ______ ____
ROOT
ATOM      1  C   UNL     1       3.199   6.522  19.505  0.00  0.00    +0.000 C 
ATOM      2  C   UNL     1       4.058   6.340  18.309  0.00  0.00    +0.000 A 
ATOM      3  C   UNL     1       3.659   7.217  17.297  0.00  0.00    +0.000 A 
ATOM      4  N   UNL     1       4.424   7.137  16.213  0.00  0.00    +0.000 NA
ATOM      5  N   UNL     1       5.296   6.160  16.547  0.00  0.00    +0.000 N 
ATOM      6  C   UNL     1       5.219   5.745  17.866  0.00  0.00    +0.000 A 
ATOM      7  C   UNL     1       2.557   8.060  17.724  0.00  0.00    +0.000 C 
ATOM      8  O   UNL     1       2.055   8.987  17.104  0.00  0.00    +0.000 OA
ATOM      9  N   UNL     1       2.304   7.630  19.048  0.00  0.00    +0.000 N 
ATOM     10  H   UNL     1       5.953   5.852  15.833  0.00  0.00    +0.000 HD
ENDROOT
BRANCH   1  16
ATOM     11  C   UNL     1       1.952   4.331  18.789  0.00  0.00    +0.000 A 
ATOM     12  C   UNL     1       1.277   3.154  19.182  0.00  0.00    +0.000 A 
ATOM     13  C   UNL     1       1.079   2.833  20.521  0.00  0.00    +0.000 A 
ATOM     14  C   UNL     1       1.556   3.689  21.495  0.00  0.00    +0.000 A 
ATOM     15  C   UNL     1       2.255   4.842  21.124  0.00  0.00    +0.000 A 
ATOM     16  C   UNL     1       2.472   5.206  19.768  0.00  0.00    +0.000 A 
BRANCH  11  18
ATOM     17  C   UNL     1       2.539   3.564  16.580  0.00  0.00    +0.000 C 
ATOM     18  O   UNL     1       1.870   4.471  17.427  0.00  0.00    +0.000 OA
ENDBRANCH  11  18
ENDBRANCH   1  16
BRANCH   9  19
ATOM     19  C   UNL     1       1.601   8.437  19.975  0.00  0.00    +0.000 A 
ATOM     20  C   UNL     1       1.718   8.243  21.351  0.00  0.00    +0.000 A 
ATOM     21  C   UNL     1       1.041   9.096  22.232  0.00  0.00    +0.000 A 
ATOM     22  C   UNL     1       0.220  10.135  21.756  0.00  0.00    +0.000 A 
ATOM     23  C   UNL     1       0.078  10.284  20.383  0.00  0.00    +0.000 A 
ATOM     24  C   UNL     1       0.756   9.436  19.508  0.00  0.00    +0.000 A 
BRANCH  22  25
ATOM     25  C   UNL     1      -0.442  11.090  22.738  0.00  0.00    +0.000 C 
ATOM     26  C   UNL     1      -0.518  12.494  22.133  0.00  0.00    +0.000 C 
ATOM     27  C   UNL     1      -1.838  10.655  23.199  0.00  0.00    +0.000 C 
ENDBRANCH  22  25
ENDBRANCH   9  19
BRANCH   6  28
ATOM     28  C   UNL     1       6.303   4.935  18.546  0.00  0.00    +0.000 C 
ATOM     29  C   UNL     1       5.634   3.721  19.222  0.00  0.00    +0.000 C 
ATOM     30  C   UNL     1       7.346   4.431  17.544  0.00  0.00    +0.000 C 
ATOM     31  C   UNL     1       7.055   5.747  19.612  0.00  0.00    +0.000 C 
ENDBRANCH   6  28
TORSDOF 5
ENDMDL
MODEL 6
REMARK VINA RESULT:      -7.1      1.526      2.385
REMARK  Name = 
REMARK  11 active torsions:
REMARK  status: ('A' for Active; 'I' for Inactive)
REMARK    1  A    between atoms: C_1  and  O_2
REMARK    2  A    between atoms: O_2  and  C_3
REMARK    3  A    between atoms: C_8  and  C_9
REMARK    4  A    between atoms: C_14  and  C_15
REMARK    5  A    between atoms: C_15  and  C_16
REMARK    6  A    between atoms: C_15  and  C_17
REMARK    7  A    between atoms: C_15  and  C_18
REMARK    8  A    between atoms: N_21  and  C_22
REMARK    9  A    between atoms: C_25  and  C_26
REMARK   10  A    between atoms: C_26  and  C_27
REMARK   11  A    between atoms: C_26  and  C_28
REMARK                            x       y       z     vdW  Elec       q    Type
REMARK                         _______ _______ _______ _____ _____    ______ ____
ROOT
ATOM      1  C   UNL     1       0.506  11.945  20.055  0.00  0.00    +0.000 C 
ATOM      2  C   UNL     1      -0.808  12.633  20.078  0.00  0.00    +0.000 A 
ATOM      3  C   UNL     1      -1.702  11.983  19.223  0.00  0.00    +0.000 A 
ATOM      4  N   UNL     1      -2.916  12.524  19.237  0.00  0.00    +0.000 NA
ATOM      5  N   UNL     1      -2.760  13.559  20.092  0.00  0.00    +0.000 N 
ATOM      6  C   UNL     1      -1.543  13.583  20.752  0.00  0.00    +0.000 A 
ATOM      7  C   UNL     1      -1.096  10.820  18.601  0.00  0.00    +0.000 C 
ATOM      8  O   UNL     1      -1.648   9.995  17.886  0.00  0.00    +0.000 OA
ATOM      9  N   UNL     1       0.221  10.815  19.118  0.00  0.00    +0.000 N 
ATOM     10  H   UNL     1      -3.549  14.191  20.214  0.00  0.00    +0.000 HD
ENDROOT
BRANCH   1  16
ATOM     11  C   UNL     1       2.576  13.535  20.294  0.00  0.00    +0.000 A 
ATOM     12  C   UNL     1       3.456  14.457  19.683  0.00  0.00    +0.000 A 
ATOM     13  C   UNL     1       3.327  14.819  18.346  0.00  0.00    +0.000 A 
ATOM     14  C   UNL     1       2.311  14.262  17.593  0.00  0.00    +0.000 A 
ATOM     15  C   UNL     1       1.451  13.325  18.173  0.00  0.00    +0.000 A 
ATOM     16  C   UNL     1       1.547  12.934  19.536  0.00  0.00    +0.000 A 
BRANCH  11  18
ATOM     17  C   UNL     1       3.870  14.260  22.194  0.00  0.00    +0.000 C 
ATOM     18  O   UNL     1       2.836  13.480  21.639  0.00  0.00    +0.000 OA
ENDBRANCH  11  18
ENDBRANCH   1  16
BRANCH   9  19
ATOM     19  C   UNL     1       1.025   9.650  19.105  0.00  0.00    +0.000 A 
ATOM     20  C   UNL     1       1.137   8.824  20.224  0.00  0.00    +0.000 A 
ATOM     21  C   UNL     1       1.906   7.656  20.150  0.00  0.00    +0.000 A 
ATOM     22  C   UNL     1       2.594   7.308  18.973  0.00  0.00    +0.000 A 
ATOM     23  C   UNL     1       2.509   8.165  17.884  0.00  0.00    +0.000 A 
ATOM     24  C   UNL     1       1.740   9.326  17.959  0.00  0.00    +0.000 A 
BRANCH  22  25
ATOM     25  C   UNL     1       3.359   5.995  18.901  0.00  0.00    +0.000 C 
ATOM     26  C   UNL     1       2.392   4.817  19.040  0.00  0.00    +0.000 C 
ATOM     27  C   UNL     1       4.198   5.821  17.631  0.00  0.00    +0.000 C 
ENDBRANCH  22  25
ENDBRANCH   9  19
BRANCH   6  28
ATOM     28  C   UNL     1      -1.285  14.421  21.987  0.00  0.00    +0.000 C 
ATOM     29  C   UNL     1      -0.140  15.402  21.663  0.00  0.00    +0.000 C 
ATOM     30  C   UNL     1      -2.524  15.225  22.395  0.00  0.00    +0.000 C 
ATOM     31  C   UNL     1      -0.881  13.566  23.198  0.00  0.00    +0.000 C 
ENDBRANCH   6  28
TORSDOF 5
ENDMDL
MODEL 7
REMARK VINA RESULT:      -7.0      2.746      5.859
REMARK  Name = 
REMARK  11 active torsions:
REMARK  status: ('A' for Active; 'I' for Inactive)
REMARK    1  A    between atoms: C_1  and  O_2
REMARK    2  A    between atoms: O_2  and  C_3
REMARK    3  A    between atoms: C_8  and  C_9
REMARK    4  A    between atoms: C_14  and  C_15
REMARK    5  A    between atoms: C_15  and  C_16
REMARK    6  A    between atoms: C_15  and  C_17
REMARK    7  A    between atoms: C_15  and  C_18
REMARK    8  A    between atoms: N_21  and  C_22
REMARK    9  A    between atoms: C_25  and  C_26
REMARK   10  A    between atoms: C_26  and  C_27
REMARK   11  A    between atoms: C_26  and  C_28
REMARK                            x       y       z     vdW  Elec       q    Type
REMARK                         _______ _______ _______ _____ _____    ______ ____
ROOT
ATOM      1  C   UNL     1      -2.473  13.123  20.005  0.00  0.00    +0.000 C 
ATOM      2  C   UNL     1      -3.257  12.784  21.217  0.00  0.00    +0.000 A 
ATOM      3  C   UNL     1      -2.426  12.795  22.341  0.00  0.00    +0.000 A 
ATOM      4  N   UNL     1      -3.081  12.546  23.471  0.00  0.00    +0.000 NA
ATOM      5  N   UNL     1      -4.342  12.338  23.032  0.00  0.00    +0.000 N 
ATOM      6  C   UNL     1      -4.540  12.621  21.691  0.00  0.00    +0.000 A 
ATOM      7  C   UNL     1      -1.065  13.165  21.996  0.00  0.00    +0.000 C 
ATOM      8  O   UNL     1      -0.136  13.358  22.767  0.00  0.00    +0.000 OA
ATOM      9  N   UNL     1      -1.121  13.362  20.596  0.00  0.00    +0.000 N 
ATOM     10  H   UNL     1      -5.036  12.045  23.717  0.00  0.00    +0.000 HD
ENDROOT
BRANCH   1  16
ATOM     11  C   UNL     1      -1.609  10.865  18.996  0.00  0.00    +0.000 A 
ATOM     12  C   UNL     1      -1.778   9.836  18.043  0.00  0.00    +0.000 A 
ATOM     13  C   UNL     1      -2.826   9.847  17.128  0.00  0.00    +0.000 A 
ATOM     14  C   UNL     1      -3.727  10.895  17.151  0.00  0.00    +0.000 A 
ATOM     15  C   UNL     1      -3.593  11.905  18.108  0.00  0.00    +0.000 A 
ATOM     16  C   UNL     1      -2.533  11.930  19.055  0.00  0.00    +0.000 A 
BRANCH  11  18
ATOM     17  C   UNL     1      -0.339   9.745  20.712  0.00  0.00    +0.000 C 
ATOM     18  O   UNL     1      -0.423  10.680  19.661  0.00  0.00    +0.000 OA
ENDBRANCH  11  18
ENDBRANCH   1  16
BRANCH   9  19
ATOM     19  C   UNL     1      -0.140  14.118  19.908  0.00  0.00    +0.000 A 
ATOM     20  C   UNL     1      -0.382  15.429  19.497  0.00  0.00    +0.000 A 
ATOM     21  C   UNL     1       0.634  16.155  18.862  0.00  0.00    +0.000 A 
ATOM     22  C   UNL     1       1.892  15.580  18.605  0.00  0.00    +0.000 A 
ATOM     23  C   UNL     1       2.099  14.258  18.979  0.00  0.00    +0.000 A 
ATOM     24  C   UNL     1       1.088  13.539  19.614  0.00  0.00    +0.000 A 
BRANCH  22  25
ATOM     25  C   UNL     1       2.997  16.418  17.982  0.00  0.00    +0.000 C 
ATOM     26  C   UNL     1       4.148  15.516  17.529  0.00  0.00    +0.000 C 
ATOM     27  C   UNL     1       2.541  17.293  16.808  0.00  0.00    +0.000 C 
ENDBRANCH  22  25
ENDBRANCH   9  19
BRANCH   6  28
ATOM     28  C   UNL     1      -5.911  12.798  21.074  0.00  0.00    +0.000 C 
ATOM     29  C   UNL     1      -6.916  13.054  22.216  0.00  0.00    +0.000 C 
ATOM     30  C   UNL     1      -5.949  13.986  20.107  0.00  0.00    +0.000 C 
ATOM     31  C   UNL     1      -6.360  11.558  20.284  0.00  0.00    +0.000 C 
ENDBRANCH   6  28
TORSDOF 5
ENDMDL
MODEL 8
REMARK VINA RESULT:      -7.0      1.484      2.381
REMARK  Name = 
REMARK  11 active torsions:
REMARK  status: ('A' for Active; 'I' for Inactive)
REMARK    1  A    between atoms: C_1  and  O_2
REMARK    2  A    between atoms: O_2  and  C_3
REMARK    3  A    between atoms: C_8  and  C_9
REMARK    4  A    between atoms: C_14  and  C_15
REMARK    5  A    between atoms: C_15  and  C_16
REMARK    6  A    between atoms: C_15  and  C_17
REMARK    7  A    between atoms: C_15  and  C_18
REMARK    8  A    between atoms: N_21  and  C_22
REMARK    9  A    between atoms: C_25  and  C_26
REMARK   10  A    between atoms: C_26  and  C_27
REMARK   11  A    between atoms: C_26  and  C_28
REMARK                            x       y       z     vdW  Elec       q    Type
REMARK                         _______ _______ _______ _____ _____    ______ ____
ROOT
ATOM      1  C   UNL     1       0.329  11.988  20.192  0.00  0.00    +0.000 C 
ATOM      2  C   UNL     1      -0.964  12.715  20.186  0.00  0.00    +0.000 A 
ATOM      3  C   UNL     1      -1.876  12.059  19.355  0.00  0.00    +0.000 A 
ATOM      4  N   UNL     1      -3.074  12.636  19.345  0.00  0.00    +0.000 NA
ATOM      5  N   UNL     1      -2.889  13.697  20.161  0.00  0.00    +0.000 N 
ATOM      6  C   UNL     1      -1.672  13.711  20.822  0.00  0.00    +0.000 A 
ATOM      7  C   UNL     1      -1.304  10.856  18.779  0.00  0.00    +0.000 C 
ATOM      8  O   UNL     1      -1.880  10.021  18.094  0.00  0.00    +0.000 OA
ATOM      9  N   UNL     1       0.011  10.832  19.298  0.00  0.00    +0.000 N 
ATOM     10  H   UNL     1      -3.659  14.356  20.257  0.00  0.00    +0.000 HD
ENDROOT
BRANCH   1  16
ATOM     11  C   UNL     1       2.328  13.671  20.397  0.00  0.00    +0.000 A 
ATOM     12  C   UNL     1       3.249  14.522  19.745  0.00  0.00    +0.000 A 
ATOM     13  C   UNL     1       3.258  14.674  18.363  0.00  0.00    +0.000 A 
ATOM     14  C   UNL     1       2.340  13.974  17.604  0.00  0.00    +0.000 A 
ATOM     15  C   UNL     1       1.442  13.103  18.228  0.00  0.00    +0.000 A 
ATOM     16  C   UNL     1       1.399  12.925  19.638  0.00  0.00    +0.000 A 
BRANCH  11  18
ATOM     17  C   UNL     1       3.216  14.881  22.282  0.00  0.00    +0.000 C 
ATOM     18  O   UNL     1       2.442  13.828  21.754  0.00  0.00    +0.000 OA
ENDBRANCH  11  18
ENDBRANCH   1  16
BRANCH   9  19
ATOM     19  C   UNL     1       0.781   9.644  19.331  0.00  0.00    +0.000 A 
ATOM     20  C   UNL     1       1.460   9.181  18.204  0.00  0.00    +0.000 A 
ATOM     21  C   UNL     1       2.247   8.026  18.294  0.00  0.00    +0.000 A 
ATOM     22  C   UNL     1       2.348   7.304  19.498  0.00  0.00    +0.000 A 
ATOM     23  C   UNL     1       1.628   7.753  20.597  0.00  0.00    +0.000 A 
ATOM     24  C   UNL     1       0.847   8.904  20.505  0.00  0.00    +0.000 A 
BRANCH  22  25
ATOM     25  C   UNL     1       3.270   6.097  19.584  0.00  0.00    +0.000 C 
ATOM     26  C   UNL     1       2.588   4.971  20.365  0.00  0.00    +0.000 C 
ATOM     27  C   UNL     1       3.742   5.564  18.226  0.00  0.00    +0.000 C 
ENDBRANCH  22  25
ENDBRANCH   9  19
BRANCH   6  28
ATOM     28  C   UNL     1      -1.390  14.588  22.024  0.00  0.00    +0.000 C 
ATOM     29  C   UNL     1      -2.725  15.217  22.476  0.00  0.00    +0.000 C 
ATOM     30  C   UNL     1      -0.804  13.783  23.189  0.00  0.00    +0.000 C 
ATOM     31  C   UNL     1      -0.393  15.712  21.704  0.00  0.00    +0.000 C 
ENDBRANCH   6  28
TORSDOF 5
ENDMDL
MODEL 9
REMARK VINA RESULT:      -6.9      1.565      2.444
REMARK  Name = 
REMARK  11 active torsions:
REMARK  status: ('A' for Active; 'I' for Inactive)
REMARK    1  A    between atoms: C_1  and  O_2
REMARK    2  A    between atoms: O_2  and  C_3
REMARK    3  A    between atoms: C_8  and  C_9
REMARK    4  A    between atoms: C_14  and  C_15
REMARK    5  A    between atoms: C_15  and  C_16
REMARK    6  A    between atoms: C_15  and  C_17
REMARK    7  A    between atoms: C_15  and  C_18
REMARK    8  A    between atoms: N_21  and  C_22
REMARK    9  A    between atoms: C_25  and  C_26
REMARK   10  A    between atoms: C_26  and  C_27
REMARK   11  A    between atoms: C_26  and  C_28
REMARK                            x       y       z     vdW  Elec       q    Type
REMARK                         _______ _______ _______ _____ _____    ______ ____
ROOT
ATOM      1  C   UNL     1       0.588  11.955  20.022  0.00  0.00    +0.000 C 
ATOM      2  C   UNL     1      -0.724  12.641  20.111  0.00  0.00    +0.000 A 
ATOM      3  C   UNL     1      -1.641  12.031  19.251  0.00  0.00    +0.000 A 
ATOM      4  N   UNL     1      -2.854  12.571  19.321  0.00  0.00    +0.000 NA
ATOM      5  N   UNL     1      -2.675  13.566  20.218  0.00  0.00    +0.000 N 
ATOM      6  C   UNL     1      -1.441  13.559  20.847  0.00  0.00    +0.000 A 
ATOM      7  C   UNL     1      -1.053  10.898  18.560  0.00  0.00    +0.000 C 
ATOM      8  O   UNL     1      -1.625  10.107  17.823  0.00  0.00    +0.000 OA
ATOM      9  N   UNL     1       0.277  10.869  19.042  0.00  0.00    +0.000 N 
ATOM     10  H   UNL     1      -3.460  14.192  20.389  0.00  0.00    +0.000 HD
ENDROOT
BRANCH   1  16
ATOM     11  C   UNL     1       2.692  13.498  20.266  0.00  0.00    +0.000 A 
ATOM     12  C   UNL     1       3.553  14.451  19.677  0.00  0.00    +0.000 A 
ATOM     13  C   UNL     1       3.362  14.911  18.378  0.00  0.00    +0.000 A 
ATOM     14  C   UNL     1       2.299  14.423  17.642  0.00  0.00    +0.000 A 
ATOM     15  C   UNL     1       1.455  13.456  18.197  0.00  0.00    +0.000 A 
ATOM     16  C   UNL     1       1.616  12.966  19.522  0.00  0.00    +0.000 A 
BRANCH  11  18
ATOM     17  C   UNL     1       4.157  13.985  22.117  0.00  0.00    +0.000 C 
ATOM     18  O   UNL     1       3.019  13.342  21.588  0.00  0.00    +0.000 OA
ENDBRANCH  11  18
ENDBRANCH   1  16
BRANCH   9  19
ATOM     19  C   UNL     1       1.078   9.705  18.955  0.00  0.00    +0.000 A 
ATOM     20  C   UNL     1       1.205   8.821  20.026  0.00  0.00    +0.000 A 
ATOM     21  C   UNL     1       1.971   7.658  19.879  0.00  0.00    +0.000 A 
ATOM     22  C   UNL     1       2.641   7.373  18.675  0.00  0.00    +0.000 A 
ATOM     23  C   UNL     1       2.542   8.287  17.634  0.00  0.00    +0.000 A 
ATOM     24  C   UNL     1       1.777   9.443  17.783  0.00  0.00    +0.000 A 
BRANCH  22  25
ATOM     25  C   UNL     1       3.403   6.065  18.521  0.00  0.00    +0.000 C 
ATOM     26  C   UNL     1       4.751   6.321  17.843  0.00  0.00    +0.000 C 
ATOM     27  C   UNL     1       3.626   5.306  19.835  0.00  0.00    +0.000 C 
ENDBRANCH  22  25
ENDBRANCH   9  19
BRANCH   6  28
ATOM     28  C   UNL     1      -1.149  14.340  22.111  0.00  0.00    +0.000 C 
ATOM     29  C   UNL     1      -1.019  13.333  23.272  0.00  0.00    +0.000 C 
ATOM     30  C   UNL     1       0.155  15.136  21.998  0.00  0.00    +0.000 C 
ATOM     31  C   UNL     1      -2.265  15.344  22.446  0.00  0.00    +0.000 C 
ENDBRANCH   6  28
TORSDOF 5
ENDMDL
