MODEL 1
REMARK VINA RESULT:      -6.9      0.000      0.000
REMARK  Name = 
REMARK  4 active torsions:
REMARK  status: ('A' for Active; 'I' for Inactive)
REMARK    1  A    between atoms: C_1  and  N_2
REMARK    2  A    between atoms: N_9  and  N_10
REMARK    3  A    between atoms: N_16  and  C_17
REMARK    4  A    between atoms: N_18  and  C_19
REMARK                            x       y       z     vdW  Elec       q    Type
REMARK                         _______ _______ _______ _____ _____    ______ ____
ROOT
ATOM      1  C   UNL     1       0.317  13.530  20.690  0.00  0.00    +0.000 C 
ATOM      2  N   UNL     1       0.449  12.091  20.793  0.00  0.00    +0.000 N 
ATOM      3  C   UNL     1       1.003  11.404  19.710  0.00  0.00    +0.000 A 
ATOM      4  O   UNL     1       1.373  11.936  18.667  0.00  0.00    +0.000 OA
ATOM      5  C   UNL     1       1.119  10.008  19.944  0.00  0.00    +0.000 A 
ATOM      6  C   UNL     1       0.745   9.410  21.106  0.00  0.00    +0.000 A 
ATOM      7  N   UNL     1       1.060   8.088  21.110  0.00  0.00    +0.000 NA
ATOM      8  C   UNL     1       1.645   7.859  19.946  0.00  0.00    +0.000 A 
ATOM      9  N   UNL     1       2.270   6.730  19.523  0.00  0.00    +0.000 N 
ATOM     10  N   UNL     1       1.591   8.993  19.156  0.00  0.00    +0.000 N 
ATOM     11  C   UNL     1       1.988   9.147  17.778  0.00  0.00    +0.000 C 
ATOM     12  N   UNL     1       0.150  10.122  22.120  0.00  0.00    +0.000 N 
ATOM     13  C   UNL     1      -0.332   9.476  23.324  0.00  0.00    +0.000 C 
ATOM     14  C   UNL     1      -0.023  11.498  21.979  0.00  0.00    +0.000 A 
ATOM     15  O   UNL     1      -0.568  12.175  22.860  0.00  0.00    +0.000 OA
ATOM     16  H   UNL     1       2.666   6.714  18.590  0.00  0.00    +0.000 HD
ENDROOT
BRANCH   9  17
ATOM     17  N   UNL     1       2.756   5.818  20.415  0.00  0.00    +0.000 NA
ATOM     18  C   UNL     1       2.244   4.628  20.397  0.00  0.00    +0.000 C 
ATOM     19  C   UNL     1       2.735   3.564  21.335  0.00  0.00    +0.000 C 
ATOM     20  C   UNL     1       1.491   2.698  21.439  0.00  0.00    +0.000 C 
ATOM     21  C   UNL     1       0.880   2.726  20.042  0.00  0.00    +0.000 C 
ATOM     22  C   UNL     1       1.129   4.135  19.510  0.00  0.00    +0.000 C 
ENDBRANCH   9  17
TORSDOF 1
ENDMDL
MODEL 2
REMARK VINA RESULT:      -6.3      1.785      2.977
REMARK  Name = 
REMARK  4 active torsions:
REMARK  status: ('A' for Active; 'I' for Inactive)
REMARK    1  A    between atoms: C_1  and  N_2
REMARK    2  A    between atoms: N_9  and  N_10
REMARK    3  A    between atoms: N_16  and  C_17
REMARK    4  A    between atoms: N_18  and  C_19
REMARK                            x       y       z     vdW  Elec       q    Type
REMARK                         _______ _______ _______ _____ _____    ______ ____
ROOT
ATOM      1  C   UNL     1      -2.494  12.416  22.406  0.00  0.00    +0.000 C 
ATOM      2  N   UNL     1      -1.598  11.650  21.565  0.00  0.00    +0.000 N 
ATOM      3  C   UNL     1      -0.642  10.845  22.187  0.00  0.00    +0.000 A 
ATOM      4  O   UNL     1      -0.498  10.753  23.404  0.00  0.00    +0.000 OA
ATOM      5  C   UNL     1       0.149  10.113  21.263  0.00  0.00    +0.000 A 
ATOM      6  C   UNL     1      -0.020  10.178  19.916  0.00  0.00    +0.000 A 
ATOM      7  N   UNL     1       0.790   9.302  19.268  0.00  0.00    +0.000 NA
ATOM      8  C   UNL     1       1.466   8.675  20.217  0.00  0.00    +0.000 A 
ATOM      9  N   UNL     1       2.298   7.608  20.097  0.00  0.00    +0.000 N 
ATOM     10  N   UNL     1       1.181   9.234  21.450  0.00  0.00    +0.000 N 
ATOM     11  C   UNL     1       1.788   8.947  22.727  0.00  0.00    +0.000 C 
ATOM     12  N   UNL     1      -0.938  11.031  19.349  0.00  0.00    +0.000 N 
ATOM     13  C   UNL     1      -1.062  11.172  17.913  0.00  0.00    +0.000 C 
ATOM     14  C   UNL     1      -1.752  11.806  20.174  0.00  0.00    +0.000 A 
ATOM     15  O   UNL     1      -2.579  12.598  19.707  0.00  0.00    +0.000 OA
ATOM     16  H   UNL     1       2.747   7.246  20.931  0.00  0.00    +0.000 HD
ENDROOT
BRANCH   9  17
ATOM     17  N   UNL     1       2.210   6.764  19.028  0.00  0.00    +0.000 NA
ATOM     18  C   UNL     1       1.866   5.536  19.259  0.00  0.00    +0.000 C 
ATOM     19  C   UNL     1       1.731   4.550  18.136  0.00  0.00    +0.000 C 
ATOM     20  C   UNL     1       2.011   3.253  18.877  0.00  0.00    +0.000 C 
ATOM     21  C   UNL     1       1.371   3.443  20.247  0.00  0.00    +0.000 C 
ATOM     22  C   UNL     1       1.578   4.913  20.601  0.00  0.00    +0.000 C 
ENDBRANCH   9  17
TORSDOF 1
ENDMDL
MODEL 3
REMARK VINA RESULT:      -6.3      3.049      4.133
REMARK  Name = 
REMARK  4 active torsions:
REMARK  status: ('A' for Active; 'I' for Inactive)
REMARK    1  A    between atoms: C_1  and  N_2
REMARK    2  A    between atoms: N_9  and  N_10
REMARK    3  A    between atoms: N_16  and  C_17
REMARK    4  A    between atoms: N_18  and  C_19
REMARK                            x       y       z     vdW  Elec       q    Type
REMARK                         _______ _______ _______ _____ _____    ______ ____
ROOT
ATOM      1  C   UNL     1      -4.262  12.651  19.994  0.00  0.00    +0.000 C 
ATOM      2  N   UNL     1      -3.172  11.969  19.327  0.00  0.00    +0.000 N 
ATOM      3  C   UNL     1      -1.959  11.848  20.009  0.00  0.00    +0.000 A 
ATOM      4  O   UNL     1      -1.747  12.297  21.132  0.00  0.00    +0.000 OA
ATOM      5  C   UNL     1      -0.982  11.128  19.273  0.00  0.00    +0.000 A 
ATOM      6  C   UNL     1      -1.212  10.597  18.043  0.00  0.00    +0.000 A 
ATOM      7  N   UNL     1      -0.152   9.867  17.608  0.00  0.00    +0.000 NA
ATOM      8  C   UNL     1       0.746   9.933  18.578  0.00  0.00    +0.000 A 
ATOM      9  N   UNL     1       1.917   9.255  18.691  0.00  0.00    +0.000 N 
ATOM     10  N   UNL     1       0.313  10.799  19.566  0.00  0.00    +0.000 N 
ATOM     11  C   UNL     1       1.030  11.261  20.730  0.00  0.00    +0.000 C 
ATOM     12  N   UNL     1      -2.406  10.792  17.389  0.00  0.00    +0.000 N 
ATOM     13  C   UNL     1      -2.626  10.307  16.042  0.00  0.00    +0.000 C 
ATOM     14  C   UNL     1      -3.424  11.503  18.023  0.00  0.00    +0.000 A 
ATOM     15  O   UNL     1      -4.507  11.717  17.465  0.00  0.00    +0.000 OA
ATOM     16  H   UNL     1       2.501   9.426  19.502  0.00  0.00    +0.000 HD
ENDROOT
BRANCH   9  17
ATOM     17  N   UNL     1       2.121   8.084  18.020  0.00  0.00    +0.000 NA
ATOM     18  C   UNL     1       2.144   6.991  18.715  0.00  0.00    +0.000 C 
ATOM     19  C   UNL     1       2.347   5.660  18.050  0.00  0.00    +0.000 C 
ATOM     20  C   UNL     1       2.969   4.876  19.194  0.00  0.00    +0.000 C 
ATOM     21  C   UNL     1       2.252   5.376  20.443  0.00  0.00    +0.000 C 
ATOM     22  C   UNL     1       2.004   6.865  20.211  0.00  0.00    +0.000 C 
ENDBRANCH   9  17
TORSDOF 1
ENDMDL
MODEL 4
REMARK VINA RESULT:      -6.2      3.849      7.557
REMARK  Name = 
REMARK  4 active torsions:
REMARK  status: ('A' for Active; 'I' for Inactive)
REMARK    1  A    between atoms: C_1  and  N_2
REMARK    2  A    between atoms: N_9  and  N_10
REMARK    3  A    between atoms: N_16  and  C_17
REMARK    4  A    between atoms: N_18  and  C_19
REMARK                            x       y       z     vdW  Elec       q    Type
REMARK                         _______ _______ _______ _____ _____    ______ ____
ROOT
ATOM      1  C   UNL     1       3.888   1.627  17.668  0.00  0.00    +0.000 C 
ATOM      2  N   UNL     1       3.446   2.924  18.138  0.00  0.00    +0.000 N 
ATOM      3  C   UNL     1       3.936   4.059  17.488  0.00  0.00    +0.000 A 
ATOM      4  O   UNL     1       4.732   4.034  16.553  0.00  0.00    +0.000 OA
ATOM      5  C   UNL     1       3.402   5.267  18.009  0.00  0.00    +0.000 A 
ATOM      6  C   UNL     1       2.496   5.310  19.022  0.00  0.00    +0.000 A 
ATOM      7  N   UNL     1       2.067   6.578  19.255  0.00  0.00    +0.000 NA
ATOM      8  C   UNL     1       2.703   7.334  18.375  0.00  0.00    +0.000 A 
ATOM      9  N   UNL     1       2.515   8.652  18.103  0.00  0.00    +0.000 N 
ATOM     10  N   UNL     1       3.620   6.575  17.672  0.00  0.00    +0.000 N 
ATOM     11  C   UNL     1       4.608   7.018  16.717  0.00  0.00    +0.000 C 
ATOM     12  N   UNL     1       2.087   4.167  19.668  0.00  0.00    +0.000 N 
ATOM     13  C   UNL     1       1.192   4.212  20.805  0.00  0.00    +0.000 C 
ATOM     14  C   UNL     1       2.570   2.931  19.240  0.00  0.00    +0.000 A 
ATOM     15  O   UNL     1       2.242   1.879  19.802  0.00  0.00    +0.000 OA
ATOM     16  H   UNL     1       3.095   9.089  17.396  0.00  0.00    +0.000 HD
ENDROOT
BRANCH   9  17
ATOM     17  N   UNL     1       1.338   9.273  18.406  0.00  0.00    +0.000 NA
ATOM     18  C   UNL     1       1.323  10.568  18.396  0.00  0.00    +0.000 C 
ATOM     19  C   UNL     1       0.063  11.325  18.703  0.00  0.00    +0.000 C 
ATOM     20  C   UNL     1       0.648  12.623  19.235  0.00  0.00    +0.000 C 
ATOM     21  C   UNL     1       1.891  12.866  18.386  0.00  0.00    +0.000 C 
ATOM     22  C   UNL     1       2.485  11.486  18.116  0.00  0.00    +0.000 C 
ENDBRANCH   9  17
TORSDOF 1
ENDMDL
MODEL 5
REMARK VINA RESULT:      -6.0      5.881      8.016
REMARK  Name = 
REMARK  4 active torsions:
REMARK  status: ('A' for Active; 'I' for Inactive)
REMARK    1  A    between atoms: C_1  and  N_2
REMARK    2  A    between atoms: N_9  and  N_10
REMARK    3  A    between atoms: N_16  and  C_17
REMARK    4  A    between atoms: N_18  and  C_19
REMARK                            x       y       z     vdW  Elec       q    Type
REMARK                         _______ _______ _______ _____ _____    ______ ____
ROOT
ATOM      1  C   UNL     1       2.477   4.594  21.375  0.00  0.00    +0.000 C 
ATOM      2  N   UNL     1       2.956   4.335  20.033  0.00  0.00    +0.000 N 
ATOM      3  C   UNL     1       3.350   5.427  19.256  0.00  0.00    +0.000 A 
ATOM      4  O   UNL     1       3.302   6.597  19.627  0.00  0.00    +0.000 OA
ATOM      5  C   UNL     1       3.838   5.047  17.978  0.00  0.00    +0.000 A 
ATOM      6  C   UNL     1       3.928   3.754  17.565  0.00  0.00    +0.000 A 
ATOM      7  N   UNL     1       4.526   3.660  16.348  0.00  0.00    +0.000 NA
ATOM      8  C   UNL     1       4.822   4.902  16.002  0.00  0.00    +0.000 A 
ATOM      9  N   UNL     1       5.555   5.329  14.941  0.00  0.00    +0.000 N 
ATOM     10  N   UNL     1       4.306   5.789  16.928  0.00  0.00    +0.000 N 
ATOM     11  C   UNL     1       4.282   7.231  16.874  0.00  0.00    +0.000 C 
ATOM     12  N   UNL     1       3.473   2.718  18.346  0.00  0.00    +0.000 N 
ATOM     13  C   UNL     1       3.483   1.348  17.877  0.00  0.00    +0.000 C 
ATOM     14  C   UNL     1       2.959   2.992  19.613  0.00  0.00    +0.000 A 
ATOM     15  O   UNL     1       2.525   2.092  20.342  0.00  0.00    +0.000 OA
ATOM     16  H   UNL     1       5.686   6.326  14.812  0.00  0.00    +0.000 HD
ENDROOT
BRANCH   9  17
ATOM     17  N   UNL     1       6.453   4.505  14.327  0.00  0.00    +0.000 NA
ATOM     18  C   UNL     1       6.085   3.931  13.225  0.00  0.00    +0.000 C 
ATOM     19  C   UNL     1       7.019   3.023  12.481  0.00  0.00    +0.000 C 
ATOM     20  C   UNL     1       6.019   2.128  11.768  0.00  0.00    +0.000 C 
ATOM     21  C   UNL     1       4.866   3.053  11.395  0.00  0.00    +0.000 C 
ATOM     22  C   UNL     1       4.742   4.046  12.548  0.00  0.00    +0.000 C 
ENDBRANCH   9  17
TORSDOF 1
ENDMDL
MODEL 6
REMARK VINA RESULT:      -6.0      3.287      7.147
REMARK  Name = 
REMARK  4 active torsions:
REMARK  status: ('A' for Active; 'I' for Inactive)
REMARK    1  A    between atoms: C_1  and  N_2
REMARK    2  A    between atoms: N_9  and  N_10
REMARK    3  A    between atoms: N_16  and  C_17
REMARK    4  A    between atoms: N_18  and  C_19
REMARK                            x       y       z     vdW  Elec       q    Type
REMARK                         _______ _______ _______ _____ _____    ______ ____
ROOT
ATOM      1  C   UNL     1       2.946   2.143  17.107  0.00  0.00    +0.000 C 
ATOM      2  N   UNL     1       2.673   3.092  18.166  0.00  0.00    +0.000 N 
ATOM      3  C   UNL     1       2.941   4.441  17.924  0.00  0.00    +0.000 A 
ATOM      4  O   UNL     1       3.408   4.878  16.876  0.00  0.00    +0.000 OA
ATOM      5  C   UNL     1       2.596   5.278  19.018  0.00  0.00    +0.000 A 
ATOM      6  C   UNL     1       2.048   4.813  20.172  0.00  0.00    +0.000 A 
ATOM      7  N   UNL     1       1.715   5.829  21.011  0.00  0.00    +0.000 NA
ATOM      8  C   UNL     1       2.049   6.939  20.373  0.00  0.00    +0.000 A 
ATOM      9  N   UNL     1       1.790   8.225  20.725  0.00  0.00    +0.000 N 
ATOM     10  N   UNL     1       2.703   6.630  19.194  0.00  0.00    +0.000 N 
ATOM     11  C   UNL     1       3.348   7.526  18.265  0.00  0.00    +0.000 C 
ATOM     12  N   UNL     1       1.857   3.468  20.385  0.00  0.00    +0.000 N 
ATOM     13  C   UNL     1       1.357   2.959  21.645  0.00  0.00    +0.000 C 
ATOM     14  C   UNL     1       2.181   2.563  19.375  0.00  0.00    +0.000 A 
ATOM     15  O   UNL     1       2.040   1.344  19.529  0.00  0.00    +0.000 OA
ATOM     16  H   UNL     1       2.123   8.970  20.124  0.00  0.00    +0.000 HD
ENDROOT
BRANCH   9  17
ATOM     17  N   UNL     1       0.765   8.529  21.574  0.00  0.00    +0.000 NA
ATOM     18  C   UNL     1       0.272   9.726  21.515  0.00  0.00    +0.000 C 
ATOM     19  C   UNL     1      -0.867  10.134  22.403  0.00  0.00    +0.000 C 
ATOM     20  C   UNL     1      -0.623  11.632  22.487  0.00  0.00    +0.000 C 
ATOM     21  C   UNL     1      -0.124  12.023  21.101  0.00  0.00    +0.000 C 
ATOM     22  C   UNL     1       0.730  10.852  20.623  0.00  0.00    +0.000 C 
ENDBRANCH   9  17
TORSDOF 1
ENDMDL
MODEL 7
REMARK VINA RESULT:      -5.9      3.868      7.262
REMARK  Name = 
REMARK  4 active torsions:
REMARK  status: ('A' for Active; 'I' for Inactive)
REMARK    1  A    between atoms: C_1  and  N_2
REMARK    2  A    between atoms: N_9  and  N_10
REMARK    3  A    between atoms: N_16  and  C_17
REMARK    4  A    between atoms: N_18  and  C_19
REMARK                            x       y       z     vdW  Elec       q    Type
REMARK                         _______ _______ _______ _____ _____    ______ ____
ROOT
ATOM      1  C   UNL     1       4.089   1.415  18.236  0.00  0.00    +0.000 C 
ATOM      2  N   UNL     1       3.535   2.738  18.437  0.00  0.00    +0.000 N 
ATOM      3  C   UNL     1       4.168   3.816  17.815  0.00  0.00    +0.000 A 
ATOM      4  O   UNL     1       5.175   3.721  17.118  0.00  0.00    +0.000 OA
ATOM      5  C   UNL     1       3.513   5.053  18.052  0.00  0.00    +0.000 A 
ATOM      6  C   UNL     1       2.379   5.169  18.794  0.00  0.00    +0.000 A 
ATOM      7  N   UNL     1       1.899   6.440  18.775  0.00  0.00    +0.000 NA
ATOM      8  C   UNL     1       2.733   7.123  18.007  0.00  0.00    +0.000 A 
ATOM      9  N   UNL     1       2.614   8.399  17.558  0.00  0.00    +0.000 N 
ATOM     10  N   UNL     1       3.803   6.326  17.643  0.00  0.00    +0.000 N 
ATOM     11  C   UNL     1       4.998   6.700  16.927  0.00  0.00    +0.000 C 
ATOM     12  N   UNL     1       1.826   4.086  19.434  0.00  0.00    +0.000 N 
ATOM     13  C   UNL     1       0.671   4.218  20.297  0.00  0.00    +0.000 C 
ATOM     14  C   UNL     1       2.408   2.829  19.276  0.00  0.00    +0.000 A 
ATOM     15  O   UNL     1       1.953   1.830  19.847  0.00  0.00    +0.000 OA
ATOM     16  H   UNL     1       3.352   8.781  16.977  0.00  0.00    +0.000 HD
ENDROOT
BRANCH   9  17
ATOM     17  N   UNL     1       1.395   9.010  17.487  0.00  0.00    +0.000 NA
ATOM     18  C   UNL     1       0.997   9.678  18.523  0.00  0.00    +0.000 C 
ATOM     19  C   UNL     1      -0.324  10.391  18.518  0.00  0.00    +0.000 C 
ATOM     20  C   UNL     1      -0.638  10.392  20.005  0.00  0.00    +0.000 C 
ATOM     21  C   UNL     1       0.710  10.594  20.687  0.00  0.00    +0.000 C 
ATOM     22  C   UNL     1       1.723   9.834  19.835  0.00  0.00    +0.000 C 
ENDBRANCH   9  17
TORSDOF 1
ENDMDL
MODEL 8
REMARK VINA RESULT:      -5.9      3.382      7.776
REMARK  Name = 
REMARK  4 active torsions:
REMARK  status: ('A' for Active; 'I' for Inactive)
REMARK    1  A    between atoms: C_1  and  N_2
REMARK    2  A    between atoms: N_9  and  N_10
REMARK    3  A    between atoms: N_16  and  C_17
REMARK    4  A    between atoms: N_18  and  C_19
REMARK                            x       y       z     vdW  Elec       q    Type
REMARK                         _______ _______ _______ _____ _____    ______ ____
ROOT
ATOM      1  C   UNL     1       4.780   3.192  19.571  0.00  0.00    +0.000 C 
ATOM      2  N   UNL     1       4.296   4.431  18.999  0.00  0.00    +0.000 N 
ATOM      3  C   UNL     1       3.319   5.140  19.701  0.00  0.00    +0.000 A 
ATOM      4  O   UNL     1       2.827   4.775  20.766  0.00  0.00    +0.000 OA
ATOM      5  C   UNL     1       2.954   6.355  19.064  0.00  0.00    +0.000 A 
ATOM      6  C   UNL     1       3.512   6.789  17.902  0.00  0.00    +0.000 A 
ATOM      7  N   UNL     1       3.065   8.027  17.566  0.00  0.00    +0.000 NA
ATOM      8  C   UNL     1       2.229   8.376  18.530  0.00  0.00    +0.000 A 
ATOM      9  N   UNL     1       1.629   9.578  18.732  0.00  0.00    +0.000 N 
ATOM     10  N   UNL     1       2.047   7.321  19.405  0.00  0.00    +0.000 N 
ATOM     11  C   UNL     1       1.128   7.223  20.513  0.00  0.00    +0.000 C 
ATOM     12  N   UNL     1       4.430   6.027  17.219  0.00  0.00    +0.000 N 
ATOM     13  C   UNL     1       4.962   6.440  15.937  0.00  0.00    +0.000 C 
ATOM     14  C   UNL     1       4.840   4.807  17.756  0.00  0.00    +0.000 A 
ATOM     15  O   UNL     1       5.651   4.082  17.167  0.00  0.00    +0.000 OA
ATOM     16  H   UNL     1       1.004   9.681  19.523  0.00  0.00    +0.000 HD
ENDROOT
BRANCH   9  17
ATOM     17  N   UNL     1       2.153  10.723  18.206  0.00  0.00    +0.000 NA
ATOM     18  C   UNL     1       1.822  11.846  18.763  0.00  0.00    +0.000 C 
ATOM     19  C   UNL     1       2.368  13.148  18.254  0.00  0.00    +0.000 C 
ATOM     20  C   UNL     1       1.258  14.094  18.682  0.00  0.00    +0.000 C 
ATOM     21  C   UNL     1       0.789  13.558  20.030  0.00  0.00    +0.000 C 
ATOM     22  C   UNL     1       0.883  12.038  19.927  0.00  0.00    +0.000 C 
ENDBRANCH   9  17
TORSDOF 1
ENDMDL
MODEL 9
REMARK VINA RESULT:      -5.9      1.683      3.404
REMARK  Name = 
REMARK  4 active torsions:
REMARK  status: ('A' for Active; 'I' for Inactive)
REMARK    1  A    between atoms: C_1  and  N_2
REMARK    2  A    between atoms: N_9  and  N_10
REMARK    3  A    between atoms: N_16  and  C_17
REMARK    4  A    between atoms: N_18  and  C_19
REMARK                            x       y       z     vdW  Elec       q    Type
REMARK                         _______ _______ _______ _____ _____    ______ ____
ROOT
ATOM      1  C   UNL     1      -2.617  14.036  21.865  0.00  0.00    +0.000 C 
ATOM      2  N   UNL     1      -1.559  13.160  21.404  0.00  0.00    +0.000 N 
ATOM      3  C   UNL     1      -1.310  11.994  22.132  0.00  0.00    +0.000 A 
ATOM      4  O   UNL     1      -1.917  11.667  23.148  0.00  0.00    +0.000 OA
ATOM      5  C   UNL     1      -0.281  11.198  21.562  0.00  0.00    +0.000 A 
ATOM      6  C   UNL     1       0.377  11.530  20.420  0.00  0.00    +0.000 A 
ATOM      7  N   UNL     1       1.235  10.549  20.035  0.00  0.00    +0.000 NA
ATOM      8  C   UNL     1       1.105   9.590  20.938  0.00  0.00    +0.000 A 
ATOM      9  N   UNL     1       1.638   8.341  20.925  0.00  0.00    +0.000 N 
ATOM     10  N   UNL     1       0.267  10.008  21.956  0.00  0.00    +0.000 N 
ATOM     11  C   UNL     1      -0.044   9.336  23.195  0.00  0.00    +0.000 C 
ATOM     12  N   UNL     1       0.135  12.718  19.772  0.00  0.00    +0.000 N 
ATOM     13  C   UNL     1       0.895  13.120  18.607  0.00  0.00    +0.000 C 
ATOM     14  C   UNL     1      -0.846  13.577  20.264  0.00  0.00    +0.000 A 
ATOM     15  O   UNL     1      -1.086  14.663  19.723  0.00  0.00    +0.000 OA
ATOM     16  H   UNL     1       1.445   7.722  21.704  0.00  0.00    +0.000 HD
ENDROOT
BRANCH   9  17
ATOM     17  N   UNL     1       2.032   7.756  19.756  0.00  0.00    +0.000 NA
ATOM     18  C   UNL     1       2.034   6.461  19.704  0.00  0.00    +0.000 C 
ATOM     19  C   UNL     1       2.439   5.743  18.450  0.00  0.00    +0.000 C 
ATOM     20  C   UNL     1       2.938   4.432  19.037  0.00  0.00    +0.000 C 
ATOM     21  C   UNL     1       2.001   4.148  20.205  0.00  0.00    +0.000 C 
ATOM     22  C   UNL     1       1.677   5.509  20.816  0.00  0.00    +0.000 C 
ENDBRANCH   9  17
TORSDOF 1
ENDMDL
