MODEL 1
REMARK VINA RESULT:      -7.3      0.000      0.000
REMARK  Name = 
REMARK  9 active torsions:
REMARK  status: ('A' for Active; 'I' for Inactive)
REMARK    1  A    between atoms: C_1  and  N_2
REMARK    2  A    between atoms: N_2  and  C_3
REMARK    3  A    between atoms: N_2  and  C_4
REMARK    4  A    between atoms: C_4  and  C_5
REMARK    5  A    between atoms: C_5  and  C_6
REMARK    6  A    between atoms: C_6  and  N_7
REMARK    7  A    between atoms: C_8  and  C_10
REMARK    8  A    between atoms: C_10  and  O_11
REMARK    9  A    between atoms: N_22  and  C_23
REMARK                            x       y       z     vdW  Elec       q    Type
REMARK                         _______ _______ _______ _____ _____    ______ ____
ROOT
ATOM      1  C   UNL     1       5.650   4.799  17.093  0.00  0.00    +0.000 C 
ATOM      2  C   UNL     1       4.432   4.894  17.990  0.00  0.00    +0.000 A 
ATOM      3  C   UNL     1       4.187   4.011  19.058  0.00  0.00    +0.000 A 
ATOM      4  C   UNL     1       3.075   4.194  19.877  0.00  0.00    +0.000 A 
ATOM      5 BR   UNL     1       2.783   3.027  21.336  0.00  0.00    +0.000 Br
ATOM      6  C   UNL     1       2.186   5.240  19.642  0.00  0.00    +0.000 A 
ATOM      7  C   UNL     1       2.440   6.143  18.608  0.00  0.00    +0.000 A 
ATOM      8  C   UNL     1       3.571   5.974  17.809  0.00  0.00    +0.000 A 
ATOM      9  N   UNL     1       3.861   6.903  16.813  0.00  0.00    +0.000 N 
ATOM     10  C   UNL     1       4.750   6.698  15.796  0.00  0.00    +0.000 C 
ATOM     11  O   UNL     1       4.825   7.537  14.901  0.00  0.00    +0.000 OA
ATOM     12  N   UNL     1       5.432   5.489  15.814  0.00  0.00    +0.000 N 
ATOM     13  H   UNL     1       3.273   7.719  16.692  0.00  0.00    +0.000 HD
ENDROOT
BRANCH  12  14
ATOM     14  C   UNL     1       5.844   4.920  14.578  0.00  0.00    +0.000 A 
ATOM     15  C   UNL     1       5.013   4.046  13.868  0.00  0.00    +0.000 A 
ATOM     16  C   UNL     1       5.491   3.379  12.734  0.00  0.00    +0.000 A 
ATOM     17  C   UNL     1       6.812   3.559  12.330  0.00  0.00    +0.000 A 
ATOM     18 CL   UNL     1       7.418   2.692  10.973  0.00  0.00    +0.000 Cl
ATOM     19  C   UNL     1       7.655   4.414  13.034  0.00  0.00    +0.000 A 
ATOM     20  C   UNL     1       7.167   5.099  14.149  0.00  0.00    +0.000 A 
ENDBRANCH  12  14
BRANCH   1  22
ATOM     21  N   UNL     1       7.051   6.765  17.893  0.00  0.00    +0.000 N 
ATOM     22  C   UNL     1       6.916   5.394  17.850  0.00  0.00    +0.000 C 
ATOM     23  O   UNL     1       7.766   4.641  18.337  0.00  0.00    +0.000 OA
ATOM     24  H   UNL     1       6.441   7.334  17.317  0.00  0.00    +0.000 HD
BRANCH  21  25
ATOM     25  C   UNL     1       8.193   7.417  18.503  0.00  0.00    +0.000 C 
BRANCH  25  26
ATOM     26  C   UNL     1       8.322   8.890  18.116  0.00  0.00    +0.000 C 
BRANCH  26  27
ATOM     27  C   UNL     1       9.282   9.692  19.007  0.00  0.00    +0.000 C 
BRANCH  27  29
ATOM     28  C   UNL     1       9.378  11.929  19.970  0.00  0.00    +0.000 C 
ATOM     29  N   UNL     1       9.302  11.141  18.736  0.00  0.00    +0.000 NA
ATOM     30  C   UNL     1      10.442  11.474  17.876  0.00  0.00    +0.000 C 
ENDBRANCH  27  29
ENDBRANCH  26  27
ENDBRANCH  25  26
ENDBRANCH  21  25
ENDBRANCH   1  22
BRANCH   1  31
ATOM     31  O   UNL     1       5.924   3.408  16.879  0.00  0.00    +0.000 OA
ATOM     32  H   UNL     1       5.541   2.941  17.644  0.00  0.00    +0.000 HD
ENDBRANCH   1  31
TORSDOF 7
ENDMDL
MODEL 2
REMARK VINA RESULT:      -7.3      0.639      1.145
REMARK  Name = 
REMARK  9 active torsions:
REMARK  status: ('A' for Active; 'I' for Inactive)
REMARK    1  A    between atoms: C_1  and  N_2
REMARK    2  A    between atoms: N_2  and  C_3
REMARK    3  A    between atoms: N_2  and  C_4
REMARK    4  A    between atoms: C_4  and  C_5
REMARK    5  A    between atoms: C_5  and  C_6
REMARK    6  A    between atoms: C_6  and  N_7
REMARK    7  A    between atoms: C_8  and  C_10
REMARK    8  A    between atoms: C_10  and  O_11
REMARK    9  A    between atoms: N_22  and  C_23
REMARK                            x       y       z     vdW  Elec       q    Type
REMARK                         _______ _______ _______ _____ _____    ______ ____
ROOT
ATOM      1  C   UNL     1       5.541   5.010  17.584  0.00  0.00    +0.000 C 
ATOM      2  C   UNL     1       4.253   5.160  18.368  0.00  0.00    +0.000 A 
ATOM      3  C   UNL     1       3.930   4.366  19.484  0.00  0.00    +0.000 A 
ATOM      4  C   UNL     1       2.753   4.598  20.192  0.00  0.00    +0.000 A 
ATOM      5 BR   UNL     1       2.354   3.553  21.717  0.00  0.00    +0.000 Br
ATOM      6  C   UNL     1       1.876   5.605  19.797  0.00  0.00    +0.000 A 
ATOM      7  C   UNL     1       2.204   6.421  18.714  0.00  0.00    +0.000 A 
ATOM      8  C   UNL     1       3.399   6.206  18.026  0.00  0.00    +0.000 A 
ATOM      9  N   UNL     1       3.760   7.052  16.981  0.00  0.00    +0.000 N 
ATOM     10  C   UNL     1       4.731   6.777  16.061  0.00  0.00    +0.000 C 
ATOM     11  O   UNL     1       4.871   7.539  15.106  0.00  0.00    +0.000 OA
ATOM     12  N   UNL     1       5.422   5.586  16.238  0.00  0.00    +0.000 N 
ATOM     13  H   UNL     1       3.176   7.845  16.744  0.00  0.00    +0.000 HD
ENDROOT
BRANCH  12  14
ATOM     14  C   UNL     1       5.940   4.922  15.092  0.00  0.00    +0.000 A 
ATOM     15  C   UNL     1       7.205   5.234  14.582  0.00  0.00    +0.000 A 
ATOM     16  C   UNL     1       7.636   4.681  13.370  0.00  0.00    +0.000 A 
ATOM     17  C   UNL     1       6.787   3.844  12.649  0.00  0.00    +0.000 A 
ATOM     18 CL   UNL     1       7.291   3.215  11.130  0.00  0.00    +0.000 Cl
ATOM     19  C   UNL     1       5.519   3.537  13.136  0.00  0.00    +0.000 A 
ATOM     20  C   UNL     1       5.103   4.068  14.360  0.00  0.00    +0.000 A 
ENDBRANCH  12  14
BRANCH   1  22
ATOM     21  N   UNL     1       7.177   6.921  17.959  0.00  0.00    +0.000 N 
ATOM     22  C   UNL     1       6.734   5.689  18.388  0.00  0.00    +0.000 C 
ATOM     23  O   UNL     1       7.270   5.097  19.331  0.00  0.00    +0.000 OA
ATOM     24  H   UNL     1       6.843   7.278  17.070  0.00  0.00    +0.000 HD
BRANCH  21  25
ATOM     25  C   UNL     1       8.294   7.607  18.577  0.00  0.00    +0.000 C 
BRANCH  25  26
ATOM     26  C   UNL     1       8.379   9.084  18.195  0.00  0.00    +0.000 C 
BRANCH  26  27
ATOM     27  C   UNL     1       9.274   9.922  19.119  0.00  0.00    +0.000 C 
BRANCH  27  29
ATOM     28  C   UNL     1       8.856  11.971  17.866  0.00  0.00    +0.000 C 
ATOM     29  N   UNL     1       9.871  11.110  18.482  0.00  0.00    +0.000 NA
ATOM     30  C   UNL     1      10.626  11.883  19.472  0.00  0.00    +0.000 C 
ENDBRANCH  27  29
ENDBRANCH  26  27
ENDBRANCH  25  26
ENDBRANCH  21  25
ENDBRANCH   1  22
BRANCH   1  31
ATOM     31  O   UNL     1       5.846   3.611  17.512  0.00  0.00    +0.000 OA
ATOM     32  H   UNL     1       6.181   3.459  16.608  0.00  0.00    +0.000 HD
ENDBRANCH   1  31
TORSDOF 7
ENDMDL
MODEL 3
REMARK VINA RESULT:      -7.0      4.340      7.150
REMARK  Name = 
REMARK  9 active torsions:
REMARK  status: ('A' for Active; 'I' for Inactive)
REMARK    1  A    between atoms: C_1  and  N_2
REMARK    2  A    between atoms: N_2  and  C_3
REMARK    3  A    between atoms: N_2  and  C_4
REMARK    4  A    between atoms: C_4  and  C_5
REMARK    5  A    between atoms: C_5  and  C_6
REMARK    6  A    between atoms: C_6  and  N_7
REMARK    7  A    between atoms: C_8  and  C_10
REMARK    8  A    between atoms: C_10  and  O_11
REMARK    9  A    between atoms: N_22  and  C_23
REMARK                            x       y       z     vdW  Elec       q    Type
REMARK                         _______ _______ _______ _____ _____    ______ ____
ROOT
ATOM      1  C   UNL     1       4.160   5.112  17.339  0.00  0.00    +0.000 C 
ATOM      2  C   UNL     1       5.123   4.726  16.235  0.00  0.00    +0.000 A 
ATOM      3  C   UNL     1       4.722   4.489  14.907  0.00  0.00    +0.000 A 
ATOM      4  C   UNL     1       5.670   4.193  13.930  0.00  0.00    +0.000 A 
ATOM      5 BR   UNL     1       5.121   3.923  12.142  0.00  0.00    +0.000 Br
ATOM      6  C   UNL     1       7.022   4.113  14.258  0.00  0.00    +0.000 A 
ATOM      7  C   UNL     1       7.434   4.381  15.563  0.00  0.00    +0.000 A 
ATOM      8  C   UNL     1       6.484   4.707  16.532  0.00  0.00    +0.000 A 
ATOM      9  N   UNL     1       6.892   5.031  17.823  0.00  0.00    +0.000 N 
ATOM     10  C   UNL     1       6.066   5.079  18.909  0.00  0.00    +0.000 C 
ATOM     11  O   UNL     1       6.564   5.247  20.021  0.00  0.00    +0.000 OA
ATOM     12  N   UNL     1       4.722   4.829  18.667  0.00  0.00    +0.000 N 
ATOM     13  H   UNL     1       7.879   5.068  18.050  0.00  0.00    +0.000 HD
ENDROOT
BRANCH  12  14
ATOM     14  C   UNL     1       3.941   4.240  19.700  0.00  0.00    +0.000 A 
ATOM     15  C   UNL     1       4.023   2.872  19.981  0.00  0.00    +0.000 A 
ATOM     16  C   UNL     1       3.141   2.284  20.895  0.00  0.00    +0.000 A 
ATOM     17  C   UNL     1       2.153   3.057  21.501  0.00  0.00    +0.000 A 
ATOM     18 CL   UNL     1       1.029   2.323  22.577  0.00  0.00    +0.000 Cl
ATOM     19  C   UNL     1       2.050   4.417  21.220  0.00  0.00    +0.000 A 
ATOM     20  C   UNL     1       2.950   5.006  20.329  0.00  0.00    +0.000 A 
ENDBRANCH  12  14
BRANCH   1  22
ATOM     21  N   UNL     1       2.620   7.083  17.802  0.00  0.00    +0.000 N 
ATOM     22  C   UNL     1       3.782   6.651  17.200  0.00  0.00    +0.000 C 
ATOM     23  O   UNL     1       4.490   7.411  16.532  0.00  0.00    +0.000 OA
ATOM     24  H   UNL     1       1.975   6.392  18.170  0.00  0.00    +0.000 HD
BRANCH  21  25
ATOM     25  C   UNL     1       2.146   8.448  17.692  0.00  0.00    +0.000 C 
BRANCH  25  26
ATOM     26  C   UNL     1       1.567   8.990  18.998  0.00  0.00    +0.000 C 
BRANCH  26  27
ATOM     27  C   UNL     1       0.785  10.303  18.843  0.00  0.00    +0.000 C 
BRANCH  27  29
ATOM     28  C   UNL     1      -1.017  11.293  20.152  0.00  0.00    +0.000 C 
ATOM     29  N   UNL     1      -0.635  10.220  19.230  0.00  0.00    +0.000 NA
ATOM     30  C   UNL     1      -1.484  10.281  18.036  0.00  0.00    +0.000 C 
ENDBRANCH  27  29
ENDBRANCH  26  27
ENDBRANCH  25  26
ENDBRANCH  21  25
ENDBRANCH   1  22
BRANCH   1  31
ATOM     31  O   UNL     1       2.946   4.377  17.135  0.00  0.00    +0.000 OA
ATOM     32  H   UNL     1       2.725   3.986  18.001  0.00  0.00    +0.000 HD
ENDBRANCH   1  31
TORSDOF 7
ENDMDL
MODEL 4
REMARK VINA RESULT:      -6.8      9.371     12.176
REMARK  Name = 
REMARK  9 active torsions:
REMARK  status: ('A' for Active; 'I' for Inactive)
REMARK    1  A    between atoms: C_1  and  N_2
REMARK    2  A    between atoms: N_2  and  C_3
REMARK    3  A    between atoms: N_2  and  C_4
REMARK    4  A    between atoms: C_4  and  C_5
REMARK    5  A    between atoms: C_5  and  C_6
REMARK    6  A    between atoms: C_6  and  N_7
REMARK    7  A    between atoms: C_8  and  C_10
REMARK    8  A    between atoms: C_10  and  O_11
REMARK    9  A    between atoms: N_22  and  C_23
REMARK                            x       y       z     vdW  Elec       q    Type
REMARK                         _______ _______ _______ _____ _____    ______ ____
ROOT
ATOM      1  C   UNL     1      -1.314  12.747  19.850  0.00  0.00    +0.000 C 
ATOM      2  C   UNL     1      -2.288  12.810  21.009  0.00  0.00    +0.000 A 
ATOM      3  C   UNL     1      -3.540  13.449  20.933  0.00  0.00    +0.000 A 
ATOM      4  C   UNL     1      -4.409  13.419  22.022  0.00  0.00    +0.000 A 
ATOM      5 BR   UNL     1      -6.106  14.242  21.889  0.00  0.00    +0.000 Br
ATOM      6  C   UNL     1      -4.046  12.770  23.200  0.00  0.00    +0.000 A 
ATOM      7  C   UNL     1      -2.823  12.103  23.272  0.00  0.00    +0.000 A 
ATOM      8  C   UNL     1      -1.968  12.110  22.170  0.00  0.00    +0.000 A 
ATOM      9  N   UNL     1      -0.772  11.399  22.215  0.00  0.00    +0.000 N 
ATOM     10  C   UNL     1       0.262  11.562  21.337  0.00  0.00    +0.000 C 
ATOM     11  O   UNL     1       1.319  10.974  21.556  0.00  0.00    +0.000 OA
ATOM     12  N   UNL     1       0.054  12.474  20.311  0.00  0.00    +0.000 N 
ATOM     13  H   UNL     1      -0.539  10.846  23.032  0.00  0.00    +0.000 HD
ENDROOT
BRANCH  12  14
ATOM     14  C   UNL     1       1.175  13.169  19.779  0.00  0.00    +0.000 A 
ATOM     15  C   UNL     1       1.782  12.762  18.585  0.00  0.00    +0.000 A 
ATOM     16  C   UNL     1       2.971  13.361  18.156  0.00  0.00    +0.000 A 
ATOM     17  C   UNL     1       3.575  14.343  18.939  0.00  0.00    +0.000 A 
ATOM     18 CL   UNL     1       5.070  15.036  18.443  0.00  0.00    +0.000 Cl
ATOM     19  C   UNL     1       2.991  14.748  20.136  0.00  0.00    +0.000 A 
ATOM     20  C   UNL     1       1.789  14.167  20.548  0.00  0.00    +0.000 A 
ENDBRANCH  12  14
BRANCH   1  22
ATOM     21  N   UNL     1      -2.480  12.065  17.695  0.00  0.00    +0.000 N 
ATOM     22  C   UNL     1      -1.794  11.641  18.812  0.00  0.00    +0.000 C 
ATOM     23  O   UNL     1      -1.595  10.443  19.038  0.00  0.00    +0.000 OA
ATOM     24  H   UNL     1      -2.790  13.030  17.648  0.00  0.00    +0.000 HD
BRANCH  21  25
ATOM     25  C   UNL     1      -3.015  11.143  16.712  0.00  0.00    +0.000 C 
BRANCH  25  26
ATOM     26  C   UNL     1      -4.540  11.180  16.622  0.00  0.00    +0.000 C 
BRANCH  26  27
ATOM     27  C   UNL     1      -5.250  11.165  17.984  0.00  0.00    +0.000 C 
BRANCH  27  29
ATOM     28  C   UNL     1      -7.266  11.626  19.274  0.00  0.00    +0.000 C 
ATOM     29  N   UNL     1      -6.676  11.535  17.935  0.00  0.00    +0.000 NA
ATOM     30  C   UNL     1      -6.838  12.818  17.245  0.00  0.00    +0.000 C 
ENDBRANCH  27  29
ENDBRANCH  26  27
ENDBRANCH  25  26
ENDBRANCH  21  25
ENDBRANCH   1  22
BRANCH   1  31
ATOM     31  O   UNL     1      -1.376  14.003  19.161  0.00  0.00    +0.000 OA
ATOM     32  H   UNL     1      -2.314  14.268  19.176  0.00  0.00    +0.000 HD
ENDBRANCH   1  31
TORSDOF 7
ENDMDL
MODEL 5
REMARK VINA RESULT:      -6.7      8.061     10.695
REMARK  Name = 
REMARK  9 active torsions:
REMARK  status: ('A' for Active; 'I' for Inactive)
REMARK    1  A    between atoms: C_1  and  N_2
REMARK    2  A    between atoms: N_2  and  C_3
REMARK    3  A    between atoms: N_2  and  C_4
REMARK    4  A    between atoms: C_4  and  C_5
REMARK    5  A    between atoms: C_5  and  C_6
REMARK    6  A    between atoms: C_6  and  N_7
REMARK    7  A    between atoms: C_8  and  C_10
REMARK    8  A    between atoms: C_10  and  O_11
REMARK    9  A    between atoms: N_22  and  C_23
REMARK                            x       y       z     vdW  Elec       q    Type
REMARK                         _______ _______ _______ _____ _____    ______ ____
ROOT
ATOM      1  C   UNL     1      -1.071  12.281  18.920  0.00  0.00    +0.000 C 
ATOM      2  C   UNL     1      -2.497  12.331  19.431  0.00  0.00    +0.000 A 
ATOM      3  C   UNL     1      -3.612  11.987  18.645  0.00  0.00    +0.000 A 
ATOM      4  C   UNL     1      -4.891  12.002  19.199  0.00  0.00    +0.000 A 
ATOM      5 BR   UNL     1      -6.375  11.493  18.144  0.00  0.00    +0.000 Br
ATOM      6  C   UNL     1      -5.082  12.371  20.528  0.00  0.00    +0.000 A 
ATOM      7  C   UNL     1      -3.980  12.678  21.326  0.00  0.00    +0.000 A 
ATOM      8  C   UNL     1      -2.698  12.633  20.776  0.00  0.00    +0.000 A 
ATOM      9  N   UNL     1      -1.589  12.883  21.580  0.00  0.00    +0.000 N 
ATOM     10  C   UNL     1      -0.335  13.154  21.110  0.00  0.00    +0.000 C 
ATOM     11  O   UNL     1       0.534  13.489  21.912  0.00  0.00    +0.000 OA
ATOM     12  N   UNL     1      -0.179  13.121  19.731  0.00  0.00    +0.000 N 
ATOM     13  H   UNL     1      -1.709  13.061  22.570  0.00  0.00    +0.000 HD
ENDROOT
BRANCH  12  14
ATOM     14  C   UNL     1       0.806  13.958  19.137  0.00  0.00    +0.000 A 
ATOM     15  C   UNL     1       2.057  13.455  18.765  0.00  0.00    +0.000 A 
ATOM     16  C   UNL     1       3.064  14.321  18.322  0.00  0.00    +0.000 A 
ATOM     17  C   UNL     1       2.832  15.694  18.286  0.00  0.00    +0.000 A 
ATOM     18 CL   UNL     1       4.090  16.764  17.802  0.00  0.00    +0.000 Cl
ATOM     19  C   UNL     1       1.597  16.210  18.667  0.00  0.00    +0.000 A 
ATOM     20  C   UNL     1       0.584  15.341  19.082  0.00  0.00    +0.000 A 
ENDBRANCH  12  14
BRANCH   1  22
ATOM     21  N   UNL     1       0.221  10.374  17.841  0.00  0.00    +0.000 N 
ATOM     22  C   UNL     1      -0.566  10.773  18.899  0.00  0.00    +0.000 C 
ATOM     23  O   UNL     1      -0.917   9.984  19.783  0.00  0.00    +0.000 OA
ATOM     24  H   UNL     1       0.321  10.995  17.045  0.00  0.00    +0.000 HD
BRANCH  21  25
ATOM     25  C   UNL     1       0.689   9.011  17.688  0.00  0.00    +0.000 C 
BRANCH  25  26
ATOM     26  C   UNL     1       2.157   8.832  18.074  0.00  0.00    +0.000 C 
BRANCH  26  27
ATOM     27  C   UNL     1       2.461   7.509  18.792  0.00  0.00    +0.000 C 
BRANCH  27  29
ATOM     28  C   UNL     1       4.302   6.264  17.791  0.00  0.00    +0.000 C 
ATOM     29  N   UNL     1       2.847   6.402  17.898  0.00  0.00    +0.000 NA
ATOM     30  C   UNL     1       2.274   5.143  18.385  0.00  0.00    +0.000 C 
ENDBRANCH  27  29
ENDBRANCH  26  27
ENDBRANCH  25  26
ENDBRANCH  21  25
ENDBRANCH   1  22
BRANCH   1  31
ATOM     31  O   UNL     1      -1.081  12.723  17.556  0.00  0.00    +0.000 OA
ATOM     32  H   UNL     1      -0.382  12.212  17.107  0.00  0.00    +0.000 HD
ENDBRANCH   1  31
TORSDOF 7
ENDMDL
MODEL 6
REMARK VINA RESULT:      -6.6      8.166     10.999
REMARK  Name = 
REMARK  9 active torsions:
REMARK  status: ('A' for Active; 'I' for Inactive)
REMARK    1  A    between atoms: C_1  and  N_2
REMARK    2  A    between atoms: N_2  and  C_3
REMARK    3  A    between atoms: N_2  and  C_4
REMARK    4  A    between atoms: C_4  and  C_5
REMARK    5  A    between atoms: C_5  and  C_6
REMARK    6  A    between atoms: C_6  and  N_7
REMARK    7  A    between atoms: C_8  and  C_10
REMARK    8  A    between atoms: C_10  and  O_11
REMARK    9  A    between atoms: N_22  and  C_23
REMARK                            x       y       z     vdW  Elec       q    Type
REMARK                         _______ _______ _______ _____ _____    ______ ____
ROOT
ATOM      1  C   UNL     1      -0.806  12.137  18.781  0.00  0.00    +0.000 C 
ATOM      2  C   UNL     1      -2.110  11.797  18.086  0.00  0.00    +0.000 A 
ATOM      3  C   UNL     1      -2.176  11.233  16.798  0.00  0.00    +0.000 A 
ATOM      4  C   UNL     1      -3.408  10.894  16.244  0.00  0.00    +0.000 A 
ATOM      5 BR   UNL     1      -3.478  10.095  14.532  0.00  0.00    +0.000 Br
ATOM      6  C   UNL     1      -4.588  11.122  16.948  0.00  0.00    +0.000 A 
ATOM      7  C   UNL     1      -4.531  11.647  18.240  0.00  0.00    +0.000 A 
ATOM      8  C   UNL     1      -3.293  11.957  18.804  0.00  0.00    +0.000 A 
ATOM      9  N   UNL     1      -3.225  12.428  20.112  0.00  0.00    +0.000 N 
ATOM     10  C   UNL     1      -2.131  13.031  20.664  0.00  0.00    +0.000 C 
ATOM     11  O   UNL     1      -2.233  13.524  21.785  0.00  0.00    +0.000 OA
ATOM     12  N   UNL     1      -1.008  13.122  19.852  0.00  0.00    +0.000 N 
ATOM     13  H   UNL     1      -4.068  12.509  20.668  0.00  0.00    +0.000 HD
ENDROOT
BRANCH  12  14
ATOM     14  C   UNL     1      -0.116  14.213  20.042  0.00  0.00    +0.000 A 
ATOM     15  C   UNL     1      -0.332  15.445  19.414  0.00  0.00    +0.000 A 
ATOM     16  C   UNL     1       0.632  16.457  19.492  0.00  0.00    +0.000 A 
ATOM     17  C   UNL     1       1.829  16.224  20.165  0.00  0.00    +0.000 A 
ATOM     18 CL   UNL     1       3.041  17.445  20.207  0.00  0.00    +0.000 Cl
ATOM     19  C   UNL     1       2.064  14.999  20.782  0.00  0.00    +0.000 A 
ATOM     20  C   UNL     1       1.088  14.000  20.727  0.00  0.00    +0.000 A 
ENDBRANCH  12  14
BRANCH   1  22
ATOM     21  N   UNL     1       0.903  10.258  18.646  0.00  0.00    +0.000 N 
ATOM     22  C   UNL     1      -0.146  10.807  19.351  0.00  0.00    +0.000 C 
ATOM     23  O   UNL     1      -0.602  10.267  20.365  0.00  0.00    +0.000 OA
ATOM     24  H   UNL     1       1.114  10.621  17.723  0.00  0.00    +0.000 HD
BRANCH  21  25
ATOM     25  C   UNL     1       1.543   9.018  19.039  0.00  0.00    +0.000 C 
BRANCH  25  26
ATOM     26  C   UNL     1       2.131   8.246  17.859  0.00  0.00    +0.000 C 
BRANCH  26  27
ATOM     27  C   UNL     1       3.055   7.087  18.264  0.00  0.00    +0.000 C 
BRANCH  27  29
ATOM     28  C   UNL     1       3.104   4.717  17.697  0.00  0.00    +0.000 C 
ATOM     29  N   UNL     1       2.380   5.783  18.396  0.00  0.00    +0.000 NA
ATOM     30  C   UNL     1       2.246   5.430  19.813  0.00  0.00    +0.000 C 
ENDBRANCH  27  29
ENDBRANCH  26  27
ENDBRANCH  25  26
ENDBRANCH  21  25
ENDBRANCH   1  22
BRANCH   1  31
ATOM     31  O   UNL     1       0.096  12.643  17.789  0.00  0.00    +0.000 OA
ATOM     32  H   UNL     1       0.769  11.948  17.662  0.00  0.00    +0.000 HD
ENDBRANCH   1  31
TORSDOF 7
ENDMDL
MODEL 7
REMARK VINA RESULT:      -6.6      8.213     10.821
REMARK  Name = 
REMARK  9 active torsions:
REMARK  status: ('A' for Active; 'I' for Inactive)
REMARK    1  A    between atoms: C_1  and  N_2
REMARK    2  A    between atoms: N_2  and  C_3
REMARK    3  A    between atoms: N_2  and  C_4
REMARK    4  A    between atoms: C_4  and  C_5
REMARK    5  A    between atoms: C_5  and  C_6
REMARK    6  A    between atoms: C_6  and  N_7
REMARK    7  A    between atoms: C_8  and  C_10
REMARK    8  A    between atoms: C_10  and  O_11
REMARK    9  A    between atoms: N_22  and  C_23
REMARK                            x       y       z     vdW  Elec       q    Type
REMARK                         _______ _______ _______ _____ _____    ______ ____
ROOT
ATOM      1  C   UNL     1      -1.179  12.401  19.099  0.00  0.00    +0.000 C 
ATOM      2  C   UNL     1      -2.626  12.392  19.550  0.00  0.00    +0.000 A 
ATOM      3  C   UNL     1      -3.697  12.048  18.706  0.00  0.00    +0.000 A 
ATOM      4  C   UNL     1      -4.998  12.006  19.205  0.00  0.00    +0.000 A 
ATOM      5 BR   UNL     1      -6.421  11.499  18.069  0.00  0.00    +0.000 Br
ATOM      6  C   UNL     1      -5.255  12.317  20.538  0.00  0.00    +0.000 A 
ATOM      7  C   UNL     1      -4.195  12.623  21.392  0.00  0.00    +0.000 A 
ATOM      8  C   UNL     1      -2.891  12.634  20.896  0.00  0.00    +0.000 A 
ATOM      9  N   UNL     1      -1.824  12.883  21.755  0.00  0.00    +0.000 N 
ATOM     10  C   UNL     1      -0.560  13.206  21.350  0.00  0.00    +0.000 C 
ATOM     11  O   UNL     1       0.265  13.534  22.200  0.00  0.00    +0.000 OA
ATOM     12  N   UNL     1      -0.346  13.232  19.979  0.00  0.00    +0.000 N 
ATOM     13  H   UNL     1      -1.990  13.018  22.746  0.00  0.00    +0.000 HD
ENDROOT
BRANCH  12  14
ATOM     14  C   UNL     1       0.637  14.118  19.459  0.00  0.00    +0.000 A 
ATOM     15  C   UNL     1       0.353  15.472  19.243  0.00  0.00    +0.000 A 
ATOM     16  C   UNL     1       1.280  16.294  18.593  0.00  0.00    +0.000 A 
ATOM     17  C   UNL     1       2.477  15.755  18.125  0.00  0.00    +0.000 A 
ATOM     18 CL   UNL     1       3.589  16.751  17.271  0.00  0.00    +0.000 Cl
ATOM     19  C   UNL     1       2.767  14.408  18.320  0.00  0.00    +0.000 A 
ATOM     20  C   UNL     1       1.852  13.595  18.994  0.00  0.00    +0.000 A 
ENDBRANCH  12  14
BRANCH   1  22
ATOM     21  N   UNL     1       0.154  10.554  17.967  0.00  0.00    +0.000 N 
ATOM     22  C   UNL     1      -0.631  10.909  19.042  0.00  0.00    +0.000 C 
ATOM     23  O   UNL     1      -0.947  10.092  19.914  0.00  0.00    +0.000 OA
ATOM     24  H   UNL     1       0.226  11.193  17.182  0.00  0.00    +0.000 HD
BRANCH  21  25
ATOM     25  C   UNL     1       0.661   9.209  17.780  0.00  0.00    +0.000 C 
BRANCH  25  26
ATOM     26  C   UNL     1       2.026   8.985  18.430  0.00  0.00    +0.000 C 
BRANCH  26  27
ATOM     27  C   UNL     1       2.867   7.888  17.761  0.00  0.00    +0.000 C 
BRANCH  27  29
ATOM     28  C   UNL     1       3.583   5.558  17.785  0.00  0.00    +0.000 C 
ATOM     29  N   UNL     1       2.564   6.519  18.217  0.00  0.00    +0.000 NA
ATOM     30  C   UNL     1       2.457   6.490  19.678  0.00  0.00    +0.000 C 
ENDBRANCH  27  29
ENDBRANCH  26  27
ENDBRANCH  25  26
ENDBRANCH  21  25
ENDBRANCH   1  22
BRANCH   1  31
ATOM     31  O   UNL     1      -1.146  12.895  17.754  0.00  0.00    +0.000 OA
ATOM     32  H   UNL     1      -0.212  12.850  17.478  0.00  0.00    +0.000 HD
ENDBRANCH   1  31
TORSDOF 7
ENDMDL
MODEL 8
REMARK VINA RESULT:      -6.6      9.528     12.441
REMARK  Name = 
REMARK  9 active torsions:
REMARK  status: ('A' for Active; 'I' for Inactive)
REMARK    1  A    between atoms: C_1  and  N_2
REMARK    2  A    between atoms: N_2  and  C_3
REMARK    3  A    between atoms: N_2  and  C_4
REMARK    4  A    between atoms: C_4  and  C_5
REMARK    5  A    between atoms: C_5  and  C_6
REMARK    6  A    between atoms: C_6  and  N_7
REMARK    7  A    between atoms: C_8  and  C_10
REMARK    8  A    between atoms: C_10  and  O_11
REMARK    9  A    between atoms: N_22  and  C_23
REMARK                            x       y       z     vdW  Elec       q    Type
REMARK                         _______ _______ _______ _____ _____    ______ ____
ROOT
ATOM      1  C   UNL     1      -1.657  12.797  20.205  0.00  0.00    +0.000 C 
ATOM      2  C   UNL     1      -2.509  12.849  21.457  0.00  0.00    +0.000 A 
ATOM      3  C   UNL     1      -3.705  13.584  21.548  0.00  0.00    +0.000 A 
ATOM      4  C   UNL     1      -4.468  13.541  22.713  0.00  0.00    +0.000 A 
ATOM      5 BR   UNL     1      -6.096  14.497  22.804  0.00  0.00    +0.000 Br
ATOM      6  C   UNL     1      -4.049  12.784  23.805  0.00  0.00    +0.000 A 
ATOM      7  C   UNL     1      -2.884  12.023  23.712  0.00  0.00    +0.000 A 
ATOM      8  C   UNL     1      -2.138  12.045  22.532  0.00  0.00    +0.000 A 
ATOM      9  N   UNL     1      -1.006  11.245  22.413  0.00  0.00    +0.000 N 
ATOM     10  C   UNL     1      -0.049  11.393  21.448  0.00  0.00    +0.000 C 
ATOM     11  O   UNL     1       0.972  10.713  21.522  0.00  0.00    +0.000 OA
ATOM     12  N   UNL     1      -0.278  12.389  20.509  0.00  0.00    +0.000 N 
ATOM     13  H   UNL     1      -0.743  10.619  23.165  0.00  0.00    +0.000 HD
ENDROOT
BRANCH  12  14
ATOM     14  C   UNL     1       0.841  13.034  19.913  0.00  0.00    +0.000 A 
ATOM     15  C   UNL     1       1.299  12.667  18.643  0.00  0.00    +0.000 A 
ATOM     16  C   UNL     1       2.488  13.205  18.137  0.00  0.00    +0.000 A 
ATOM     17  C   UNL     1       3.239  14.083  18.916  0.00  0.00    +0.000 A 
ATOM     18 CL   UNL     1       4.731  14.696  18.319  0.00  0.00    +0.000 Cl
ATOM     19  C   UNL     1       2.803  14.446  20.187  0.00  0.00    +0.000 A 
ATOM     20  C   UNL     1       1.602  13.929  20.678  0.00  0.00    +0.000 A 
ENDBRANCH  12  14
BRANCH   1  22
ATOM     21  N   UNL     1      -3.441  12.245  18.478  0.00  0.00    +0.000 N 
ATOM     22  C   UNL     1      -2.321  11.807  19.151  0.00  0.00    +0.000 C 
ATOM     23  O   UNL     1      -1.867  10.670  18.988  0.00  0.00    +0.000 OA
ATOM     24  H   UNL     1      -3.890  13.102  18.782  0.00  0.00    +0.000 HD
BRANCH  21  25
ATOM     25  C   UNL     1      -4.163  11.409  17.539  0.00  0.00    +0.000 C 
BRANCH  25  26
ATOM     26  C   UNL     1      -5.457  10.837  18.116  0.00  0.00    +0.000 C 
BRANCH  26  27
ATOM     27  C   UNL     1      -6.668  11.774  17.994  0.00  0.00    +0.000 C 
BRANCH  27  29
ATOM     28  C   UNL     1      -7.025  13.819  16.716  0.00  0.00    +0.000 C 
ATOM     29  N   UNL     1      -6.327  13.200  17.847  0.00  0.00    +0.000 NA
ATOM     30  C   UNL     1      -6.660  13.924  19.078  0.00  0.00    +0.000 C 
ENDBRANCH  27  29
ENDBRANCH  26  27
ENDBRANCH  25  26
ENDBRANCH  21  25
ENDBRANCH   1  22
BRANCH   1  31
ATOM     31  O   UNL     1      -1.680  14.099  19.607  0.00  0.00    +0.000 OA
ATOM     32  H   UNL     1      -1.356  14.712  20.294  0.00  0.00    +0.000 HD
ENDBRANCH   1  31
TORSDOF 7
ENDMDL
MODEL 9
REMARK VINA RESULT:      -6.5      7.757     10.588
REMARK  Name = 
REMARK  9 active torsions:
REMARK  status: ('A' for Active; 'I' for Inactive)
REMARK    1  A    between atoms: C_1  and  N_2
REMARK    2  A    between atoms: N_2  and  C_3
REMARK    3  A    between atoms: N_2  and  C_4
REMARK    4  A    between atoms: C_4  and  C_5
REMARK    5  A    between atoms: C_5  and  C_6
REMARK    6  A    between atoms: C_6  and  N_7
REMARK    7  A    between atoms: C_8  and  C_10
REMARK    8  A    between atoms: C_10  and  O_11
REMARK    9  A    between atoms: N_22  and  C_23
REMARK                            x       y       z     vdW  Elec       q    Type
REMARK                         _______ _______ _______ _____ _____    ______ ____
ROOT
ATOM      1  C   UNL     1      -0.223  11.791  19.014  0.00  0.00    +0.000 C 
ATOM      2  C   UNL     1      -1.599  11.653  18.393  0.00  0.00    +0.000 A 
ATOM      3  C   UNL     1      -1.817  11.129  17.106  0.00  0.00    +0.000 A 
ATOM      4  C   UNL     1      -3.115  10.978  16.621  0.00  0.00    +0.000 A 
ATOM      5 BR   UNL     1      -3.395  10.230  14.908  0.00  0.00    +0.000 Br
ATOM      6  C   UNL     1      -4.208  11.358  17.396  0.00  0.00    +0.000 A 
ATOM      7  C   UNL     1      -4.004  11.844  18.687  0.00  0.00    +0.000 A 
ATOM      8  C   UNL     1      -2.704  11.965  19.181  0.00  0.00    +0.000 A 
ATOM      9  N   UNL     1      -2.496  12.396  20.488  0.00  0.00    +0.000 N 
ATOM     10  C   UNL     1      -1.298  12.828  20.981  0.00  0.00    +0.000 C 
ATOM     11  O   UNL     1      -1.265  13.310  22.112  0.00  0.00    +0.000 OA
ATOM     12  N   UNL     1      -0.221  12.775  20.105  0.00  0.00    +0.000 N 
ATOM     13  H   UNL     1      -3.287  12.586  21.093  0.00  0.00    +0.000 HD
ENDROOT
BRANCH  12  14
ATOM     14  C   UNL     1       0.826  13.724  20.254  0.00  0.00    +0.000 A 
ATOM     15  C   UNL     1       2.020  13.392  20.905  0.00  0.00    +0.000 A 
ATOM     16  C   UNL     1       2.977  14.377  21.175  0.00  0.00    +0.000 A 
ATOM     17  C   UNL     1       2.724  15.703  20.828  0.00  0.00    +0.000 A 
ATOM     18 CL   UNL     1       3.872  16.924  21.215  0.00  0.00    +0.000 Cl
ATOM     19  C   UNL     1       1.535  16.051  20.193  0.00  0.00    +0.000 A 
ATOM     20  C   UNL     1       0.594  15.061  19.899  0.00  0.00    +0.000 A 
ENDBRANCH  12  14
BRANCH   1  22
ATOM     21  N   UNL     1       1.302   9.763  18.846  0.00  0.00    +0.000 N 
ATOM     22  C   UNL     1       0.272  10.370  19.530  0.00  0.00    +0.000 C 
ATOM     23  O   UNL     1      -0.291   9.820  20.482  0.00  0.00    +0.000 OA
ATOM     24  H   UNL     1       1.600  10.157  17.960  0.00  0.00    +0.000 HD
BRANCH  21  25
ATOM     25  C   UNL     1       1.796   8.444  19.190  0.00  0.00    +0.000 C 
BRANCH  25  26
ATOM     26  C   UNL     1       2.588   7.786  18.062  0.00  0.00    +0.000 C 
BRANCH  26  27
ATOM     27  C   UNL     1       2.756   6.266  18.214  0.00  0.00    +0.000 C 
BRANCH  27  29
ATOM     28  C   UNL     1       2.476   4.891  20.206  0.00  0.00    +0.000 C 
ATOM     29  N   UNL     1       3.340   5.840  19.498  0.00  0.00    +0.000 NA
ATOM     30  C   UNL     1       4.652   5.226  19.272  0.00  0.00    +0.000 C 
ENDBRANCH  27  29
ENDBRANCH  26  27
ENDBRANCH  25  26
ENDBRANCH  21  25
ENDBRANCH   1  22
BRANCH   1  31
ATOM     31  O   UNL     1       0.685  12.183  17.976  0.00  0.00    +0.000 OA
ATOM     32  H   UNL     1       1.158  11.371  17.716  0.00  0.00    +0.000 HD
ENDBRANCH   1  31
TORSDOF 7
ENDMDL
