MODEL 1
REMARK VINA RESULT:      -8.3      0.000      0.000
REMARK  Name = 
REMARK  10 active torsions:
REMARK  status: ('A' for Active; 'I' for Inactive)
REMARK    1  A    between atoms: C_1  and  C_2
REMARK    2  A    between atoms: C_3  and  C_4
REMARK    3  A    between atoms: C_4  and  C_5
REMARK    4  A    between atoms: C_12  and  C_13
REMARK    5  A    between atoms: C_17  and  C_18
REMARK    6  A    between atoms: C_19  and  C_20
REMARK    7  A    between atoms: N_22  and  O_23
REMARK    8  A    between atoms: N_25  and  C_26
REMARK    9  A    between atoms: C_26  and  C_27
REMARK   10  A    between atoms: C_27  and  N_28
REMARK                            x       y       z     vdW  Elec       q    Type
REMARK                         _______ _______ _______ _____ _____    ______ ____
ROOT
ATOM      1  C   UNL     1       1.333   6.857  20.275  0.00  0.00    +0.000 C 
ATOM      2  C   UNL     1       2.233   7.177  19.141  0.00  0.00    +0.000 A 
ATOM      3  C   UNL     1       2.087   8.079  18.100  0.00  0.00    +0.000 A 
ATOM      4  N   UNL     1       3.153   7.968  17.233  0.00  0.00    +0.000 NA
ATOM      5  C   UNL     1       3.914   6.981  17.674  0.00  0.00    +0.000 A 
ATOM      6  N   UNL     1       3.475   6.591  18.933  0.00  0.00    +0.000 N 
ENDROOT
BRANCH   5   7
ATOM      7  C   UNL     1       5.058   6.433  16.929  0.00  0.00    +0.000 A 
ATOM      8  C   UNL     1       6.369   6.759  17.291  0.00  0.00    +0.000 A 
ATOM      9  C   UNL     1       7.453   6.163  16.638  0.00  0.00    +0.000 A 
ATOM     10  C   UNL     1       7.237   5.218  15.629  0.00  0.00    +0.000 A 
ATOM     11  C   UNL     1       5.940   4.918  15.211  0.00  0.00    +0.000 A 
ATOM     12  C   UNL     1       4.873   5.573  15.839  0.00  0.00    +0.000 A 
BRANCH  11  13
ATOM     13  C   UNL     1       5.702   3.863  14.210  0.00  0.00    +0.000 C 
ATOM     14  C   UNL     1       6.127   3.928  12.937  0.00  0.00    +0.000 C 
BRANCH  14  15
ATOM     15  C   UNL     1       5.803   2.858  11.966  0.00  0.00    +0.000 C 
ATOM     16  O   UNL     1       4.697   2.710  11.461  0.00  0.00    +0.000 OA
ATOM     17  N   UNL     1       6.871   2.049  11.687  0.00  0.00    +0.000 N 
ATOM     18  H   UNL     1       7.782   2.089  12.129  0.00  0.00    +0.000 HD
BRANCH  17  19
ATOM     19  O   UNL     1       6.639   0.970  10.808  0.00  0.00    +0.000 OA
ATOM     20  H   UNL     1       7.180   0.254  11.210  0.00  0.00    +0.000 HD
ENDBRANCH  17  19
ENDBRANCH  14  15
ENDBRANCH  11  13
ENDBRANCH   5   7
BRANCH   3  21
ATOM     21  C   UNL     1       1.029   9.112  17.877  0.00  0.00    +0.000 C 
BRANCH  21  22
ATOM     22  C   UNL     1       1.365  10.347  18.683  0.00  0.00    +0.000 A 
ATOM     23  C   UNL     1       2.103  11.392  18.102  0.00  0.00    +0.000 A 
ATOM     24  C   UNL     1       2.313  12.589  18.791  0.00  0.00    +0.000 A 
ATOM     25  C   UNL     1       1.789  12.764  20.071  0.00  0.00    +0.000 A 
ATOM     26  C   UNL     1       1.060  11.736  20.663  0.00  0.00    +0.000 A 
ATOM     27  C   UNL     1       0.846  10.540  19.973  0.00  0.00    +0.000 A 
ENDBRANCH  21  22
ENDBRANCH   3  21
BRANCH   6  28
ATOM     28  C   UNL     1       4.104   5.664  19.859  0.00  0.00    +0.000 C 
BRANCH  28  29
ATOM     29  C   UNL     1       4.448   4.251  19.345  0.00  0.00    +0.000 C 
BRANCH  29  30
ATOM     30  N   UNL     1       3.381   3.282  19.217  0.00  0.00    +0.000 NA
ATOM     31  C   UNL     1       2.556   3.211  18.024  0.00  0.00    +0.000 C 
ATOM     32  C   UNL     1       1.061   3.458  18.295  0.00  0.00    +0.000 C 
ATOM     33  O   UNL     1       0.579   2.708  19.417  0.00  0.00    +0.000 OA
ATOM     34  C   UNL     1       1.328   3.046  20.593  0.00  0.00    +0.000 C 
ATOM     35  C   UNL     1       2.805   2.687  20.414  0.00  0.00    +0.000 C 
ENDBRANCH  29  30
ENDBRANCH  28  29
ENDBRANCH   6  28
TORSDOF 9
ENDMDL
MODEL 2
REMARK VINA RESULT:      -7.3      0.862      1.382
REMARK  Name = 
REMARK  10 active torsions:
REMARK  status: ('A' for Active; 'I' for Inactive)
REMARK    1  A    between atoms: C_1  and  C_2
REMARK    2  A    between atoms: C_3  and  C_4
REMARK    3  A    between atoms: C_4  and  C_5
REMARK    4  A    between atoms: C_12  and  C_13
REMARK    5  A    between atoms: C_17  and  C_18
REMARK    6  A    between atoms: C_19  and  C_20
REMARK    7  A    between atoms: N_22  and  O_23
REMARK    8  A    between atoms: N_25  and  C_26
REMARK    9  A    between atoms: C_26  and  C_27
REMARK   10  A    between atoms: C_27  and  N_28
REMARK                            x       y       z     vdW  Elec       q    Type
REMARK                         _______ _______ _______ _____ _____    ______ ____
ROOT
ATOM      1  C   UNL     1       1.023   7.350  20.164  0.00  0.00    +0.000 C 
ATOM      2  C   UNL     1       2.014   7.596  19.089  0.00  0.00    +0.000 A 
ATOM      3  C   UNL     1       1.983   8.473  18.017  0.00  0.00    +0.000 A 
ATOM      4  N   UNL     1       3.101   8.289  17.231  0.00  0.00    +0.000 NA
ATOM      5  C   UNL     1       3.781   7.281  17.750  0.00  0.00    +0.000 A 
ATOM      6  N   UNL     1       3.238   6.948  18.984  0.00  0.00    +0.000 N 
ENDROOT
BRANCH   5   7
ATOM      7  C   UNL     1       4.947   6.661  17.103  0.00  0.00    +0.000 A 
ATOM      8  C   UNL     1       6.241   6.906  17.574  0.00  0.00    +0.000 A 
ATOM      9  C   UNL     1       7.336   6.241  17.012  0.00  0.00    +0.000 A 
ATOM     10  C   UNL     1       7.147   5.308  15.987  0.00  0.00    +0.000 A 
ATOM     11  C   UNL     1       5.873   5.088  15.461  0.00  0.00    +0.000 A 
ATOM     12  C   UNL     1       4.800   5.811  16.000  0.00  0.00    +0.000 A 
BRANCH  11  13
ATOM     13  C   UNL     1       5.655   4.046  14.442  0.00  0.00    +0.000 C 
ATOM     14  C   UNL     1       5.555   4.295  13.126  0.00  0.00    +0.000 C 
BRANCH  14  15
ATOM     15  C   UNL     1       5.276   3.208  12.160  0.00  0.00    +0.000 C 
ATOM     16  O   UNL     1       4.242   3.125  11.508  0.00  0.00    +0.000 OA
ATOM     17  N   UNL     1       6.297   2.300  12.068  0.00  0.00    +0.000 N 
ATOM     18  H   UNL     1       7.137   2.288  12.634  0.00  0.00    +0.000 HD
BRANCH  17  19
ATOM     19  O   UNL     1       6.094   1.201  11.207  0.00  0.00    +0.000 OA
ATOM     20  H   UNL     1       5.974   1.640  10.335  0.00  0.00    +0.000 HD
ENDBRANCH  17  19
ENDBRANCH  14  15
ENDBRANCH  11  13
ENDBRANCH   5   7
BRANCH   3  21
ATOM     21  C   UNL     1       0.994   9.546  17.694  0.00  0.00    +0.000 C 
BRANCH  21  22
ATOM     22  C   UNL     1       1.290  10.766  18.539  0.00  0.00    +0.000 A 
ATOM     23  C   UNL     1       0.818  10.843  19.860  0.00  0.00    +0.000 A 
ATOM     24  C   UNL     1       1.187  11.903  20.691  0.00  0.00    +0.000 A 
ATOM     25  C   UNL     1       2.035  12.904  20.219  0.00  0.00    +0.000 A 
ATOM     26  C   UNL     1       2.507  12.845  18.910  0.00  0.00    +0.000 A 
ATOM     27  C   UNL     1       2.141  11.783  18.079  0.00  0.00    +0.000 A 
ENDBRANCH  21  22
ENDBRANCH   3  21
BRANCH   6  28
ATOM     28  C   UNL     1       3.756   6.020  19.976  0.00  0.00    +0.000 C 
BRANCH  28  29
ATOM     29  C   UNL     1       2.861   4.837  20.394  0.00  0.00    +0.000 C 
BRANCH  29  30
ATOM     30  N   UNL     1       3.166   3.520  19.879  0.00  0.00    +0.000 NA
ATOM     31  C   UNL     1       4.304   3.289  19.007  0.00  0.00    +0.000 C 
ATOM     32  C   UNL     1       3.916   2.738  17.623  0.00  0.00    +0.000 C 
ATOM     33  O   UNL     1       2.983   1.655  17.708  0.00  0.00    +0.000 OA
ATOM     34  C   UNL     1       1.795   2.082  18.389  0.00  0.00    +0.000 C 
ATOM     35  C   UNL     1       2.119   2.510  19.823  0.00  0.00    +0.000 C 
ENDBRANCH  29  30
ENDBRANCH  28  29
ENDBRANCH   6  28
TORSDOF 9
ENDMDL
MODEL 3
REMARK VINA RESULT:      -7.0      5.542     10.002
REMARK  Name = 
REMARK  10 active torsions:
REMARK  status: ('A' for Active; 'I' for Inactive)
REMARK    1  A    between atoms: C_1  and  C_2
REMARK    2  A    between atoms: C_3  and  C_4
REMARK    3  A    between atoms: C_4  and  C_5
REMARK    4  A    between atoms: C_12  and  C_13
REMARK    5  A    between atoms: C_17  and  C_18
REMARK    6  A    between atoms: C_19  and  C_20
REMARK    7  A    between atoms: N_22  and  O_23
REMARK    8  A    between atoms: N_25  and  C_26
REMARK    9  A    between atoms: C_26  and  C_27
REMARK   10  A    between atoms: C_27  and  N_28
REMARK                            x       y       z     vdW  Elec       q    Type
REMARK                         _______ _______ _______ _____ _____    ______ ____
ROOT
ATOM      1  C   UNL     1       2.335  11.924  19.531  0.00  0.00    +0.000 C 
ATOM      2  C   UNL     1       0.965  11.357  19.556  0.00  0.00    +0.000 A 
ATOM      3  C   UNL     1       0.483  10.186  20.119  0.00  0.00    +0.000 A 
ATOM      4  N   UNL     1      -0.854  10.037  19.814  0.00  0.00    +0.000 NA
ATOM      5  C   UNL     1      -1.188  11.044  19.024  0.00  0.00    +0.000 A 
ATOM      6  N   UNL     1      -0.148  11.964  18.989  0.00  0.00    +0.000 N 
ENDROOT
BRANCH   5   7
ATOM      7  C   UNL     1      -2.485  11.151  18.338  0.00  0.00    +0.000 A 
ATOM      8  C   UNL     1      -3.555  11.827  18.933  0.00  0.00    +0.000 A 
ATOM      9  C   UNL     1      -4.755  12.004  18.236  0.00  0.00    +0.000 A 
ATOM     10  C   UNL     1      -4.891  11.525  16.929  0.00  0.00    +0.000 A 
ATOM     11  C   UNL     1      -3.858  10.797  16.334  0.00  0.00    +0.000 A 
ATOM     12  C   UNL     1      -2.688  10.582  17.075  0.00  0.00    +0.000 A 
BRANCH  11  13
ATOM     13  C   UNL     1      -3.961  10.364  14.930  0.00  0.00    +0.000 C 
ATOM     14  C   UNL     1      -2.918   9.934  14.200  0.00  0.00    +0.000 C 
BRANCH  14  15
ATOM     15  C   UNL     1      -3.080   9.570  12.774  0.00  0.00    +0.000 C 
ATOM     16  O   UNL     1      -2.151   9.239  12.046  0.00  0.00    +0.000 OA
ATOM     17  N   UNL     1      -4.379   9.639  12.349  0.00  0.00    +0.000 N 
ATOM     18  H   UNL     1      -5.167   9.972  12.892  0.00  0.00    +0.000 HD
BRANCH  17  19
ATOM     19  O   UNL     1      -4.619   9.357  10.988  0.00  0.00    +0.000 OA
ATOM     20  H   UNL     1      -5.559   9.626  10.882  0.00  0.00    +0.000 HD
ENDBRANCH  17  19
ENDBRANCH  14  15
ENDBRANCH  11  13
ENDBRANCH   5   7
BRANCH   3  21
ATOM     21  C   UNL     1       1.176   9.198  21.000  0.00  0.00    +0.000 C 
BRANCH  21  22
ATOM     22  C   UNL     1       1.736   8.080  20.148  0.00  0.00    +0.000 A 
ATOM     23  C   UNL     1       1.726   6.757  20.620  0.00  0.00    +0.000 A 
ATOM     24  C   UNL     1       2.124   5.701  19.798  0.00  0.00    +0.000 A 
ATOM     25  C   UNL     1       2.537   5.946  18.489  0.00  0.00    +0.000 A 
ATOM     26  C   UNL     1       2.558   7.253  18.007  0.00  0.00    +0.000 A 
ATOM     27  C   UNL     1       2.157   8.310  18.829  0.00  0.00    +0.000 A 
ENDBRANCH  21  22
ENDBRANCH   3  21
BRANCH   6  28
ATOM     28  C   UNL     1      -0.136  13.288  18.389  0.00  0.00    +0.000 C 
BRANCH  28  29
ATOM     29  C   UNL     1      -0.825  14.434  19.158  0.00  0.00    +0.000 C 
BRANCH  29  30
ATOM     30  N   UNL     1      -0.033  15.578  19.555  0.00  0.00    +0.000 NA
ATOM     31  C   UNL     1      -0.124  16.847  18.854  0.00  0.00    +0.000 C 
ATOM     32  C   UNL     1       1.205  17.299  18.223  0.00  0.00    +0.000 C 
ATOM     33  O   UNL     1       2.308  17.180  19.130  0.00  0.00    +0.000 OA
ATOM     34  C   UNL     1       2.439  15.821  19.570  0.00  0.00    +0.000 C 
ATOM     35  C   UNL     1       1.185  15.374  20.327  0.00  0.00    +0.000 C 
ENDBRANCH  29  30
ENDBRANCH  28  29
ENDBRANCH   6  28
TORSDOF 9
ENDMDL
MODEL 4
REMARK VINA RESULT:      -6.9      5.937     10.790
REMARK  Name = 
REMARK  10 active torsions:
REMARK  status: ('A' for Active; 'I' for Inactive)
REMARK    1  A    between atoms: C_1  and  C_2
REMARK    2  A    between atoms: C_3  and  C_4
REMARK    3  A    between atoms: C_4  and  C_5
REMARK    4  A    between atoms: C_12  and  C_13
REMARK    5  A    between atoms: C_17  and  C_18
REMARK    6  A    between atoms: C_19  and  C_20
REMARK    7  A    between atoms: N_22  and  O_23
REMARK    8  A    between atoms: N_25  and  C_26
REMARK    9  A    between atoms: C_26  and  C_27
REMARK   10  A    between atoms: C_27  and  N_28
REMARK                            x       y       z     vdW  Elec       q    Type
REMARK                         _______ _______ _______ _____ _____    ______ ____
ROOT
ATOM      1  C   UNL     1       2.594   8.110  17.332  0.00  0.00    +0.000 C 
ATOM      2  C   UNL     1       2.113   8.282  18.724  0.00  0.00    +0.000 A 
ATOM      3  C   UNL     1       2.230   7.454  19.828  0.00  0.00    +0.000 A 
ATOM      4  N   UNL     1       1.548   8.000  20.895  0.00  0.00    +0.000 NA
ATOM      5  C   UNL     1       0.961   9.102  20.460  0.00  0.00    +0.000 A 
ATOM      6  N   UNL     1       1.427   9.398  19.186  0.00  0.00    +0.000 N 
ENDROOT
BRANCH   5   7
ATOM      7  C   UNL     1      -0.005   9.881  21.251  0.00  0.00    +0.000 A 
ATOM      8  C   UNL     1      -0.195   9.617  22.611  0.00  0.00    +0.000 A 
ATOM      9  C   UNL     1      -1.045  10.421  23.376  0.00  0.00    +0.000 A 
ATOM     10  C   UNL     1      -1.698  11.513  22.795  0.00  0.00    +0.000 A 
ATOM     11  C   UNL     1      -1.570  11.764  21.427  0.00  0.00    +0.000 A 
ATOM     12  C   UNL     1      -0.760  10.908  20.670  0.00  0.00    +0.000 A 
BRANCH  11  13
ATOM     13  C   UNL     1      -2.185  12.960  20.826  0.00  0.00    +0.000 C 
ATOM     14  C   UNL     1      -2.478  14.078  21.512  0.00  0.00    +0.000 C 
BRANCH  14  15
ATOM     15  C   UNL     1      -3.151  15.223  20.859  0.00  0.00    +0.000 C 
ATOM     16  O   UNL     1      -2.701  16.363  20.850  0.00  0.00    +0.000 OA
ATOM     17  N   UNL     1      -4.333  14.878  20.261  0.00  0.00    +0.000 N 
ATOM     18  H   UNL     1      -4.778  13.969  20.300  0.00  0.00    +0.000 HD
BRANCH  17  19
ATOM     19  O   UNL     1      -5.068  15.919  19.656  0.00  0.00    +0.000 OA
ATOM     20  H   UNL     1      -5.351  16.452  20.433  0.00  0.00    +0.000 HD
ENDBRANCH  17  19
ENDBRANCH  14  15
ENDBRANCH  11  13
ENDBRANCH   5   7
BRANCH   3  21
ATOM     21  C   UNL     1       3.005   6.186  19.989  0.00  0.00    +0.000 C 
BRANCH  21  22
ATOM     22  C   UNL     1       2.127   5.016  19.605  0.00  0.00    +0.000 A 
ATOM     23  C   UNL     1       2.092   4.563  18.275  0.00  0.00    +0.000 A 
ATOM     24  C   UNL     1       1.384   3.410  17.930  0.00  0.00    +0.000 A 
ATOM     25  C   UNL     1       0.700   2.687  18.906  0.00  0.00    +0.000 A 
ATOM     26  C   UNL     1       0.720   3.124  20.228  0.00  0.00    +0.000 A 
ATOM     27  C   UNL     1       1.431   4.277  20.574  0.00  0.00    +0.000 A 
ENDBRANCH  21  22
ENDBRANCH   3  21
BRANCH   6  28
ATOM     28  C   UNL     1       1.185  10.592  18.393  0.00  0.00    +0.000 C 
BRANCH  28  29
ATOM     29  C   UNL     1       2.368  11.553  18.157  0.00  0.00    +0.000 C 
BRANCH  29  30
ATOM     30  N   UNL     1       2.245  12.926  18.597  0.00  0.00    +0.000 NA
ATOM     31  C   UNL     1       3.164  13.955  18.144  0.00  0.00    +0.000 C 
ATOM     32  C   UNL     1       3.952  14.621  19.286  0.00  0.00    +0.000 C 
ATOM     33  O   UNL     1       3.111  14.993  20.385  0.00  0.00    +0.000 OA
ATOM     34  C   UNL     1       2.433  13.838  20.898  0.00  0.00    +0.000 C 
ATOM     35  C   UNL     1       1.528  13.223  19.828  0.00  0.00    +0.000 C 
ENDBRANCH  29  30
ENDBRANCH  28  29
ENDBRANCH   6  28
TORSDOF 9
ENDMDL
MODEL 5
REMARK VINA RESULT:      -6.9      4.924      8.347
REMARK  Name = 
REMARK  10 active torsions:
REMARK  status: ('A' for Active; 'I' for Inactive)
REMARK    1  A    between atoms: C_1  and  C_2
REMARK    2  A    between atoms: C_3  and  C_4
REMARK    3  A    between atoms: C_4  and  C_5
REMARK    4  A    between atoms: C_12  and  C_13
REMARK    5  A    between atoms: C_17  and  C_18
REMARK    6  A    between atoms: C_19  and  C_20
REMARK    7  A    between atoms: N_22  and  O_23
REMARK    8  A    between atoms: N_25  and  C_26
REMARK    9  A    between atoms: C_26  and  C_27
REMARK   10  A    between atoms: C_27  and  N_28
REMARK                            x       y       z     vdW  Elec       q    Type
REMARK                         _______ _______ _______ _____ _____    ______ ____
ROOT
ATOM      1  C   UNL     1       1.475  12.290  21.487  0.00  0.00    +0.000 C 
ATOM      2  C   UNL     1       0.492  12.647  20.437  0.00  0.00    +0.000 A 
ATOM      3  C   UNL     1       0.084  13.885  19.966  0.00  0.00    +0.000 A 
ATOM      4  N   UNL     1      -0.919  13.723  19.034  0.00  0.00    +0.000 NA
ATOM      5  C   UNL     1      -1.185  12.429  18.969  0.00  0.00    +0.000 A 
ATOM      6  N   UNL     1      -0.223  11.726  19.682  0.00  0.00    +0.000 N 
ENDROOT
BRANCH   5   7
ATOM      7  C   UNL     1      -2.316  11.863  18.217  0.00  0.00    +0.000 A 
ATOM      8  C   UNL     1      -3.617  11.927  18.725  0.00  0.00    +0.000 A 
ATOM      9  C   UNL     1      -4.698  11.470  17.964  0.00  0.00    +0.000 A 
ATOM     10  C   UNL     1      -4.491  10.964  16.676  0.00  0.00    +0.000 A 
ATOM     11  C   UNL     1      -3.197  10.837  16.169  0.00  0.00    +0.000 A 
ATOM     12  C   UNL     1      -2.126  11.245  16.974  0.00  0.00    +0.000 A 
BRANCH  11  13
ATOM     13  C   UNL     1      -2.979  10.385  14.783  0.00  0.00    +0.000 C 
ATOM     14  C   UNL     1      -3.970  10.096  13.924  0.00  0.00    +0.000 C 
BRANCH  14  15
ATOM     15  C   UNL     1      -3.682   9.589  12.563  0.00  0.00    +0.000 C 
ATOM     16  O   UNL     1      -2.561   9.283  12.174  0.00  0.00    +0.000 OA
ATOM     17  N   UNL     1      -4.801   9.496  11.779  0.00  0.00    +0.000 N 
ATOM     18  H   UNL     1      -5.733   9.801  12.032  0.00  0.00    +0.000 HD
BRANCH  17  19
ATOM     19  O   UNL     1      -4.611   9.069  10.449  0.00  0.00    +0.000 OA
ATOM     20  H   UNL     1      -3.650   8.861  10.432  0.00  0.00    +0.000 HD
ENDBRANCH  17  19
ENDBRANCH  14  15
ENDBRANCH  11  13
ENDBRANCH   5   7
BRANCH   3  21
ATOM     21  C   UNL     1       0.617  15.246  20.281  0.00  0.00    +0.000 C 
BRANCH  21  22
ATOM     22  C   UNL     1       1.644  15.630  19.238  0.00  0.00    +0.000 A 
ATOM     23  C   UNL     1       2.677  14.740  18.899  0.00  0.00    +0.000 A 
ATOM     24  C   UNL     1       3.556  15.028  17.853  0.00  0.00    +0.000 A 
ATOM     25  C   UNL     1       3.419  16.210  17.126  0.00  0.00    +0.000 A 
ATOM     26  C   UNL     1       2.404  17.106  17.453  0.00  0.00    +0.000 A 
ATOM     27  C   UNL     1       1.522  16.816  18.497  0.00  0.00    +0.000 A 
ENDBRANCH  21  22
ENDBRANCH   3  21
BRANCH   6  28
ATOM     28  C   UNL     1      -0.022  10.288  19.748  0.00  0.00    +0.000 C 
BRANCH  28  29
ATOM     29  C   UNL     1       0.866   9.633  18.672  0.00  0.00    +0.000 C 
BRANCH  29  30
ATOM     30  N   UNL     1       1.871   8.679  19.087  0.00  0.00    +0.000 NA
ATOM     31  C   UNL     1       2.651   7.925  18.121  0.00  0.00    +0.000 C 
ATOM     32  C   UNL     1       2.468   6.401  18.239  0.00  0.00    +0.000 C 
ATOM     33  O   UNL     1       2.565   5.943  19.593  0.00  0.00    +0.000 OA
ATOM     34  C   UNL     1       1.577   6.594  20.404  0.00  0.00    +0.000 C 
ATOM     35  C   UNL     1       1.808   8.108  20.425  0.00  0.00    +0.000 C 
ENDBRANCH  29  30
ENDBRANCH  28  29
ENDBRANCH   6  28
TORSDOF 9
ENDMDL
MODEL 6
REMARK VINA RESULT:      -6.8      4.508      7.875
REMARK  Name = 
REMARK  10 active torsions:
REMARK  status: ('A' for Active; 'I' for Inactive)
REMARK    1  A    between atoms: C_1  and  C_2
REMARK    2  A    between atoms: C_3  and  C_4
REMARK    3  A    between atoms: C_4  and  C_5
REMARK    4  A    between atoms: C_12  and  C_13
REMARK    5  A    between atoms: C_17  and  C_18
REMARK    6  A    between atoms: C_19  and  C_20
REMARK    7  A    between atoms: N_22  and  O_23
REMARK    8  A    between atoms: N_25  and  C_26
REMARK    9  A    between atoms: C_26  and  C_27
REMARK   10  A    between atoms: C_27  and  N_28
REMARK                            x       y       z     vdW  Elec       q    Type
REMARK                         _______ _______ _______ _____ _____    ______ ____
ROOT
ATOM      1  C   UNL     1      -0.409  14.206  18.638  0.00  0.00    +0.000 C 
ATOM      2  C   UNL     1      -0.467  12.724  18.646  0.00  0.00    +0.000 A 
ATOM      3  C   UNL     1      -1.549  11.863  18.564  0.00  0.00    +0.000 A 
ATOM      4  N   UNL     1      -1.119  10.560  18.696  0.00  0.00    +0.000 NA
ATOM      5  C   UNL     1       0.183  10.599  18.923  0.00  0.00    +0.000 A 
ATOM      6  N   UNL     1       0.644  11.894  18.726  0.00  0.00    +0.000 N 
ENDROOT
BRANCH   5   7
ATOM      7  C   UNL     1       0.986   9.423  19.293  0.00  0.00    +0.000 A 
ATOM      8  C   UNL     1       0.884   8.860  20.568  0.00  0.00    +0.000 A 
ATOM      9  C   UNL     1       1.580   7.687  20.882  0.00  0.00    +0.000 A 
ATOM     10  C   UNL     1       2.369   7.054  19.916  0.00  0.00    +0.000 A 
ATOM     11  C   UNL     1       2.532   7.627  18.654  0.00  0.00    +0.000 A 
ATOM     12  C   UNL     1       1.872   8.833  18.383  0.00  0.00    +0.000 A 
BRANCH  11  13
ATOM     13  C   UNL     1       3.291   6.922  17.605  0.00  0.00    +0.000 C 
ATOM     14  C   UNL     1       4.089   5.867  17.839  0.00  0.00    +0.000 C 
BRANCH  14  15
ATOM     15  C   UNL     1       4.871   5.241  16.748  0.00  0.00    +0.000 C 
ATOM     16  O   UNL     1       5.144   5.806  15.696  0.00  0.00    +0.000 OA
ATOM     17  N   UNL     1       5.261   3.961  17.037  0.00  0.00    +0.000 N 
ATOM     18  H   UNL     1       5.001   3.430  17.860  0.00  0.00    +0.000 HD
BRANCH  17  19
ATOM     19  O   UNL     1       5.968   3.270  16.032  0.00  0.00    +0.000 OA
ATOM     20  H   UNL     1       6.702   2.857  16.540  0.00  0.00    +0.000 HD
ENDBRANCH  17  19
ENDBRANCH  14  15
ENDBRANCH  11  13
ENDBRANCH   5   7
BRANCH   3  21
ATOM     21  C   UNL     1      -2.989  12.166  18.302  0.00  0.00    +0.000 C 
BRANCH  21  22
ATOM     22  C   UNL     1      -3.712  12.322  19.621  0.00  0.00    +0.000 A 
ATOM     23  C   UNL     1      -3.007  12.704  20.775  0.00  0.00    +0.000 A 
ATOM     24  C   UNL     1      -3.678  12.971  21.969  0.00  0.00    +0.000 A 
ATOM     25  C   UNL     1      -5.067  12.865  22.033  0.00  0.00    +0.000 A 
ATOM     26  C   UNL     1      -5.782  12.482  20.901  0.00  0.00    +0.000 A 
ATOM     27  C   UNL     1      -5.109  12.217  19.704  0.00  0.00    +0.000 A 
ENDBRANCH  21  22
ENDBRANCH   3  21
BRANCH   6  28
ATOM     28  C   UNL     1       2.018  12.368  18.702  0.00  0.00    +0.000 C 
BRANCH  28  29
ATOM     29  C   UNL     1       2.490  13.269  19.861  0.00  0.00    +0.000 C 
BRANCH  29  30
ATOM     30  N   UNL     1       3.348  14.394  19.559  0.00  0.00    +0.000 NA
ATOM     31  C   UNL     1       3.270  15.634  20.311  0.00  0.00    +0.000 C 
ATOM     32  C   UNL     1       2.904  16.855  19.449  0.00  0.00    +0.000 C 
ATOM     33  O   UNL     1       3.673  16.921  18.242  0.00  0.00    +0.000 OA
ATOM     34  C   UNL     1       3.477  15.728  17.469  0.00  0.00    +0.000 C 
ATOM     35  C   UNL     1       3.959  14.498  18.242  0.00  0.00    +0.000 C 
ENDBRANCH  29  30
ENDBRANCH  28  29
ENDBRANCH   6  28
TORSDOF 9
ENDMDL
MODEL 7
REMARK VINA RESULT:      -6.8      4.908      8.180
REMARK  Name = 
REMARK  10 active torsions:
REMARK  status: ('A' for Active; 'I' for Inactive)
REMARK    1  A    between atoms: C_1  and  C_2
REMARK    2  A    between atoms: C_3  and  C_4
REMARK    3  A    between atoms: C_4  and  C_5
REMARK    4  A    between atoms: C_12  and  C_13
REMARK    5  A    between atoms: C_17  and  C_18
REMARK    6  A    between atoms: C_19  and  C_20
REMARK    7  A    between atoms: N_22  and  O_23
REMARK    8  A    between atoms: N_25  and  C_26
REMARK    9  A    between atoms: C_26  and  C_27
REMARK   10  A    between atoms: C_27  and  N_28
REMARK                            x       y       z     vdW  Elec       q    Type
REMARK                         _______ _______ _______ _____ _____    ______ ____
ROOT
ATOM      1  C   UNL     1      -3.262  13.214  19.886  0.00  0.00    +0.000 C 
ATOM      2  C   UNL     1      -2.426  12.121  19.334  0.00  0.00    +0.000 A 
ATOM      3  C   UNL     1      -2.582  11.357  18.189  0.00  0.00    +0.000 A 
ATOM      4  N   UNL     1      -1.592  10.398  18.130  0.00  0.00    +0.000 NA
ATOM      5  C   UNL     1      -0.876  10.507  19.236  0.00  0.00    +0.000 A 
ATOM      6  N   UNL     1      -1.249  11.662  19.912  0.00  0.00    +0.000 N 
ENDROOT
BRANCH   5   7
ATOM      7  C   UNL     1       0.167   9.550  19.634  0.00  0.00    +0.000 A 
ATOM      8  C   UNL     1       0.222   9.052  20.940  0.00  0.00    +0.000 A 
ATOM      9  C   UNL     1       1.159   8.073  21.286  0.00  0.00    +0.000 A 
ATOM     10  C   UNL     1       2.038   7.565  20.324  0.00  0.00    +0.000 A 
ATOM     11  C   UNL     1       2.042   8.086  19.028  0.00  0.00    +0.000 A 
ATOM     12  C   UNL     1       1.135   9.108  18.722  0.00  0.00    +0.000 A 
BRANCH  11  13
ATOM     13  C   UNL     1       2.906   7.497  17.989  0.00  0.00    +0.000 C 
ATOM     14  C   UNL     1       3.444   6.269  18.069  0.00  0.00    +0.000 C 
BRANCH  14  15
ATOM     15  C   UNL     1       4.352   5.761  17.016  0.00  0.00    +0.000 C 
ATOM     16  O   UNL     1       4.568   4.571  16.819  0.00  0.00    +0.000 OA
ATOM     17  N   UNL     1       4.928   6.761  16.279  0.00  0.00    +0.000 N 
ATOM     18  H   UNL     1       4.834   7.755  16.448  0.00  0.00    +0.000 HD
BRANCH  17  19
ATOM     19  O   UNL     1       5.848   6.368  15.284  0.00  0.00    +0.000 OA
ATOM     20  H   UNL     1       5.473   6.787  14.477  0.00  0.00    +0.000 HD
ENDBRANCH  17  19
ENDBRANCH  14  15
ENDBRANCH  11  13
ENDBRANCH   5   7
BRANCH   3  21
ATOM     21  C   UNL     1      -3.574  11.496  17.079  0.00  0.00    +0.000 C 
BRANCH  21  22
ATOM     22  C   UNL     1      -4.967  11.556  17.665  0.00  0.00    +0.000 A 
ATOM     23  C   UNL     1      -5.413  10.550  18.538  0.00  0.00    +0.000 A 
ATOM     24  C   UNL     1      -6.647  10.656  19.182  0.00  0.00    +0.000 A 
ATOM     25  C   UNL     1      -7.459  11.769  18.967  0.00  0.00    +0.000 A 
ATOM     26  C   UNL     1      -7.035  12.773  18.100  0.00  0.00    +0.000 A 
ATOM     27  C   UNL     1      -5.798  12.669  17.458  0.00  0.00    +0.000 A 
ENDBRANCH  21  22
ENDBRANCH   3  21
BRANCH   6  28
ATOM     28  C   UNL     1      -0.624  12.266  21.077  0.00  0.00    +0.000 C 
BRANCH  28  29
ATOM     29  C   UNL     1       0.221  13.538  20.864  0.00  0.00    +0.000 C 
BRANCH  29  30
ATOM     30  N   UNL     1       0.793  13.781  19.558  0.00  0.00    +0.000 NA
ATOM     31  C   UNL     1       1.959  13.052  19.090  0.00  0.00    +0.000 C 
ATOM     32  C   UNL     1       3.165  13.955  18.776  0.00  0.00    +0.000 C 
ATOM     33  O   UNL     1       2.801  15.095  17.989  0.00  0.00    +0.000 OA
ATOM     34  C   UNL     1       1.805  15.869  18.673  0.00  0.00    +0.000 C 
ATOM     35  C   UNL     1       0.532  15.044  18.884  0.00  0.00    +0.000 C 
ENDBRANCH  29  30
ENDBRANCH  28  29
ENDBRANCH   6  28
TORSDOF 9
ENDMDL
MODEL 8
REMARK VINA RESULT:      -6.8      3.719      8.046
REMARK  Name = 
REMARK  10 active torsions:
REMARK  status: ('A' for Active; 'I' for Inactive)
REMARK    1  A    between atoms: C_1  and  C_2
REMARK    2  A    between atoms: C_3  and  C_4
REMARK    3  A    between atoms: C_4  and  C_5
REMARK    4  A    between atoms: C_12  and  C_13
REMARK    5  A    between atoms: C_17  and  C_18
REMARK    6  A    between atoms: C_19  and  C_20
REMARK    7  A    between atoms: N_22  and  O_23
REMARK    8  A    between atoms: N_25  and  C_26
REMARK    9  A    between atoms: C_26  and  C_27
REMARK   10  A    between atoms: C_27  and  N_28
REMARK                            x       y       z     vdW  Elec       q    Type
REMARK                         _______ _______ _______ _____ _____    ______ ____
ROOT
ATOM      1  C   UNL     1       3.951   3.916  17.027  0.00  0.00    +0.000 C 
ATOM      2  C   UNL     1       3.662   5.329  17.372  0.00  0.00    +0.000 A 
ATOM      3  C   UNL     1       4.382   6.486  17.118  0.00  0.00    +0.000 A 
ATOM      4  N   UNL     1       3.756   7.564  17.707  0.00  0.00    +0.000 NA
ATOM      5  C   UNL     1       2.713   7.095  18.371  0.00  0.00    +0.000 A 
ATOM      6  N   UNL     1       2.526   5.758  18.045  0.00  0.00    +0.000 N 
ENDROOT
BRANCH   5   7
ATOM      7  C   UNL     1       1.887   7.907  19.278  0.00  0.00    +0.000 A 
ATOM      8  C   UNL     1       1.693   7.520  20.608  0.00  0.00    +0.000 A 
ATOM      9  C   UNL     1       0.984   8.344  21.488  0.00  0.00    +0.000 A 
ATOM     10  C   UNL     1       0.479   9.574  21.053  0.00  0.00    +0.000 A 
ATOM     11  C   UNL     1       0.610   9.957  19.717  0.00  0.00    +0.000 A 
ATOM     12  C   UNL     1       1.272   9.087  18.841  0.00  0.00    +0.000 A 
BRANCH  11  13
ATOM     13  C   UNL     1       0.157  11.287  19.272  0.00  0.00    +0.000 C 
ATOM     14  C   UNL     1       0.494  12.436  19.882  0.00  0.00    +0.000 C 
BRANCH  14  15
ATOM     15  C   UNL     1      -0.045  13.735  19.419  0.00  0.00    +0.000 C 
ATOM     16  O   UNL     1       0.531  14.466  18.622  0.00  0.00    +0.000 OA
ATOM     17  N   UNL     1      -1.260  14.037  19.973  0.00  0.00    +0.000 N 
ATOM     18  H   UNL     1      -1.741  13.500  20.685  0.00  0.00    +0.000 HD
BRANCH  17  19
ATOM     19  O   UNL     1      -1.824  15.283  19.625  0.00  0.00    +0.000 OA
ATOM     20  H   UNL     1      -2.787  15.081  19.622  0.00  0.00    +0.000 HD
ENDBRANCH  17  19
ENDBRANCH  14  15
ENDBRANCH  11  13
ENDBRANCH   5   7
BRANCH   3  21
ATOM     21  C   UNL     1       5.611   6.679  16.289  0.00  0.00    +0.000 C 
BRANCH  21  22
ATOM     22  C   UNL     1       6.764   7.057  17.192  0.00  0.00    +0.000 A 
ATOM     23  C   UNL     1       7.256   8.373  17.198  0.00  0.00    +0.000 A 
ATOM     24  C   UNL     1       8.235   8.767  18.113  0.00  0.00    +0.000 A 
ATOM     25  C   UNL     1       8.738   7.854  19.040  0.00  0.00    +0.000 A 
ATOM     26  C   UNL     1       8.265   6.544  19.044  0.00  0.00    +0.000 A 
ATOM     27  C   UNL     1       7.283   6.151  18.130  0.00  0.00    +0.000 A 
ENDBRANCH  21  22
ENDBRANCH   3  21
BRANCH   6  28
ATOM     28  C   UNL     1       1.416   4.890  18.404  0.00  0.00    +0.000 C 
BRANCH  28  29
ATOM     29  C   UNL     1       1.401   4.288  19.824  0.00  0.00    +0.000 C 
BRANCH  29  30
ATOM     30  N   UNL     1       2.008   2.992  20.035  0.00  0.00    +0.000 NA
ATOM     31  C   UNL     1       3.176   2.828  20.882  0.00  0.00    +0.000 C 
ATOM     32  C   UNL     1       4.400   2.262  20.140  0.00  0.00    +0.000 C 
ATOM     33  O   UNL     1       4.070   1.129  19.328  0.00  0.00    +0.000 OA
ATOM     34  C   UNL     1       3.067   1.488  18.367  0.00  0.00    +0.000 C 
ATOM     35  C   UNL     1       1.779   1.927  19.069  0.00  0.00    +0.000 C 
ENDBRANCH  29  30
ENDBRANCH  28  29
ENDBRANCH   6  28
TORSDOF 9
ENDMDL
MODEL 9
REMARK VINA RESULT:      -6.8      3.838      8.803
REMARK  Name = 
REMARK  10 active torsions:
REMARK  status: ('A' for Active; 'I' for Inactive)
REMARK    1  A    between atoms: C_1  and  C_2
REMARK    2  A    between atoms: C_3  and  C_4
REMARK    3  A    between atoms: C_4  and  C_5
REMARK    4  A    between atoms: C_12  and  C_13
REMARK    5  A    between atoms: C_17  and  C_18
REMARK    6  A    between atoms: C_19  and  C_20
REMARK    7  A    between atoms: N_22  and  O_23
REMARK    8  A    between atoms: N_25  and  C_26
REMARK    9  A    between atoms: C_26  and  C_27
REMARK   10  A    between atoms: C_27  and  N_28
REMARK                            x       y       z     vdW  Elec       q    Type
REMARK                         _______ _______ _______ _____ _____    ______ ____
ROOT
ATOM      1  C   UNL     1       4.084   4.968  18.774  0.00  0.00    +0.000 C 
ATOM      2  C   UNL     1       3.287   6.218  18.823  0.00  0.00    +0.000 A 
ATOM      3  C   UNL     1       3.284   7.319  17.983  0.00  0.00    +0.000 A 
ATOM      4  N   UNL     1       2.428   8.281  18.478  0.00  0.00    +0.000 NA
ATOM      5  C   UNL     1       1.960   7.831  19.630  0.00  0.00    +0.000 A 
ATOM      6  N   UNL     1       2.327   6.501  19.786  0.00  0.00    +0.000 N 
ENDROOT
BRANCH   5   7
ATOM      7  C   UNL     1       1.151   8.639  20.556  0.00  0.00    +0.000 A 
ATOM      8  C   UNL     1       1.315   8.520  21.940  0.00  0.00    +0.000 A 
ATOM      9  C   UNL     1       0.609   9.356  22.811  0.00  0.00    +0.000 A 
ATOM     10  C   UNL     1      -0.254  10.335  22.307  0.00  0.00    +0.000 A 
ATOM     11  C   UNL     1      -0.479  10.436  20.932  0.00  0.00    +0.000 A 
ATOM     12  C   UNL     1       0.195   9.547  20.084  0.00  0.00    +0.000 A 
BRANCH  11  13
ATOM     13  C   UNL     1      -1.319  11.518  20.389  0.00  0.00    +0.000 C 
ATOM     14  C   UNL     1      -1.974  12.411  21.150  0.00  0.00    +0.000 C 
BRANCH  14  15
ATOM     15  C   UNL     1      -2.850  13.438  20.542  0.00  0.00    +0.000 C 
ATOM     16  O   UNL     1      -2.598  14.637  20.545  0.00  0.00    +0.000 OA
ATOM     17  N   UNL     1      -3.977  12.909  19.971  0.00  0.00    +0.000 N 
ATOM     18  H   UNL     1      -4.262  11.937  20.004  0.00  0.00    +0.000 HD
BRANCH  17  19
ATOM     19  O   UNL     1      -4.895  13.822  19.411  0.00  0.00    +0.000 OA
ATOM     20  H   UNL     1      -4.426  14.680  19.518  0.00  0.00    +0.000 HD
ENDBRANCH  17  19
ENDBRANCH  14  15
ENDBRANCH  11  13
ENDBRANCH   5   7
BRANCH   3  21
ATOM     21  C   UNL     1       3.988   7.526  16.681  0.00  0.00    +0.000 C 
BRANCH  21  22
ATOM     22  C   UNL     1       5.165   6.578  16.598  0.00  0.00    +0.000 A 
ATOM     23  C   UNL     1       5.164   5.528  15.665  0.00  0.00    +0.000 A 
ATOM     24  C   UNL     1       6.291   4.723  15.492  0.00  0.00    +0.000 A 
ATOM     25  C   UNL     1       7.441   4.953  16.246  0.00  0.00    +0.000 A 
ATOM     26  C   UNL     1       7.458   5.986  17.180  0.00  0.00    +0.000 A 
ATOM     27  C   UNL     1       6.330   6.794  17.351  0.00  0.00    +0.000 A 
ENDBRANCH  21  22
ENDBRANCH   3  21
BRANCH   6  28
ATOM     28  C   UNL     1       1.900   5.563  20.811  0.00  0.00    +0.000 C 
BRANCH  28  29
ATOM     29  C   UNL     1       0.838   4.512  20.430  0.00  0.00    +0.000 C 
BRANCH  29  30
ATOM     30  N   UNL     1       1.270   3.159  20.150  0.00  0.00    +0.000 NA
ATOM     31  C   UNL     1       2.384   2.554  20.860  0.00  0.00    +0.000 C 
ATOM     32  C   UNL     1       3.547   2.139  19.941  0.00  0.00    +0.000 C 
ATOM     33  O   UNL     1       3.099   1.424  18.784  0.00  0.00    +0.000 OA
ATOM     34  C   UNL     1       2.177   2.228  18.034  0.00  0.00    +0.000 C 
ATOM     35  C   UNL     1       0.936   2.549  18.872  0.00  0.00    +0.000 C 
ENDBRANCH  29  30
ENDBRANCH  28  29
ENDBRANCH   6  28
TORSDOF 9
ENDMDL
