MODEL 1
REMARK VINA RESULT:      -7.1      0.000      0.000
REMARK  Name = 
REMARK  11 active torsions:
REMARK  status: ('A' for Active; 'I' for Inactive)
REMARK    1  A    between atoms: C_1  and  C_2
REMARK    2  A    between atoms: C_3  and  C_4
REMARK    3  A    between atoms: C_7  and  O_8
REMARK    4  A    between atoms: O_8  and  C_9
REMARK    5  A    between atoms: C_9  and  C_10
REMARK    6  A    between atoms: C_10  and  S_11
REMARK    7  A    between atoms: S_11  and  C_12
REMARK    8  A    between atoms: C_14  and  C_15
REMARK    9  A    between atoms: C_17  and  O_18
REMARK   10  A    between atoms: C_20  and  O_21
REMARK   11  A    between atoms: O_21  and  C_22
REMARK                            x       y       z     vdW  Elec       q    Type
REMARK                         _______ _______ _______ _____ _____    ______ ____
ROOT
ATOM      1  O   UNL     1       4.104   3.994  18.288  0.00  0.00    +0.000 OA
ENDROOT
BRANCH   1   5
ATOM      2  C   UNL     1       1.986   7.202  19.987  0.00  0.00    +0.000 A 
ATOM      3  C   UNL     1       2.707   7.396  18.815  0.00  0.00    +0.000 A 
ATOM      4  C   UNL     1       3.417   6.341  18.243  0.00  0.00    +0.000 A 
ATOM      5  C   UNL     1       3.410   5.061  18.821  0.00  0.00    +0.000 A 
ATOM      6  C   UNL     1       2.665   4.848  19.997  0.00  0.00    +0.000 A 
ATOM      7  C   UNL     1       1.959   5.924  20.562  0.00  0.00    +0.000 A 
BRANCH   2  10
ATOM      8  C   UNL     1       0.246   9.660  22.402  0.00  0.00    +0.000 C 
ATOM      9  C   UNL     1       1.058   8.533  21.860  0.00  0.00    +0.000 C 
ATOM     10  C   UNL     1       1.220   8.321  20.545  0.00  0.00    +0.000 C 
ENDBRANCH   2  10
BRANCH   6  11
ATOM     11  O   UNL     1       2.663   3.580  20.532  0.00  0.00    +0.000 OA
ATOM     12  C   UNL     1       1.985   3.406  21.775  0.00  0.00    +0.000 C 
ENDBRANCH   6  11
ENDBRANCH   1   5
BRANCH   1  13
ATOM     13  C   UNL     1       4.058   3.879  16.859  0.00  0.00    +0.000 C 
BRANCH  13  14
ATOM     14  C   UNL     1       5.438   3.956  16.216  0.00  0.00    +0.000 C 
BRANCH  14  15
ATOM     15  S   UNL     1       5.778   5.630  15.584  0.00  0.00    +0.000 S 
BRANCH  15  16
ATOM     16  C   UNL     1       6.791   6.254  16.902  0.00  0.00    +0.000 A 
ATOM     17  N   UNL     1       7.125   7.552  16.819  0.00  0.00    +0.000 NA
ATOM     18  C   UNL     1       7.894   8.057  17.805  0.00  0.00    +0.000 A 
ATOM     19  C   UNL     1       8.269   9.503  17.699  0.00  0.00    +0.000 C 
ATOM     20  C   UNL     1       8.330   7.288  18.860  0.00  0.00    +0.000 A 
ATOM     21  C   UNL     1       7.920   5.978  18.850  0.00  0.00    +0.000 A 
ATOM     22  N   UNL     1       7.155   5.435  17.898  0.00  0.00    +0.000 NA
BRANCH  21  23
ATOM     23  O   UNL     1       8.285   5.120  19.844  0.00  0.00    +0.000 OA
ATOM     24  H   UNL     1       8.521   5.635  20.630  0.00  0.00    +0.000 HD
ENDBRANCH  21  23
ENDBRANCH  15  16
ENDBRANCH  14  15
ENDBRANCH  13  14
ENDBRANCH   1  13
TORSDOF 8
ENDMDL
MODEL 2
REMARK VINA RESULT:      -6.7      2.828      4.094
REMARK  Name = 
REMARK  11 active torsions:
REMARK  status: ('A' for Active; 'I' for Inactive)
REMARK    1  A    between atoms: C_1  and  C_2
REMARK    2  A    between atoms: C_3  and  C_4
REMARK    3  A    between atoms: C_7  and  O_8
REMARK    4  A    between atoms: O_8  and  C_9
REMARK    5  A    between atoms: C_9  and  C_10
REMARK    6  A    between atoms: C_10  and  S_11
REMARK    7  A    between atoms: S_11  and  C_12
REMARK    8  A    between atoms: C_14  and  C_15
REMARK    9  A    between atoms: C_17  and  O_18
REMARK   10  A    between atoms: C_20  and  O_21
REMARK   11  A    between atoms: O_21  and  C_22
REMARK                            x       y       z     vdW  Elec       q    Type
REMARK                         _______ _______ _______ _____ _____    ______ ____
ROOT
ATOM      1  O   UNL     1       4.187   6.470  17.094  0.00  0.00    +0.000 OA
ENDROOT
BRANCH   1   5
ATOM      2  C   UNL     1       1.697   7.762  20.223  0.00  0.00    +0.000 A 
ATOM      3  C   UNL     1       1.932   8.600  19.139  0.00  0.00    +0.000 A 
ATOM      4  C   UNL     1       2.759   8.185  18.096  0.00  0.00    +0.000 A 
ATOM      5  C   UNL     1       3.359   6.914  18.104  0.00  0.00    +0.000 A 
ATOM      6  C   UNL     1       3.110   6.050  19.188  0.00  0.00    +0.000 A 
ATOM      7  C   UNL     1       2.277   6.486  20.231  0.00  0.00    +0.000 A 
BRANCH   2  10
ATOM      8  C   UNL     1      -0.550   9.913  22.509  0.00  0.00    +0.000 C 
ATOM      9  C   UNL     1       0.342   9.471  21.399  0.00  0.00    +0.000 C 
ATOM     10  C   UNL     1       0.794   8.213  21.287  0.00  0.00    +0.000 C 
ENDBRANCH   2  10
BRANCH   6  11
ATOM     11  O   UNL     1       3.696   4.805  19.161  0.00  0.00    +0.000 OA
ATOM     12  C   UNL     1       2.846   3.698  18.868  0.00  0.00    +0.000 C 
ENDBRANCH   6  11
ENDBRANCH   1   5
BRANCH   1  13
ATOM     13  C   UNL     1       5.555   6.890  17.187  0.00  0.00    +0.000 C 
BRANCH  13  14
ATOM     14  C   UNL     1       6.537   5.729  17.079  0.00  0.00    +0.000 C 
BRANCH  14  15
ATOM     15  S   UNL     1       5.737   4.253  16.374  0.00  0.00    +0.000 S 
BRANCH  15  16
ATOM     16  C   UNL     1       6.381   4.315  14.722  0.00  0.00    +0.000 A 
ATOM     17  N   UNL     1       5.852   3.439  13.853  0.00  0.00    +0.000 NA
ATOM     18  C   UNL     1       6.320   3.461  12.589  0.00  0.00    +0.000 A 
ATOM     19  C   UNL     1       5.729   2.475  11.630  0.00  0.00    +0.000 C 
ATOM     20  C   UNL     1       7.302   4.338  12.187  0.00  0.00    +0.000 A 
ATOM     21  C   UNL     1       7.765   5.195  13.153  0.00  0.00    +0.000 A 
ATOM     22  N   UNL     1       7.327   5.213  14.416  0.00  0.00    +0.000 NA
BRANCH  21  23
ATOM     23  O   UNL     1       8.734   6.111  12.875  0.00  0.00    +0.000 OA
ATOM     24  H   UNL     1       9.589   5.759  13.162  0.00  0.00    +0.000 HD
ENDBRANCH  21  23
ENDBRANCH  15  16
ENDBRANCH  14  15
ENDBRANCH  13  14
ENDBRANCH   1  13
TORSDOF 8
ENDMDL
MODEL 3
REMARK VINA RESULT:      -6.7      1.137      1.164
REMARK  Name = 
REMARK  11 active torsions:
REMARK  status: ('A' for Active; 'I' for Inactive)
REMARK    1  A    between atoms: C_1  and  C_2
REMARK    2  A    between atoms: C_3  and  C_4
REMARK    3  A    between atoms: C_7  and  O_8
REMARK    4  A    between atoms: O_8  and  C_9
REMARK    5  A    between atoms: C_9  and  C_10
REMARK    6  A    between atoms: C_10  and  S_11
REMARK    7  A    between atoms: S_11  and  C_12
REMARK    8  A    between atoms: C_14  and  C_15
REMARK    9  A    between atoms: C_17  and  O_18
REMARK   10  A    between atoms: C_20  and  O_21
REMARK   11  A    between atoms: O_21  and  C_22
REMARK                            x       y       z     vdW  Elec       q    Type
REMARK                         _______ _______ _______ _____ _____    ______ ____
ROOT
ATOM      1  O   UNL     1       4.083   5.036  17.393  0.00  0.00    +0.000 OA
ENDROOT
BRANCH   1   5
ATOM      2  C   UNL     1       1.763   6.877  20.375  0.00  0.00    +0.000 A 
ATOM      3  C   UNL     1       2.213   7.624  19.293  0.00  0.00    +0.000 A 
ATOM      4  C   UNL     1       2.986   7.026  18.298  0.00  0.00    +0.000 A 
ATOM      5  C   UNL     1       3.316   5.662  18.354  0.00  0.00    +0.000 A 
ATOM      6  C   UNL     1       2.846   4.891  19.436  0.00  0.00    +0.000 A 
ATOM      7  C   UNL     1       2.072   5.511  20.430  0.00  0.00    +0.000 A 
BRANCH   2  10
ATOM      8  C   UNL     1      -0.288   9.458  22.384  0.00  0.00    +0.000 C 
ATOM      9  C   UNL     1       0.541   8.812  21.327  0.00  0.00    +0.000 C 
ATOM     10  C   UNL     1       0.921   7.526  21.386  0.00  0.00    +0.000 C 
ENDBRANCH   2  10
BRANCH   6  11
ATOM     11  O   UNL     1       3.169   3.554  19.456  0.00  0.00    +0.000 OA
ATOM     12  C   UNL     1       2.117   2.632  19.181  0.00  0.00    +0.000 C 
ENDBRANCH   6  11
ENDBRANCH   1   5
BRANCH   1  13
ATOM     13  C   UNL     1       4.672   5.901  16.414  0.00  0.00    +0.000 C 
BRANCH  13  14
ATOM     14  C   UNL     1       5.386   5.137  15.305  0.00  0.00    +0.000 C 
BRANCH  14  15
ATOM     15  S   UNL     1       6.796   4.188  15.960  0.00  0.00    +0.000 S 
BRANCH  15  16
ATOM     16  C   UNL     1       7.336   5.290  17.243  0.00  0.00    +0.000 A 
ATOM     17  N   UNL     1       7.468   6.579  16.891  0.00  0.00    +0.000 NA
ATOM     18  C   UNL     1       7.877   7.441  17.844  0.00  0.00    +0.000 A 
ATOM     19  C   UNL     1       8.028   8.875  17.440  0.00  0.00    +0.000 C 
ATOM     20  C   UNL     1       8.155   7.035  19.129  0.00  0.00    +0.000 A 
ATOM     21  C   UNL     1       7.977   5.698  19.381  0.00  0.00    +0.000 A 
ATOM     22  N   UNL     1       7.569   4.807  18.471  0.00  0.00    +0.000 NA
BRANCH  21  23
ATOM     23  O   UNL     1       8.216   5.178  20.617  0.00  0.00    +0.000 OA
ATOM     24  H   UNL     1       7.847   5.775  21.285  0.00  0.00    +0.000 HD
ENDBRANCH  21  23
ENDBRANCH  15  16
ENDBRANCH  14  15
ENDBRANCH  13  14
ENDBRANCH   1  13
TORSDOF 8
ENDMDL
MODEL 4
REMARK VINA RESULT:      -6.6      2.784      3.733
REMARK  Name = 
REMARK  11 active torsions:
REMARK  status: ('A' for Active; 'I' for Inactive)
REMARK    1  A    between atoms: C_1  and  C_2
REMARK    2  A    between atoms: C_3  and  C_4
REMARK    3  A    between atoms: C_7  and  O_8
REMARK    4  A    between atoms: O_8  and  C_9
REMARK    5  A    between atoms: C_9  and  C_10
REMARK    6  A    between atoms: C_10  and  S_11
REMARK    7  A    between atoms: S_11  and  C_12
REMARK    8  A    between atoms: C_14  and  C_15
REMARK    9  A    between atoms: C_17  and  O_18
REMARK   10  A    between atoms: C_20  and  O_21
REMARK   11  A    between atoms: O_21  and  C_22
REMARK                            x       y       z     vdW  Elec       q    Type
REMARK                         _______ _______ _______ _____ _____    ______ ____
ROOT
ATOM      1  O   UNL     1       2.892   3.808  17.769  0.00  0.00    +0.000 OA
ENDROOT
BRANCH   1   5
ATOM      2  C   UNL     1       1.865   6.963  20.347  0.00  0.00    +0.000 A 
ATOM      3  C   UNL     1       2.288   7.241  19.053  0.00  0.00    +0.000 A 
ATOM      4  C   UNL     1       2.635   6.204  18.189  0.00  0.00    +0.000 A 
ATOM      5  C   UNL     1       2.552   4.861  18.592  0.00  0.00    +0.000 A 
ATOM      6  C   UNL     1       2.103   4.568  19.895  0.00  0.00    +0.000 A 
ATOM      7  C   UNL     1       1.761   5.626  20.753  0.00  0.00    +0.000 A 
BRANCH   2  10
ATOM      8  C   UNL     1       0.270  10.189  21.747  0.00  0.00    +0.000 C 
ATOM      9  C   UNL     1       0.629   9.051  20.852  0.00  0.00    +0.000 C 
ATOM     10  C   UNL     1       1.471   8.075  21.221  0.00  0.00    +0.000 C 
ENDBRANCH   2  10
BRANCH   6  11
ATOM     11  O   UNL     1       2.014   3.244  20.258  0.00  0.00    +0.000 OA
ATOM     12  C   UNL     1       1.276   2.947  21.442  0.00  0.00    +0.000 C 
ENDBRANCH   6  11
ENDBRANCH   1   5
BRANCH   1  13
ATOM     13  C   UNL     1       4.212   3.281  17.953  0.00  0.00    +0.000 C 
BRANCH  13  14
ATOM     14  C   UNL     1       5.058   3.352  16.687  0.00  0.00    +0.000 C 
BRANCH  14  15
ATOM     15  S   UNL     1       5.541   5.067  16.312  0.00  0.00    +0.000 S 
BRANCH  15  16
ATOM     16  C   UNL     1       6.322   4.828  14.736  0.00  0.00    +0.000 A 
ATOM     17  N   UNL     1       5.712   3.968  13.904  0.00  0.00    +0.000 NA
ATOM     18  C   UNL     1       6.281   3.764  12.699  0.00  0.00    +0.000 A 
ATOM     19  C   UNL     1       5.598   2.798  11.782  0.00  0.00    +0.000 C 
ATOM     20  C   UNL     1       7.440   4.402  12.320  0.00  0.00    +0.000 A 
ATOM     21  C   UNL     1       7.972   5.267  13.242  0.00  0.00    +0.000 A 
ATOM     22  N   UNL     1       7.442   5.504  14.446  0.00  0.00    +0.000 NA
BRANCH  21  23
ATOM     23  O   UNL     1       9.116   5.959  12.979  0.00  0.00    +0.000 OA
ATOM     24  H   UNL     1       9.184   6.099  12.023  0.00  0.00    +0.000 HD
ENDBRANCH  21  23
ENDBRANCH  15  16
ENDBRANCH  14  15
ENDBRANCH  13  14
ENDBRANCH   1  13
TORSDOF 8
ENDMDL
MODEL 5
REMARK VINA RESULT:      -6.6      2.337      3.842
REMARK  Name = 
REMARK  11 active torsions:
REMARK  status: ('A' for Active; 'I' for Inactive)
REMARK    1  A    between atoms: C_1  and  C_2
REMARK    2  A    between atoms: C_3  and  C_4
REMARK    3  A    between atoms: C_7  and  O_8
REMARK    4  A    between atoms: O_8  and  C_9
REMARK    5  A    between atoms: C_9  and  C_10
REMARK    6  A    between atoms: C_10  and  S_11
REMARK    7  A    between atoms: S_11  and  C_12
REMARK    8  A    between atoms: C_14  and  C_15
REMARK    9  A    between atoms: C_17  and  O_18
REMARK   10  A    between atoms: C_20  and  O_21
REMARK   11  A    between atoms: O_21  and  C_22
REMARK                            x       y       z     vdW  Elec       q    Type
REMARK                         _______ _______ _______ _____ _____    ______ ____
ROOT
ATOM      1  O   UNL     1       3.060   5.753  20.061  0.00  0.00    +0.000 OA
ENDROOT
BRANCH   1   5
ATOM      2  C   UNL     1       1.080   9.329  19.085  0.00  0.00    +0.000 A 
ATOM      3  C   UNL     1       1.030   8.848  20.387  0.00  0.00    +0.000 A 
ATOM      4  C   UNL     1       1.680   7.661  20.724  0.00  0.00    +0.000 A 
ATOM      5  C   UNL     1       2.409   6.933  19.768  0.00  0.00    +0.000 A 
ATOM      6  C   UNL     1       2.483   7.425  18.450  0.00  0.00    +0.000 A 
ATOM      7  C   UNL     1       1.819   8.620  18.128  0.00  0.00    +0.000 A 
BRANCH   2  10
ATOM      8  C   UNL     1      -1.468  11.992  17.934  0.00  0.00    +0.000 C 
ATOM      9  C   UNL     1      -0.828  10.689  18.277  0.00  0.00    +0.000 C 
ATOM     10  C   UNL     1       0.417  10.599  18.770  0.00  0.00    +0.000 C 
ENDBRANCH   2  10
BRANCH   6  11
ATOM     11  O   UNL     1       3.219   6.701  17.539  0.00  0.00    +0.000 OA
ATOM     12  C   UNL     1       4.356   7.348  16.969  0.00  0.00    +0.000 C 
ENDBRANCH   6  11
ENDBRANCH   1   5
BRANCH   1  13
ATOM     13  C   UNL     1       2.247   4.572  20.018  0.00  0.00    +0.000 C 
BRANCH  13  14
ATOM     14  C   UNL     1       3.053   3.312  19.727  0.00  0.00    +0.000 C 
BRANCH  14  15
ATOM     15  S   UNL     1       3.176   3.007  17.936  0.00  0.00    +0.000 S 
BRANCH  15  16
ATOM     16  C   UNL     1       4.772   3.713  17.614  0.00  0.00    +0.000 A 
ATOM     17  N   UNL     1       5.129   3.794  16.322  0.00  0.00    +0.000 NA
ATOM     18  C   UNL     1       6.336   4.326  16.045  0.00  0.00    +0.000 A 
ATOM     19  C   UNL     1       6.727   4.404  14.602  0.00  0.00    +0.000 C 
ATOM     20  C   UNL     1       7.184   4.772  17.033  0.00  0.00    +0.000 A 
ATOM     21  C   UNL     1       6.716   4.651  18.317  0.00  0.00    +0.000 A 
ATOM     22  N   UNL     1       5.525   4.135  18.640  0.00  0.00    +0.000 NA
BRANCH  21  23
ATOM     23  O   UNL     1       7.464   5.061  19.380  0.00  0.00    +0.000 OA
ATOM     24  H   UNL     1       7.683   5.998  19.265  0.00  0.00    +0.000 HD
ENDBRANCH  21  23
ENDBRANCH  15  16
ENDBRANCH  14  15
ENDBRANCH  13  14
ENDBRANCH   1  13
TORSDOF 8
ENDMDL
MODEL 6
REMARK VINA RESULT:      -6.5      2.989      6.626
REMARK  Name = 
REMARK  11 active torsions:
REMARK  status: ('A' for Active; 'I' for Inactive)
REMARK    1  A    between atoms: C_1  and  C_2
REMARK    2  A    between atoms: C_3  and  C_4
REMARK    3  A    between atoms: C_7  and  O_8
REMARK    4  A    between atoms: O_8  and  C_9
REMARK    5  A    between atoms: C_9  and  C_10
REMARK    6  A    between atoms: C_10  and  S_11
REMARK    7  A    between atoms: S_11  and  C_12
REMARK    8  A    between atoms: C_14  and  C_15
REMARK    9  A    between atoms: C_17  and  O_18
REMARK   10  A    between atoms: C_20  and  O_21
REMARK   11  A    between atoms: O_21  and  C_22
REMARK                            x       y       z     vdW  Elec       q    Type
REMARK                         _______ _______ _______ _____ _____    ______ ____
ROOT
ATOM      1  O   UNL     1       5.184   3.734  19.449  0.00  0.00    +0.000 OA
ENDROOT
BRANCH   1   5
ATOM      2  C   UNL     1       6.196   4.335  15.415  0.00  0.00    +0.000 A 
ATOM      3  C   UNL     1       4.923   3.886  15.746  0.00  0.00    +0.000 A 
ATOM      4  C   UNL     1       4.576   3.679  17.080  0.00  0.00    +0.000 A 
ATOM      5  C   UNL     1       5.489   3.931  18.118  0.00  0.00    +0.000 A 
ATOM      6  C   UNL     1       6.775   4.407  17.793  0.00  0.00    +0.000 A 
ATOM      7  C   UNL     1       7.108   4.606  16.444  0.00  0.00    +0.000 A 
BRANCH   2  10
ATOM      8  C   UNL     1       7.900   5.506  12.154  0.00  0.00    +0.000 C 
ATOM      9  C   UNL     1       7.610   5.243  13.593  0.00  0.00    +0.000 C 
ATOM     10  C   UNL     1       6.520   4.578  14.004  0.00  0.00    +0.000 C 
ENDBRANCH   2  10
BRANCH   6  11
ATOM     11  O   UNL     1       7.642   4.662  18.830  0.00  0.00    +0.000 OA
ATOM     12  C   UNL     1       7.872   6.031  19.158  0.00  0.00    +0.000 C 
ENDBRANCH   6  11
ENDBRANCH   1   5
BRANCH   1  13
ATOM     13  C   UNL     1       4.285   2.651  19.722  0.00  0.00    +0.000 C 
BRANCH  13  14
ATOM     14  C   UNL     1       3.270   2.987  20.808  0.00  0.00    +0.000 C 
BRANCH  14  15
ATOM     15  S   UNL     1       1.660   3.443  20.087  0.00  0.00    +0.000 S 
BRANCH  15  16
ATOM     16  C   UNL     1       1.888   5.194  19.914  0.00  0.00    +0.000 A 
ATOM     17  N   UNL     1       2.467   5.601  18.773  0.00  0.00    +0.000 NA
ATOM     18  C   UNL     1       2.654   6.926  18.611  0.00  0.00    +0.000 A 
ATOM     19  C   UNL     1       3.308   7.368  17.339  0.00  0.00    +0.000 C 
ATOM     20  C   UNL     1       2.274   7.841  19.567  0.00  0.00    +0.000 A 
ATOM     21  C   UNL     1       1.682   7.317  20.689  0.00  0.00    +0.000 A 
ATOM     22  N   UNL     1       1.472   6.013  20.891  0.00  0.00    +0.000 NA
BRANCH  21  23
ATOM     23  O   UNL     1       1.261   8.124  21.702  0.00  0.00    +0.000 OA
ATOM     24  H   UNL     1       0.751   7.594  22.333  0.00  0.00    +0.000 HD
ENDBRANCH  21  23
ENDBRANCH  15  16
ENDBRANCH  14  15
ENDBRANCH  13  14
ENDBRANCH   1  13
TORSDOF 8
ENDMDL
MODEL 7
REMARK VINA RESULT:      -6.5      3.526      7.755
REMARK  Name = 
REMARK  11 active torsions:
REMARK  status: ('A' for Active; 'I' for Inactive)
REMARK    1  A    between atoms: C_1  and  C_2
REMARK    2  A    between atoms: C_3  and  C_4
REMARK    3  A    between atoms: C_7  and  O_8
REMARK    4  A    between atoms: O_8  and  C_9
REMARK    5  A    between atoms: C_9  and  C_10
REMARK    6  A    between atoms: C_10  and  S_11
REMARK    7  A    between atoms: S_11  and  C_12
REMARK    8  A    between atoms: C_14  and  C_15
REMARK    9  A    between atoms: C_17  and  O_18
REMARK   10  A    between atoms: C_20  and  O_21
REMARK   11  A    between atoms: O_21  and  C_22
REMARK                            x       y       z     vdW  Elec       q    Type
REMARK                         _______ _______ _______ _____ _____    ______ ____
ROOT
ATOM      1  O   UNL     1       7.689   5.131  16.022  0.00  0.00    +0.000 OA
ENDROOT
BRANCH   1   5
ATOM      2  C   UNL     1       5.621   3.599  12.700  0.00  0.00    +0.000 A 
ATOM      3  C   UNL     1       5.150   3.343  13.982  0.00  0.00    +0.000 A 
ATOM      4  C   UNL     1       5.829   3.842  15.093  0.00  0.00    +0.000 A 
ATOM      5  C   UNL     1       6.988   4.624  14.948  0.00  0.00    +0.000 A 
ATOM      6  C   UNL     1       7.460   4.907  13.651  0.00  0.00    +0.000 A 
ATOM      7  C   UNL     1       6.765   4.393  12.544  0.00  0.00    +0.000 A 
BRANCH   2  10
ATOM      8  C   UNL     1       3.019   3.154   9.883  0.00  0.00    +0.000 C 
ATOM      9  C   UNL     1       3.792   3.708  11.031  0.00  0.00    +0.000 C 
ATOM     10  C   UNL     1       4.864   3.091  11.550  0.00  0.00    +0.000 C 
ENDBRANCH   2  10
BRANCH   6  11
ATOM     11  O   UNL     1       8.586   5.689  13.538  0.00  0.00    +0.000 OA
ATOM     12  C   UNL     1       8.798   6.339  12.286  0.00  0.00    +0.000 C 
ENDBRANCH   6  11
ENDBRANCH   1   5
BRANCH   1  13
ATOM     13  C   UNL     1       7.121   4.866  17.311  0.00  0.00    +0.000 C 
BRANCH  13  14
ATOM     14  C   UNL     1       6.606   6.126  17.998  0.00  0.00    +0.000 C 
BRANCH  14  15
ATOM     15  S   UNL     1       5.070   6.719  17.220  0.00  0.00    +0.000 S 
BRANCH  15  16
ATOM     16  C   UNL     1       3.878   5.775  18.135  0.00  0.00    +0.000 A 
ATOM     17  N   UNL     1       3.594   4.558  17.646  0.00  0.00    +0.000 NA
ATOM     18  C   UNL     1       2.691   3.815  18.319  0.00  0.00    +0.000 A 
ATOM     19  C   UNL     1       2.375   2.463  17.761  0.00  0.00    +0.000 C 
ATOM     20  C   UNL     1       2.075   4.272  19.462  0.00  0.00    +0.000 A 
ATOM     21  C   UNL     1       2.447   5.525  19.879  0.00  0.00    +0.000 A 
ATOM     22  N   UNL     1       3.339   6.294  19.248  0.00  0.00    +0.000 NA
BRANCH  21  23
ATOM     23  O   UNL     1       1.908   6.082  20.999  0.00  0.00    +0.000 OA
ATOM     24  H   UNL     1       1.002   5.757  21.105  0.00  0.00    +0.000 HD
ENDBRANCH  21  23
ENDBRANCH  15  16
ENDBRANCH  14  15
ENDBRANCH  13  14
ENDBRANCH   1  13
TORSDOF 8
ENDMDL
MODEL 8
REMARK VINA RESULT:      -6.4      2.689      4.537
REMARK  Name = 
REMARK  11 active torsions:
REMARK  status: ('A' for Active; 'I' for Inactive)
REMARK    1  A    between atoms: C_1  and  C_2
REMARK    2  A    between atoms: C_3  and  C_4
REMARK    3  A    between atoms: C_7  and  O_8
REMARK    4  A    between atoms: O_8  and  C_9
REMARK    5  A    between atoms: C_9  and  C_10
REMARK    6  A    between atoms: C_10  and  S_11
REMARK    7  A    between atoms: S_11  and  C_12
REMARK    8  A    between atoms: C_14  and  C_15
REMARK    9  A    between atoms: C_17  and  O_18
REMARK   10  A    between atoms: C_20  and  O_21
REMARK   11  A    between atoms: O_21  and  C_22
REMARK                            x       y       z     vdW  Elec       q    Type
REMARK                         _______ _______ _______ _____ _____    ______ ____
ROOT
ATOM      1  O   UNL     1       2.176   7.892  19.623  0.00  0.00    +0.000 OA
ENDROOT
BRANCH   1   5
ATOM      2  C   UNL     1      -0.329  10.262  22.025  0.00  0.00    +0.000 A 
ATOM      3  C   UNL     1       0.351   9.189  22.588  0.00  0.00    +0.000 A 
ATOM      4  C   UNL     1       1.183   8.393  21.801  0.00  0.00    +0.000 A 
ATOM      5  C   UNL     1       1.367   8.660  20.434  0.00  0.00    +0.000 A 
ATOM      6  C   UNL     1       0.698   9.758  19.859  0.00  0.00    +0.000 A 
ATOM      7  C   UNL     1      -0.139  10.547  20.666  0.00  0.00    +0.000 A 
BRANCH   2  10
ATOM      8  C   UNL     1      -2.312  13.221  23.513  0.00  0.00    +0.000 C 
ATOM      9  C   UNL     1      -1.485  12.375  22.605  0.00  0.00    +0.000 C 
ATOM     10  C   UNL     1      -1.168  11.102  22.886  0.00  0.00    +0.000 C 
ENDBRANCH   2  10
BRANCH   6  11
ATOM     11  O   UNL     1       0.910  10.007  18.522  0.00  0.00    +0.000 OA
ATOM     12  C   UNL     1       1.870  11.010  18.197  0.00  0.00    +0.000 C 
ENDBRANCH   6  11
ENDBRANCH   1   5
BRANCH   1  13
ATOM     13  C   UNL     1       2.126   6.479  19.860  0.00  0.00    +0.000 C 
BRANCH  13  14
ATOM     14  C   UNL     1       2.558   5.662  18.648  0.00  0.00    +0.000 C 
BRANCH  14  15
ATOM     15  S   UNL     1       3.393   4.124  19.154  0.00  0.00    +0.000 S 
BRANCH  15  16
ATOM     16  C   UNL     1       5.070   4.537  18.747  0.00  0.00    +0.000 A 
ATOM     17  N   UNL     1       5.401   4.432  17.450  0.00  0.00    +0.000 NA
ATOM     18  C   UNL     1       6.669   4.739  17.108  0.00  0.00    +0.000 A 
ATOM     19  C   UNL     1       7.031   4.611  15.661  0.00  0.00    +0.000 C 
ATOM     20  C   UNL     1       7.600   5.144  18.037  0.00  0.00    +0.000 A 
ATOM     21  C   UNL     1       7.151   5.227  19.331  0.00  0.00    +0.000 A 
ATOM     22  N   UNL     1       5.904   4.938  19.716  0.00  0.00    +0.000 NA
BRANCH  21  23
ATOM     23  O   UNL     1       7.980   5.620  20.339  0.00  0.00    +0.000 OA
ATOM     24  H   UNL     1       7.826   5.053  21.110  0.00  0.00    +0.000 HD
ENDBRANCH  21  23
ENDBRANCH  15  16
ENDBRANCH  14  15
ENDBRANCH  13  14
ENDBRANCH   1  13
TORSDOF 8
ENDMDL
MODEL 9
REMARK VINA RESULT:      -6.4      3.860      7.086
REMARK  Name = 
REMARK  11 active torsions:
REMARK  status: ('A' for Active; 'I' for Inactive)
REMARK    1  A    between atoms: C_1  and  C_2
REMARK    2  A    between atoms: C_3  and  C_4
REMARK    3  A    between atoms: C_7  and  O_8
REMARK    4  A    between atoms: O_8  and  C_9
REMARK    5  A    between atoms: C_9  and  C_10
REMARK    6  A    between atoms: C_10  and  S_11
REMARK    7  A    between atoms: S_11  and  C_12
REMARK    8  A    between atoms: C_14  and  C_15
REMARK    9  A    between atoms: C_17  and  O_18
REMARK   10  A    between atoms: C_20  and  O_21
REMARK   11  A    between atoms: O_21  and  C_22
REMARK                            x       y       z     vdW  Elec       q    Type
REMARK                         _______ _______ _______ _____ _____    ______ ____
ROOT
ATOM      1  O   UNL     1       3.742   5.722  19.189  0.00  0.00    +0.000 OA
ENDROOT
BRANCH   1   5
ATOM      2  C   UNL     1       5.570   4.883  15.499  0.00  0.00    +0.000 A 
ATOM      3  C   UNL     1       5.493   6.196  15.946  0.00  0.00    +0.000 A 
ATOM      4  C   UNL     1       4.887   6.489  17.167  0.00  0.00    +0.000 A 
ATOM      5  C   UNL     1       4.355   5.472  17.978  0.00  0.00    +0.000 A 
ATOM      6  C   UNL     1       4.447   4.136  17.543  0.00  0.00    +0.000 A 
ATOM      7  C   UNL     1       5.058   3.860  16.308  0.00  0.00    +0.000 A 
BRANCH   2  10
ATOM      8  C   UNL     1       6.561   3.385  12.081  0.00  0.00    +0.000 C 
ATOM      9  C   UNL     1       5.836   3.673  13.352  0.00  0.00    +0.000 C 
ATOM     10  C   UNL     1       6.247   4.604  14.227  0.00  0.00    +0.000 C 
ENDBRANCH   2  10
BRANCH   6  11
ATOM     11  O   UNL     1       3.933   3.159  18.365  0.00  0.00    +0.000 OA
ATOM     12  C   UNL     1       2.848   2.388  17.851  0.00  0.00    +0.000 C 
ENDBRANCH   6  11
ENDBRANCH   1   5
BRANCH   1  13
ATOM     13  C   UNL     1       2.367   6.122  19.114  0.00  0.00    +0.000 C 
BRANCH  13  14
ATOM     14  C   UNL     1       2.167   7.603  19.418  0.00  0.00    +0.000 C 
BRANCH  14  15
ATOM     15  S   UNL     1       1.972   8.569  17.887  0.00  0.00    +0.000 S 
BRANCH  15  16
ATOM     16  C   UNL     1       1.451  10.122  18.570  0.00  0.00    +0.000 A 
ATOM     17  N   UNL     1       2.134  11.203  18.158  0.00  0.00    +0.000 NA
ATOM     18  C   UNL     1       1.762  12.398  18.659  0.00  0.00    +0.000 A 
ATOM     19  C   UNL     1       2.535  13.595  18.200  0.00  0.00    +0.000 C 
ATOM     20  C   UNL     1       0.727  12.525  19.558  0.00  0.00    +0.000 A 
ATOM     21  C   UNL     1       0.092  11.358  19.902  0.00  0.00    +0.000 A 
ATOM     22  N   UNL     1       0.422  10.153  19.428  0.00  0.00    +0.000 NA
BRANCH  21  23
ATOM     23  O   UNL     1      -0.949  11.358  20.780  0.00  0.00    +0.000 OA
ATOM     24  H   UNL     1      -0.963  10.510  21.249  0.00  0.00    +0.000 HD
ENDBRANCH  21  23
ENDBRANCH  15  16
ENDBRANCH  14  15
ENDBRANCH  13  14
ENDBRANCH   1  13
TORSDOF 8
ENDMDL
