MODEL 1
REMARK VINA RESULT:      -8.3      0.000      0.000
REMARK  Name = 
REMARK  9 active torsions:
REMARK  status: ('A' for Active; 'I' for Inactive)
REMARK    1  A    between atoms: C_1  and  C_2
REMARK    2  A    between atoms: C_2  and  C_3
REMARK    3  A    between atoms: C_4  and  C_5
REMARK    4  A    between atoms: C_5  and  C_6
REMARK    5  A    between atoms: N_8  and  N_9
REMARK    6  A    between atoms: C_10  and  C_12
REMARK    7  A    between atoms: C_12  and  C_13
REMARK    8  A    between atoms: C_23  and  C_24
REMARK    9  A    between atoms: C_25  and  C_26
REMARK                            x       y       z     vdW  Elec       q    Type
REMARK                         _______ _______ _______ _____ _____    ______ ____
ROOT
ATOM      1  C   UNL     1       4.207   4.387  17.214  0.00  0.00    +0.000 A 
ATOM      2  C   UNL     1       4.510   3.015  17.339  0.00  0.00    +0.000 A 
ATOM      3  C   UNL     1       4.142   2.292  18.472  0.00  0.00    +0.000 A 
ATOM      4  C   UNL     1       3.452   2.923  19.495  0.00  0.00    +0.000 A 
ATOM      5  C   UNL     1       3.116   4.275  19.370  0.00  0.00    +0.000 A 
ATOM      6  C   UNL     1       2.367   4.928  20.445  0.00  0.00    +0.000 A 
ATOM      7  O   UNL     1       2.056   4.326  21.465  0.00  0.00    +0.000 OA
ATOM      8  C   UNL     1       1.998   6.330  20.241  0.00  0.00    +0.000 A 
ATOM      9  C   UNL     1       1.261   6.993  21.222  0.00  0.00    +0.000 A 
ATOM     10  C   UNL     1       0.899   8.319  21.028  0.00  0.00    +0.000 A 
ATOM     11  C   UNL     1       1.262   8.997  19.853  0.00  0.00    +0.000 A 
ATOM     12  C   UNL     1       0.832  10.435  19.710  0.00  0.00    +0.000 C 
ATOM     13  C   UNL     1       2.008   8.320  18.854  0.00  0.00    +0.000 A 
ATOM     14  C   UNL     1       2.403   9.000  17.568  0.00  0.00    +0.000 C 
ATOM     15  C   UNL     1       2.383   6.971  19.064  0.00  0.00    +0.000 A 
ATOM     16  O   UNL     1       3.129   6.344  18.082  0.00  0.00    +0.000 OA
ATOM     17  C   UNL     1       3.475   5.017  18.240  0.00  0.00    +0.000 A 
ENDROOT
BRANCH   1  18
ATOM     18  C   UNL     1       4.652   5.111  15.962  0.00  0.00    +0.000 C 
BRANCH  18  20
ATOM     19  N   UNL     1       5.804   6.955  17.081  0.00  0.00    +0.000 N 
ATOM     20  C   UNL     1       5.915   5.934  16.160  0.00  0.00    +0.000 C 
ATOM     21  O   UNL     1       6.961   5.711  15.548  0.00  0.00    +0.000 OA
ATOM     22  H   UNL     1       4.982   7.127  17.657  0.00  0.00    +0.000 HD
BRANCH  19  25
ATOM     23  C   UNL     1       7.783   7.503  18.311  0.00  0.00    +0.000 C 
ATOM     24  O   UNL     1       7.650   6.523  19.043  0.00  0.00    +0.000 OA
ATOM     25  N   UNL     1       6.908   7.790  17.285  0.00  0.00    +0.000 N 
ATOM     26  H   UNL     1       7.060   8.533  16.605  0.00  0.00    +0.000 HD
BRANCH  23  27
ATOM     27  C   UNL     1       8.919   8.505  18.464  0.00  0.00    +0.000 C 
BRANCH  27  31
ATOM     28  C   UNL     1       8.595  12.333  17.734  0.00  0.00    +0.000 C 
ATOM     29  C   UNL     1       9.170  11.029  18.222  0.00  0.00    +0.000 C 
ATOM     30  C   UNL     1      10.530  11.083  18.861  0.00  0.00    +0.000 C 
ATOM     31  C   UNL     1       8.476   9.884  18.063  0.00  0.00    +0.000 C 
ENDBRANCH  27  31
ENDBRANCH  23  27
ENDBRANCH  19  25
ENDBRANCH  18  20
ENDBRANCH   1  18
TORSDOF 5
ENDMDL
MODEL 2
REMARK VINA RESULT:      -8.0      3.877      8.312
REMARK  Name = 
REMARK  9 active torsions:
REMARK  status: ('A' for Active; 'I' for Inactive)
REMARK    1  A    between atoms: C_1  and  C_2
REMARK    2  A    between atoms: C_2  and  C_3
REMARK    3  A    between atoms: C_4  and  C_5
REMARK    4  A    between atoms: C_5  and  C_6
REMARK    5  A    between atoms: N_8  and  N_9
REMARK    6  A    between atoms: C_10  and  C_12
REMARK    7  A    between atoms: C_12  and  C_13
REMARK    8  A    between atoms: C_23  and  C_24
REMARK    9  A    between atoms: C_25  and  C_26
REMARK                            x       y       z     vdW  Elec       q    Type
REMARK                         _______ _______ _______ _____ _____    ______ ____
ROOT
ATOM      1  C   UNL     1       1.956   8.461  19.082  0.00  0.00    +0.000 A 
ATOM      2  C   UNL     1       1.219   8.633  20.273  0.00  0.00    +0.000 A 
ATOM      3  C   UNL     1       1.045   7.584  21.173  0.00  0.00    +0.000 A 
ATOM      4  C   UNL     1       1.612   6.349  20.908  0.00  0.00    +0.000 A 
ATOM      5  C   UNL     1       2.373   6.173  19.747  0.00  0.00    +0.000 A 
ATOM      6  C   UNL     1       2.990   4.871  19.487  0.00  0.00    +0.000 A 
ATOM      7  O   UNL     1       2.828   3.924  20.244  0.00  0.00    +0.000 OA
ATOM      8  C   UNL     1       3.816   4.757  18.283  0.00  0.00    +0.000 A 
ATOM      9  C   UNL     1       4.449   3.546  18.001  0.00  0.00    +0.000 A 
ATOM     10  C   UNL     1       5.242   3.437  16.866  0.00  0.00    +0.000 A 
ATOM     11  C   UNL     1       5.420   4.532  16.006  0.00  0.00    +0.000 A 
ATOM     12  C   UNL     1       6.297   4.340  14.796  0.00  0.00    +0.000 C 
ATOM     13  C   UNL     1       4.778   5.765  16.298  0.00  0.00    +0.000 A 
ATOM     14  C   UNL     1       4.955   6.973  15.414  0.00  0.00    +0.000 C 
ATOM     15  C   UNL     1       3.962   5.865  17.450  0.00  0.00    +0.000 A 
ATOM     16  O   UNL     1       3.332   7.072  17.695  0.00  0.00    +0.000 OA
ATOM     17  C   UNL     1       2.563   7.214  18.832  0.00  0.00    +0.000 A 
ENDROOT
BRANCH   1  18
ATOM     18  C   UNL     1       2.092   9.641  18.144  0.00  0.00    +0.000 C 
BRANCH  18  20
ATOM     19  N   UNL     1      -0.258  10.068  17.622  0.00  0.00    +0.000 N 
ATOM     20  C   UNL     1       0.895  10.578  18.180  0.00  0.00    +0.000 C 
ATOM     21  O   UNL     1       0.946  11.708  18.668  0.00  0.00    +0.000 OA
ATOM     22  H   UNL     1      -0.360   9.116  17.274  0.00  0.00    +0.000 HD
BRANCH  19  25
ATOM     23  C   UNL     1      -2.422  10.551  16.719  0.00  0.00    +0.000 C 
ATOM     24  O   UNL     1      -2.400   9.542  16.016  0.00  0.00    +0.000 OA
ATOM     25  N   UNL     1      -1.392  10.887  17.572  0.00  0.00    +0.000 N 
ATOM     26  H   UNL     1      -1.438  11.657  18.237  0.00  0.00    +0.000 HD
BRANCH  23  27
ATOM     27  C   UNL     1      -3.581  11.539  16.719  0.00  0.00    +0.000 C 
BRANCH  27  31
ATOM     28  C   UNL     1      -6.694  10.490  18.841  0.00  0.00    +0.000 C 
ATOM     29  C   UNL     1      -5.425  11.198  18.445  0.00  0.00    +0.000 C 
ATOM     30  C   UNL     1      -4.894  12.229  19.402  0.00  0.00    +0.000 C 
ATOM     31  C   UNL     1      -4.827  10.905  17.272  0.00  0.00    +0.000 C 
ENDBRANCH  27  31
ENDBRANCH  23  27
ENDBRANCH  19  25
ENDBRANCH  18  20
ENDBRANCH   1  18
TORSDOF 5
ENDMDL
MODEL 3
REMARK VINA RESULT:      -7.9      4.112      9.407
REMARK  Name = 
REMARK  9 active torsions:
REMARK  status: ('A' for Active; 'I' for Inactive)
REMARK    1  A    between atoms: C_1  and  C_2
REMARK    2  A    between atoms: C_2  and  C_3
REMARK    3  A    between atoms: C_4  and  C_5
REMARK    4  A    between atoms: C_5  and  C_6
REMARK    5  A    between atoms: N_8  and  N_9
REMARK    6  A    between atoms: C_10  and  C_12
REMARK    7  A    between atoms: C_12  and  C_13
REMARK    8  A    between atoms: C_23  and  C_24
REMARK    9  A    between atoms: C_25  and  C_26
REMARK                            x       y       z     vdW  Elec       q    Type
REMARK                         _______ _______ _______ _____ _____    ______ ____
ROOT
ATOM      1  C   UNL     1      10.203  11.482  18.889  0.00  0.00    +0.000 A 
ATOM      2  C   UNL     1      10.896  11.677  17.675  0.00  0.00    +0.000 A 
ATOM      3  C   UNL     1      11.412  12.924  17.328  0.00  0.00    +0.000 A 
ATOM      4  C   UNL     1      11.258  13.996  18.192  0.00  0.00    +0.000 A 
ATOM      5  C   UNL     1      10.602  13.810  19.414  0.00  0.00    +0.000 A 
ATOM      6  C   UNL     1      10.464  14.943  20.331  0.00  0.00    +0.000 A 
ATOM      7  O   UNL     1      10.881  16.056  20.040  0.00  0.00    +0.000 OA
ATOM      8  C   UNL     1       9.813  14.680  21.616  0.00  0.00    +0.000 A 
ATOM      9  C   UNL     1       9.680  15.717  22.539  0.00  0.00    +0.000 A 
ATOM     10  C   UNL     1       9.074  15.471  23.764  0.00  0.00    +0.000 A 
ATOM     11  C   UNL     1       8.600  14.188  24.085  0.00  0.00    +0.000 A 
ATOM     12  C   UNL     1       7.956  13.995  25.434  0.00  0.00    +0.000 C 
ATOM     13  C   UNL     1       8.741  13.133  23.146  0.00  0.00    +0.000 A 
ATOM     14  C   UNL     1       8.267  11.736  23.454  0.00  0.00    +0.000 C 
ATOM     15  C   UNL     1       9.351  13.395  21.896  0.00  0.00    +0.000 A 
ATOM     16  O   UNL     1       9.453  12.352  20.993  0.00  0.00    +0.000 OA
ATOM     17  C   UNL     1      10.079  12.566  19.781  0.00  0.00    +0.000 A 
ENDROOT
BRANCH   1  18
ATOM     18  C   UNL     1       9.657  10.104  19.192  0.00  0.00    +0.000 C 
BRANCH  18  20
ATOM     19  N   UNL     1       8.306   8.335  18.178  0.00  0.00    +0.000 N 
ATOM     20  C   UNL     1       8.515   9.695  18.274  0.00  0.00    +0.000 C 
ATOM     21  O   UNL     1       7.826  10.512  17.661  0.00  0.00    +0.000 OA
ATOM     22  H   UNL     1       8.806   7.634  18.722  0.00  0.00    +0.000 HD
BRANCH  19  25
ATOM     23  C   UNL     1       7.013   6.528  17.289  0.00  0.00    +0.000 C 
ATOM     24  O   UNL     1       7.578   5.711  18.015  0.00  0.00    +0.000 OA
ATOM     25  N   UNL     1       7.306   7.875  17.315  0.00  0.00    +0.000 N 
ATOM     26  H   UNL     1       6.777   8.578  16.801  0.00  0.00    +0.000 HD
BRANCH  23  27
ATOM     27  C   UNL     1       5.939   6.140  16.281  0.00  0.00    +0.000 C 
BRANCH  27  31
ATOM     28  C   UNL     1       2.536   5.168  17.945  0.00  0.00    +0.000 C 
ATOM     29  C   UNL     1       3.876   5.020  17.272  0.00  0.00    +0.000 C 
ATOM     30  C   UNL     1       4.367   3.619  17.034  0.00  0.00    +0.000 C 
ATOM     31  C   UNL     1       4.582   6.116  16.926  0.00  0.00    +0.000 C 
ENDBRANCH  27  31
ENDBRANCH  23  27
ENDBRANCH  19  25
ENDBRANCH  18  20
ENDBRANCH   1  18
TORSDOF 5
ENDMDL
MODEL 4
REMARK VINA RESULT:      -7.9      4.819      8.967
REMARK  Name = 
REMARK  9 active torsions:
REMARK  status: ('A' for Active; 'I' for Inactive)
REMARK    1  A    between atoms: C_1  and  C_2
REMARK    2  A    between atoms: C_2  and  C_3
REMARK    3  A    between atoms: C_4  and  C_5
REMARK    4  A    between atoms: C_5  and  C_6
REMARK    5  A    between atoms: N_8  and  N_9
REMARK    6  A    between atoms: C_10  and  C_12
REMARK    7  A    between atoms: C_12  and  C_13
REMARK    8  A    between atoms: C_23  and  C_24
REMARK    9  A    between atoms: C_25  and  C_26
REMARK                            x       y       z     vdW  Elec       q    Type
REMARK                         _______ _______ _______ _____ _____    ______ ____
ROOT
ATOM      1  C   UNL     1      -0.955  11.957  21.819  0.00  0.00    +0.000 A 
ATOM      2  C   UNL     1      -1.226  12.538  23.076  0.00  0.00    +0.000 A 
ATOM      3  C   UNL     1      -2.442  13.167  23.335  0.00  0.00    +0.000 A 
ATOM      4  C   UNL     1      -3.415  13.216  22.350  0.00  0.00    +0.000 A 
ATOM      5  C   UNL     1      -3.172  12.615  21.110  0.00  0.00    +0.000 A 
ATOM      6  C   UNL     1      -4.215  12.650  20.083  0.00  0.00    +0.000 A 
ATOM      7  O   UNL     1      -5.281  13.222  20.272  0.00  0.00    +0.000 OA
ATOM      8  C   UNL     1      -3.928  11.963  18.822  0.00  0.00    +0.000 A 
ATOM      9  C   UNL     1      -4.897  11.943  17.819  0.00  0.00    +0.000 A 
ATOM     10  C   UNL     1      -4.634  11.283  16.626  0.00  0.00    +0.000 A 
ATOM     11  C   UNL     1      -3.407  10.631  16.422  0.00  0.00    +0.000 A 
ATOM     12  C   UNL     1      -3.193   9.933  15.103  0.00  0.00    +0.000 C 
ATOM     13  C   UNL     1      -2.424  10.649  17.446  0.00  0.00    +0.000 A 
ATOM     14  C   UNL     1      -1.101   9.947  17.280  0.00  0.00    +0.000 C 
ATOM     15  C   UNL     1      -2.696  11.333  18.655  0.00  0.00    +0.000 A 
ATOM     16  O   UNL     1      -1.710  11.353  19.625  0.00  0.00    +0.000 OA
ATOM     17  C   UNL     1      -1.960  11.977  20.830  0.00  0.00    +0.000 A 
ENDROOT
BRANCH   1  18
ATOM     18  C   UNL     1       0.393  11.304  21.603  0.00  0.00    +0.000 C 
BRANCH  18  20
ATOM     19  N   UNL     1       1.339   9.095  21.154  0.00  0.00    +0.000 N 
ATOM     20  C   UNL     1       0.379   9.803  21.845  0.00  0.00    +0.000 C 
ATOM     21  O   UNL     1      -0.427   9.256  22.599  0.00  0.00    +0.000 OA
ATOM     22  H   UNL     1       2.066   9.517  20.578  0.00  0.00    +0.000 HD
BRANCH  19  25
ATOM     23  C   UNL     1       1.924   6.945  20.278  0.00  0.00    +0.000 C 
ATOM     24  O   UNL     1       2.436   7.445  19.277  0.00  0.00    +0.000 OA
ATOM     25  N   UNL     1       1.361   7.702  21.284  0.00  0.00    +0.000 N 
ATOM     26  H   UNL     1       1.031   7.313  22.166  0.00  0.00    +0.000 HD
BRANCH  23  27
ATOM     27  C   UNL     1       1.852   5.441  20.511  0.00  0.00    +0.000 C 
BRANCH  27  31
ATOM     28  C   UNL     1       2.592   3.243  17.362  0.00  0.00    +0.000 C 
ATOM     29  C   UNL     1       2.803   3.955  18.673  0.00  0.00    +0.000 C 
ATOM     30  C   UNL     1       4.141   3.777  19.335  0.00  0.00    +0.000 C 
ATOM     31  C   UNL     1       1.812   4.698  19.205  0.00  0.00    +0.000 C 
ENDBRANCH  27  31
ENDBRANCH  23  27
ENDBRANCH  19  25
ENDBRANCH  18  20
ENDBRANCH   1  18
TORSDOF 5
ENDMDL
MODEL 5
REMARK VINA RESULT:      -7.8      1.048      1.152
REMARK  Name = 
REMARK  9 active torsions:
REMARK  status: ('A' for Active; 'I' for Inactive)
REMARK    1  A    between atoms: C_1  and  C_2
REMARK    2  A    between atoms: C_2  and  C_3
REMARK    3  A    between atoms: C_4  and  C_5
REMARK    4  A    between atoms: C_5  and  C_6
REMARK    5  A    between atoms: N_8  and  N_9
REMARK    6  A    between atoms: C_10  and  C_12
REMARK    7  A    between atoms: C_12  and  C_13
REMARK    8  A    between atoms: C_23  and  C_24
REMARK    9  A    between atoms: C_25  and  C_26
REMARK                            x       y       z     vdW  Elec       q    Type
REMARK                         _______ _______ _______ _____ _____    ______ ____
ROOT
ATOM      1  C   UNL     1       4.068   3.563  17.480  0.00  0.00    +0.000 A 
ATOM      2  C   UNL     1       4.165   2.166  17.657  0.00  0.00    +0.000 A 
ATOM      3  C   UNL     1       3.592   1.535  18.760  0.00  0.00    +0.000 A 
ATOM      4  C   UNL     1       2.901   2.284  19.698  0.00  0.00    +0.000 A 
ATOM      5  C   UNL     1       2.769   3.665  19.518  0.00  0.00    +0.000 A 
ATOM      6  C   UNL     1       2.016   4.446  20.502  0.00  0.00    +0.000 A 
ATOM      7  O   UNL     1       1.529   3.923  21.495  0.00  0.00    +0.000 OA
ATOM      8  C   UNL     1       1.866   5.878  20.239  0.00  0.00    +0.000 A 
ATOM      9  C   UNL     1       1.136   6.664  21.130  0.00  0.00    +0.000 A 
ATOM     10  C   UNL     1       0.982   8.021  20.879  0.00  0.00    +0.000 A 
ATOM     11  C   UNL     1       1.547   8.608  19.735  0.00  0.00    +0.000 A 
ATOM     12  C   UNL     1       1.335  10.086  19.526  0.00  0.00    +0.000 C 
ATOM     13  C   UNL     1       2.286   7.805  18.826  0.00  0.00    +0.000 A 
ATOM     14  C   UNL     1       2.893   8.387  17.575  0.00  0.00    +0.000 C 
ATOM     15  C   UNL     1       2.448   6.425  19.096  0.00  0.00    +0.000 A 
ATOM     16  O   UNL     1       3.192   5.673  18.204  0.00  0.00    +0.000 OA
ATOM     17  C   UNL     1       3.334   4.317  18.417  0.00  0.00    +0.000 A 
ENDROOT
BRANCH   1  18
ATOM     18  C   UNL     1       4.728   4.181  16.267  0.00  0.00    +0.000 C 
BRANCH  18  20
ATOM     19  N   UNL     1       6.080   6.218  16.197  0.00  0.00    +0.000 N 
ATOM     20  C   UNL     1       6.030   4.897  16.591  0.00  0.00    +0.000 C 
ATOM     21  O   UNL     1       6.972   4.345  17.160  0.00  0.00    +0.000 OA
ATOM     22  H   UNL     1       5.299   6.729  15.789  0.00  0.00    +0.000 HD
BRANCH  19  25
ATOM     23  C   UNL     1       7.284   7.910  17.387  0.00  0.00    +0.000 C 
ATOM     24  O   UNL     1       6.310   8.165  18.095  0.00  0.00    +0.000 OA
ATOM     25  N   UNL     1       7.262   6.933  16.414  0.00  0.00    +0.000 N 
ATOM     26  H   UNL     1       8.087   6.636  15.894  0.00  0.00    +0.000 HD
BRANCH  23  27
ATOM     27  C   UNL     1       8.611   8.650  17.502  0.00  0.00    +0.000 C 
BRANCH  27  31
ATOM     28  C   UNL     1       9.348  11.055  20.495  0.00  0.00    +0.000 C 
ATOM     29  C   UNL     1       9.337  10.501  19.094  0.00  0.00    +0.000 C 
ATOM     30  C   UNL     1      10.002  11.329  18.030  0.00  0.00    +0.000 C 
ATOM     31  C   UNL     1       8.736   9.321  18.840  0.00  0.00    +0.000 C 
ENDBRANCH  27  31
ENDBRANCH  23  27
ENDBRANCH  19  25
ENDBRANCH  18  20
ENDBRANCH   1  18
TORSDOF 5
ENDMDL
MODEL 6
REMARK VINA RESULT:      -7.8      3.298      7.453
REMARK  Name = 
REMARK  9 active torsions:
REMARK  status: ('A' for Active; 'I' for Inactive)
REMARK    1  A    between atoms: C_1  and  C_2
REMARK    2  A    between atoms: C_2  and  C_3
REMARK    3  A    between atoms: C_4  and  C_5
REMARK    4  A    between atoms: C_5  and  C_6
REMARK    5  A    between atoms: N_8  and  N_9
REMARK    6  A    between atoms: C_10  and  C_12
REMARK    7  A    between atoms: C_12  and  C_13
REMARK    8  A    between atoms: C_23  and  C_24
REMARK    9  A    between atoms: C_25  and  C_26
REMARK                            x       y       z     vdW  Elec       q    Type
REMARK                         _______ _______ _______ _____ _____    ______ ____
ROOT
ATOM      1  C   UNL     1       2.176   6.081  19.764  0.00  0.00    +0.000 A 
ATOM      2  C   UNL     1       1.221   5.484  20.614  0.00  0.00    +0.000 A 
ATOM      3  C   UNL     1       0.910   4.130  20.515  0.00  0.00    +0.000 A 
ATOM      4  C   UNL     1       1.556   3.343  19.575  0.00  0.00    +0.000 A 
ATOM      5  C   UNL     1       2.530   3.914  18.748  0.00  0.00    +0.000 A 
ATOM      6  C   UNL     1       3.224   3.070  17.774  0.00  0.00    +0.000 A 
ATOM      7  O   UNL     1       2.951   1.885  17.644  0.00  0.00    +0.000 OA
ATOM      8  C   UNL     1       4.268   3.708  16.968  0.00  0.00    +0.000 A 
ATOM      9  C   UNL     1       4.980   2.945  16.044  0.00  0.00    +0.000 A 
ATOM     10  C   UNL     1       5.978   3.543  15.286  0.00  0.00    +0.000 A 
ATOM     11  C   UNL     1       6.282   4.904  15.445  0.00  0.00    +0.000 A 
ATOM     12  C   UNL     1       7.380   5.484  14.590  0.00  0.00    +0.000 C 
ATOM     13  C   UNL     1       5.559   5.679  16.390  0.00  0.00    +0.000 A 
ATOM     14  C   UNL     1       5.863   7.139  16.610  0.00  0.00    +0.000 C 
ATOM     15  C   UNL     1       4.536   5.064  17.151  0.00  0.00    +0.000 A 
ATOM     16  O   UNL     1       3.833   5.850  18.047  0.00  0.00    +0.000 OA
ATOM     17  C   UNL     1       2.858   5.271  18.833  0.00  0.00    +0.000 A 
ENDROOT
BRANCH   1  18
ATOM     18  C   UNL     1       2.451   7.561  19.918  0.00  0.00    +0.000 C 
BRANCH  18  20
ATOM     19  N   UNL     1       0.772   9.304  19.568  0.00  0.00    +0.000 N 
ATOM     20  C   UNL     1       1.644   8.425  18.961  0.00  0.00    +0.000 C 
ATOM     21  O   UNL     1       1.757   8.350  17.737  0.00  0.00    +0.000 OA
ATOM     22  H   UNL     1       0.701   9.446  20.575  0.00  0.00    +0.000 HD
BRANCH  19  25
ATOM     23  C   UNL     1      -0.949  10.953  19.350  0.00  0.00    +0.000 C 
ATOM     24  O   UNL     1      -1.055  11.065  20.571  0.00  0.00    +0.000 OA
ATOM     25  N   UNL     1      -0.043  10.100  18.756  0.00  0.00    +0.000 N 
ATOM     26  H   UNL     1       0.133  10.072  17.753  0.00  0.00    +0.000 HD
BRANCH  23  27
ATOM     27  C   UNL     1      -1.809  11.735  18.366  0.00  0.00    +0.000 C 
BRANCH  27  31
ATOM     28  C   UNL     1      -3.023  10.117  15.019  0.00  0.00    +0.000 C 
ATOM     29  C   UNL     1      -3.064  10.868  16.325  0.00  0.00    +0.000 C 
ATOM     30  C   UNL     1      -4.386  11.459  16.728  0.00  0.00    +0.000 C 
ATOM     31  C   UNL     1      -1.943  10.996  17.065  0.00  0.00    +0.000 C 
ENDBRANCH  27  31
ENDBRANCH  23  27
ENDBRANCH  19  25
ENDBRANCH  18  20
ENDBRANCH   1  18
TORSDOF 5
ENDMDL
MODEL 7
REMARK VINA RESULT:      -7.8      4.513      8.924
REMARK  Name = 
REMARK  9 active torsions:
REMARK  status: ('A' for Active; 'I' for Inactive)
REMARK    1  A    between atoms: C_1  and  C_2
REMARK    2  A    between atoms: C_2  and  C_3
REMARK    3  A    between atoms: C_4  and  C_5
REMARK    4  A    between atoms: C_5  and  C_6
REMARK    5  A    between atoms: N_8  and  N_9
REMARK    6  A    between atoms: C_10  and  C_12
REMARK    7  A    between atoms: C_12  and  C_13
REMARK    8  A    between atoms: C_23  and  C_24
REMARK    9  A    between atoms: C_25  and  C_26
REMARK                            x       y       z     vdW  Elec       q    Type
REMARK                         _______ _______ _______ _____ _____    ______ ____
ROOT
ATOM      1  C   UNL     1       1.015   8.680  20.358  0.00  0.00    +0.000 A 
ATOM      2  C   UNL     1       0.727   9.960  19.839  0.00  0.00    +0.000 A 
ATOM      3  C   UNL     1       1.283  10.395  18.638  0.00  0.00    +0.000 A 
ATOM      4  C   UNL     1       2.126   9.556  17.926  0.00  0.00    +0.000 A 
ATOM      5  C   UNL     1       2.393   8.272  18.413  0.00  0.00    +0.000 A 
ATOM      6  C   UNL     1       3.266   7.384  17.642  0.00  0.00    +0.000 A 
ATOM      7  O   UNL     1       3.792   7.750  16.600  0.00  0.00    +0.000 OA
ATOM      8  C   UNL     1       3.472   6.034  18.171  0.00  0.00    +0.000 A 
ATOM      9  C   UNL     1       4.272   5.137  17.464  0.00  0.00    +0.000 A 
ATOM     10  C   UNL     1       4.462   3.853  17.956  0.00  0.00    +0.000 A 
ATOM     11  C   UNL     1       3.851   3.446  19.153  0.00  0.00    +0.000 A 
ATOM     12  C   UNL     1       4.100   2.036  19.624  0.00  0.00    +0.000 C 
ATOM     13  C   UNL     1       3.034   4.358  19.870  0.00  0.00    +0.000 A 
ATOM     14  C   UNL     1       2.342   3.960  21.149  0.00  0.00    +0.000 C 
ATOM     15  C   UNL     1       2.854   5.670  19.367  0.00  0.00    +0.000 A 
ATOM     16  O   UNL     1       2.070   6.543  20.099  0.00  0.00    +0.000 OA
ATOM     17  C   UNL     1       1.843   7.815  19.615  0.00  0.00    +0.000 A 
ENDROOT
BRANCH   1  18
ATOM     18  C   UNL     1       0.387   8.280  21.676  0.00  0.00    +0.000 C 
BRANCH  18  20
ATOM     19  N   UNL     1      -1.028  10.129  22.425  0.00  0.00    +0.000 N 
ATOM     20  C   UNL     1       0.161   9.455  22.614  0.00  0.00    +0.000 C 
ATOM     21  O   UNL     1       0.974   9.785  23.479  0.00  0.00    +0.000 OA
ATOM     22  H   UNL     1      -1.755   9.845  21.771  0.00  0.00    +0.000 HD
BRANCH  19  25
ATOM     23  C   UNL     1      -1.235  12.504  22.640  0.00  0.00    +0.000 C 
ATOM     24  O   UNL     1      -0.991  12.675  21.446  0.00  0.00    +0.000 OA
ATOM     25  N   UNL     1      -1.289  11.253  23.216  0.00  0.00    +0.000 N 
ATOM     26  H   UNL     1      -1.593  11.086  24.175  0.00  0.00    +0.000 HD
BRANCH  23  27
ATOM     27  C   UNL     1      -1.494  13.651  23.608  0.00  0.00    +0.000 C 
BRANCH  27  31
ATOM     28  C   UNL     1      -5.262  14.684  23.447  0.00  0.00    +0.000 C 
ATOM     29  C   UNL     1      -4.023  13.902  23.795  0.00  0.00    +0.000 C 
ATOM     30  C   UNL     1      -4.203  12.699  24.679  0.00  0.00    +0.000 C 
ATOM     31  C   UNL     1      -2.821  14.299  23.329  0.00  0.00    +0.000 C 
ENDBRANCH  27  31
ENDBRANCH  23  27
ENDBRANCH  19  25
ENDBRANCH  18  20
ENDBRANCH   1  18
TORSDOF 5
ENDMDL
MODEL 8
REMARK VINA RESULT:      -7.7      5.869      9.219
REMARK  Name = 
REMARK  9 active torsions:
REMARK  status: ('A' for Active; 'I' for Inactive)
REMARK    1  A    between atoms: C_1  and  C_2
REMARK    2  A    between atoms: C_2  and  C_3
REMARK    3  A    between atoms: C_4  and  C_5
REMARK    4  A    between atoms: C_5  and  C_6
REMARK    5  A    between atoms: N_8  and  N_9
REMARK    6  A    between atoms: C_10  and  C_12
REMARK    7  A    between atoms: C_12  and  C_13
REMARK    8  A    between atoms: C_23  and  C_24
REMARK    9  A    between atoms: C_25  and  C_26
REMARK                            x       y       z     vdW  Elec       q    Type
REMARK                         _______ _______ _______ _____ _____    ______ ____
ROOT
ATOM      1  C   UNL     1      -2.221  11.632  18.151  0.00  0.00    +0.000 A 
ATOM      2  C   UNL     1      -2.111  11.240  16.800  0.00  0.00    +0.000 A 
ATOM      3  C   UNL     1      -3.242  10.988  16.026  0.00  0.00    +0.000 A 
ATOM      4  C   UNL     1      -4.502  11.135  16.581  0.00  0.00    +0.000 A 
ATOM      5  C   UNL     1      -4.627  11.555  17.910  0.00  0.00    +0.000 A 
ATOM      6  C   UNL     1      -5.963  11.731  18.482  0.00  0.00    +0.000 A 
ATOM      7  O   UNL     1      -6.973  11.487  17.835  0.00  0.00    +0.000 OA
ATOM      8  C   UNL     1      -6.036  12.219  19.860  0.00  0.00    +0.000 A 
ATOM      9  C   UNL     1      -7.284  12.431  20.445  0.00  0.00    +0.000 A 
ATOM     10  C   UNL     1      -7.358  12.905  21.748  0.00  0.00    +0.000 A 
ATOM     11  C   UNL     1      -6.191  13.180  22.479  0.00  0.00    +0.000 A 
ATOM     12  C   UNL     1      -6.350  13.695  23.887  0.00  0.00    +0.000 C 
ATOM     13  C   UNL     1      -4.922  12.969  21.880  0.00  0.00    +0.000 A 
ATOM     14  C   UNL     1      -3.643  13.269  22.619  0.00  0.00    +0.000 C 
ATOM     15  C   UNL     1      -4.855  12.475  20.556  0.00  0.00    +0.000 A 
ATOM     16  O   UNL     1      -3.604  12.258  20.007  0.00  0.00    +0.000 OA
ATOM     17  C   UNL     1      -3.505  11.816  18.703  0.00  0.00    +0.000 A 
ENDROOT
BRANCH   1  18
ATOM     18  C   UNL     1      -0.950  11.874  18.936  0.00  0.00    +0.000 C 
BRANCH  18  20
ATOM     19  N   UNL     1       0.795  10.164  18.834  0.00  0.00    +0.000 N 
ATOM     20  C   UNL     1      -0.336  10.599  19.493  0.00  0.00    +0.000 C 
ATOM     21  O   UNL     1      -0.808   9.997  20.458  0.00  0.00    +0.000 OA
ATOM     22  H   UNL     1       1.255  10.670  18.080  0.00  0.00    +0.000 HD
BRANCH  19  25
ATOM     23  C   UNL     1       2.189   8.273  18.372  0.00  0.00    +0.000 C 
ATOM     24  O   UNL     1       2.421   8.671  17.230  0.00  0.00    +0.000 OA
ATOM     25  N   UNL     1       1.392   8.971  19.255  0.00  0.00    +0.000 N 
ATOM     26  H   UNL     1       1.276   8.713  20.234  0.00  0.00    +0.000 HD
BRANCH  23  27
ATOM     27  C   UNL     1       2.748   6.970  18.927  0.00  0.00    +0.000 C 
BRANCH  27  31
ATOM     28  C   UNL     1       4.825   4.714  16.501  0.00  0.00    +0.000 C 
ATOM     29  C   UNL     1       3.741   5.143  17.454  0.00  0.00    +0.000 C 
ATOM     30  C   UNL     1       2.657   4.143  17.746  0.00  0.00    +0.000 C 
ATOM     31  C   UNL     1       3.765   6.380  17.991  0.00  0.00    +0.000 C 
ENDBRANCH  27  31
ENDBRANCH  23  27
ENDBRANCH  19  25
ENDBRANCH  18  20
ENDBRANCH   1  18
TORSDOF 5
ENDMDL
MODEL 9
REMARK VINA RESULT:      -7.7      4.879      8.834
REMARK  Name = 
REMARK  9 active torsions:
REMARK  status: ('A' for Active; 'I' for Inactive)
REMARK    1  A    between atoms: C_1  and  C_2
REMARK    2  A    between atoms: C_2  and  C_3
REMARK    3  A    between atoms: C_4  and  C_5
REMARK    4  A    between atoms: C_5  and  C_6
REMARK    5  A    between atoms: N_8  and  N_9
REMARK    6  A    between atoms: C_10  and  C_12
REMARK    7  A    between atoms: C_12  and  C_13
REMARK    8  A    between atoms: C_23  and  C_24
REMARK    9  A    between atoms: C_25  and  C_26
REMARK                            x       y       z     vdW  Elec       q    Type
REMARK                         _______ _______ _______ _____ _____    ______ ____
ROOT
ATOM      1  C   UNL     1      -0.874  10.645  18.904  0.00  0.00    +0.000 A 
ATOM      2  C   UNL     1      -0.952  10.007  17.648  0.00  0.00    +0.000 A 
ATOM      3  C   UNL     1      -2.106  10.079  16.870  0.00  0.00    +0.000 A 
ATOM      4  C   UNL     1      -3.198  10.800  17.326  0.00  0.00    +0.000 A 
ATOM      5  C   UNL     1      -3.122  11.465  18.554  0.00  0.00    +0.000 A 
ATOM      6  C   UNL     1      -4.272  12.245  19.017  0.00  0.00    +0.000 A 
ATOM      7  O   UNL     1      -5.309  12.301  18.370  0.00  0.00    +0.000 OA
ATOM      8  C   UNL     1      -4.121  12.961  20.285  0.00  0.00    +0.000 A 
ATOM      9  C   UNL     1      -5.176  13.741  20.760  0.00  0.00    +0.000 A 
ATOM     10  C   UNL     1      -5.033  14.431  21.956  0.00  0.00    +0.000 A 
ATOM     11  C   UNL     1      -3.837  14.358  22.688  0.00  0.00    +0.000 A 
ATOM     12  C   UNL     1      -3.755  15.136  23.976  0.00  0.00    +0.000 C 
ATOM     13  C   UNL     1      -2.763  13.568  22.202  0.00  0.00    +0.000 A 
ATOM     14  C   UNL     1      -1.454  13.475  22.943  0.00  0.00    +0.000 C 
ATOM     15  C   UNL     1      -2.921  12.858  20.987  0.00  0.00    +0.000 A 
ATOM     16  O   UNL     1      -1.865  12.079  20.550  0.00  0.00    +0.000 OA
ATOM     17  C   UNL     1      -1.972  11.408  19.349  0.00  0.00    +0.000 A 
ENDROOT
BRANCH   1  18
ATOM     18  C   UNL     1       0.406  10.511  19.700  0.00  0.00    +0.000 C 
BRANCH  18  20
ATOM     19  N   UNL     1       1.594   8.404  20.057  0.00  0.00    +0.000 N 
ATOM     20  C   UNL     1       0.521   9.184  20.433  0.00  0.00    +0.000 C 
ATOM     21  O   UNL     1      -0.280   8.827  21.298  0.00  0.00    +0.000 OA
ATOM     22  H   UNL     1       2.316   8.693  19.399  0.00  0.00    +0.000 HD
BRANCH  19  25
ATOM     23  C   UNL     1       2.240   6.104  19.894  0.00  0.00    +0.000 C 
ATOM     24  O   UNL     1       2.585   6.241  18.720  0.00  0.00    +0.000 OA
ATOM     25  N   UNL     1       1.743   7.145  20.649  0.00  0.00    +0.000 N 
ATOM     26  H   UNL     1       1.553   7.077  21.648  0.00  0.00    +0.000 HD
BRANCH  23  27
ATOM     27  C   UNL     1       2.316   4.775  20.633  0.00  0.00    +0.000 C 
BRANCH  27  31
ATOM     28  C   UNL     1       3.293   1.837  18.245  0.00  0.00    +0.000 C 
ATOM     29  C   UNL     1       2.440   2.783  19.049  0.00  0.00    +0.000 C 
ATOM     30  C   UNL     1       0.950   2.610  18.947  0.00  0.00    +0.000 C 
ATOM     31  C   UNL     1       3.020   3.739  19.803  0.00  0.00    +0.000 C 
ENDBRANCH  27  31
ENDBRANCH  23  27
ENDBRANCH  19  25
ENDBRANCH  18  20
ENDBRANCH   1  18
TORSDOF 5
ENDMDL
