MODEL 1
REMARK VINA RESULT:      -8.0      0.000      0.000
REMARK  Name = 
REMARK  9 active torsions:
REMARK  status: ('A' for Active; 'I' for Inactive)
REMARK    1  A    between atoms: C_1  and  O_2
REMARK    2  A    between atoms: O_2  and  N_3
REMARK    3  A    between atoms: N_9  and  C_10
REMARK    4  A    between atoms: C_11  and  N_12
REMARK    5  A    between atoms: C_17  and  C_18
REMARK    6  A    between atoms: C_18  and  O_20
REMARK    7  A    between atoms: N_22  and  C_23
REMARK    8  A    between atoms: C_27  and  C_28
REMARK    9  A    between atoms: C_32  and  C_33
REMARK                            x       y       z     vdW  Elec       q    Type
REMARK                         _______ _______ _______ _____ _____    ______ ____
ROOT
ATOM      1  C   UNL     1       1.539   8.347  19.424  0.00  0.00    +0.000 A 
ATOM      2  C   UNL     1       0.995   7.640  20.536  0.00  0.00    +0.000 A 
ATOM      3  C   UNL     1       1.459   6.357  20.847  0.00  0.00    +0.000 A 
ATOM      4  C   UNL     1       2.475   5.744  20.111  0.00  0.00    +0.000 A 
ATOM      5  C   UNL     1       2.884   4.375  20.529  0.00  0.00    +0.000 A 
ATOM      6  O   UNL     1       2.315   3.798  21.452  0.00  0.00    +0.000 OA
ATOM      7  C   UNL     1       3.967   3.714  19.807  0.00  0.00    +0.000 A 
ATOM      8  C   UNL     1       4.541   4.413  18.821  0.00  0.00    +0.000 A 
ATOM      9  N   UNL     1       4.196   5.684  18.382  0.00  0.00    +0.000 N 
ATOM     10  C   UNL     1       3.084   6.376  19.009  0.00  0.00    +0.000 A 
ATOM     11  C   UNL     1       2.534   7.646  18.622  0.00  0.00    +0.000 A 
ATOM     12  C   UNL     1       2.871   8.241  17.282  0.00  0.00    +0.000 C 
ENDROOT
BRANCH   1  19
ATOM     13  N   UNL     1       1.843  13.104  21.324  0.00  0.00    +0.000 NA
ATOM     14  C   UNL     1       0.589  12.887  21.012  0.00  0.00    +0.000 C 
ATOM     15  C   UNL     1       0.298  11.757  20.059  0.00  0.00    +0.000 C 
ATOM     16  C   UNL     1      -0.902  11.546  19.485  0.00  0.00    +0.000 C 
ATOM     17  C   UNL     1      -1.059  10.562  18.332  0.00  0.00    +0.000 C 
ATOM     18  C   UNL     1       0.266   9.909  17.892  0.00  0.00    +0.000 C 
ATOM     19  N   UNL     1       1.088   9.633  19.074  0.00  0.00    +0.000 N 
ATOM     20  C   UNL     1       1.494  10.862  19.782  0.00  0.00    +0.000 C 
ATOM     21  S   UNL     1      -2.377  12.258  20.058  0.00  0.00    +0.000 S 
ATOM     22  C   UNL     1      -1.808  13.821  20.725  0.00  0.00    +0.000 C 
ATOM     23  C   UNL     1      -0.542  13.763  21.565  0.00  0.00    +0.000 C 
ATOM     24  C   UNL     1      -0.820  13.398  23.025  0.00  0.00    +0.000 C 
BRANCH  13  26
ATOM     25  C   UNL     1       2.970  15.085  21.651  0.00  0.00    +0.000 C 
ATOM     26  O   UNL     1       1.988  14.205  22.180  0.00  0.00    +0.000 OA
ENDBRANCH  13  26
ENDBRANCH   1  19
BRANCH   2  27
ATOM     27  N   UNL     1       0.170   8.224  21.519  0.00  0.00    +0.000 N 
ATOM     28  H   UNL     1      -0.722   8.567  21.209  0.00  0.00    +0.000 HD
ATOM     29  H   UNL     1       0.100   7.674  22.370  0.00  0.00    +0.000 HD
ENDBRANCH   2  27
BRANCH   9  30
ATOM     30  C   UNL     1       4.971   6.245  17.248  0.00  0.00    +0.000 C 
ATOM     31  C   UNL     1       6.287   5.819  16.644  0.00  0.00    +0.000 C 
ATOM     32  C   UNL     1       5.019   5.406  15.978  0.00  0.00    +0.000 C 
ENDBRANCH   9  30
BRANCH   7  33
ATOM     33  C   UNL     1       4.429   2.336  20.086  0.00  0.00    +0.000 C 
ATOM     34  O   UNL     1       4.949   2.005  21.142  0.00  0.00    +0.000 OA
BRANCH  33  35
ATOM     35  O   UNL     1       4.248   1.466  19.069  0.00  0.00    +0.000 OA
ATOM     36  H   UNL     1       4.950   0.771  19.015  0.00  0.00    +0.000 HD
ENDBRANCH  33  35
ENDBRANCH   7  33
TORSDOF 6
ENDMDL
MODEL 2
REMARK VINA RESULT:      -7.5      1.555      1.938
REMARK  Name = 
REMARK  9 active torsions:
REMARK  status: ('A' for Active; 'I' for Inactive)
REMARK    1  A    between atoms: C_1  and  O_2
REMARK    2  A    between atoms: O_2  and  N_3
REMARK    3  A    between atoms: N_9  and  C_10
REMARK    4  A    between atoms: C_11  and  N_12
REMARK    5  A    between atoms: C_17  and  C_18
REMARK    6  A    between atoms: C_18  and  O_20
REMARK    7  A    between atoms: N_22  and  C_23
REMARK    8  A    between atoms: C_27  and  C_28
REMARK    9  A    between atoms: C_32  and  C_33
REMARK                            x       y       z     vdW  Elec       q    Type
REMARK                         _______ _______ _______ _____ _____    ______ ____
ROOT
ATOM      1  C   UNL     1       1.172   8.991  19.757  0.00  0.00    +0.000 A 
ATOM      2  C   UNL     1       0.716   8.242  20.881  0.00  0.00    +0.000 A 
ATOM      3  C   UNL     1       1.169   6.934  21.084  0.00  0.00    +0.000 A 
ATOM      4  C   UNL     1       2.091   6.333  20.225  0.00  0.00    +0.000 A 
ATOM      5  C   UNL     1       2.499   4.936  20.535  0.00  0.00    +0.000 A 
ATOM      6  O   UNL     1       2.003   4.327  21.481  0.00  0.00    +0.000 OA
ATOM      7  C   UNL     1       3.488   4.285  19.681  0.00  0.00    +0.000 A 
ATOM      8  C   UNL     1       3.984   5.018  18.678  0.00  0.00    +0.000 A 
ATOM      9  N   UNL     1       3.637   6.319  18.336  0.00  0.00    +0.000 N 
ATOM     10  C   UNL     1       2.611   7.005  19.101  0.00  0.00    +0.000 A 
ATOM     11  C   UNL     1       2.064   8.306  18.830  0.00  0.00    +0.000 A 
ATOM     12  C   UNL     1       2.289   8.960  17.493  0.00  0.00    +0.000 C 
ENDROOT
BRANCH   1  19
ATOM     13  N   UNL     1       3.267  13.631  19.128  0.00  0.00    +0.000 NA
ATOM     14  C   UNL     1       2.285  13.759  19.985  0.00  0.00    +0.000 C 
ATOM     15  C   UNL     1       1.251  12.664  20.023  0.00  0.00    +0.000 C 
ATOM     16  C   UNL     1       0.085  12.751  20.690  0.00  0.00    +0.000 C 
ATOM     17  C   UNL     1      -1.025  11.732  20.469  0.00  0.00    +0.000 C 
ATOM     18  C   UNL     1      -0.687  10.671  19.402  0.00  0.00    +0.000 C 
ATOM     19  N   UNL     1       0.728  10.303  19.515  0.00  0.00    +0.000 N 
ATOM     20  C   UNL     1       1.632  11.430  19.221  0.00  0.00    +0.000 C 
ATOM     21  S   UNL     1      -0.225  13.926  21.929  0.00  0.00    +0.000 S 
ATOM     22  C   UNL     1       0.764  15.319  21.384  0.00  0.00    +0.000 C 
ATOM     23  C   UNL     1       2.166  14.988  20.897  0.00  0.00    +0.000 C 
ATOM     24  C   UNL     1       3.180  14.890  22.039  0.00  0.00    +0.000 C 
BRANCH  13  26
ATOM     25  C   UNL     1       4.824  14.821  17.917  0.00  0.00    +0.000 C 
ATOM     26  O   UNL     1       4.136  14.732  19.157  0.00  0.00    +0.000 OA
ENDBRANCH  13  26
ENDBRANCH   1  19
BRANCH   2  27
ATOM     27  N   UNL     1       0.006   8.796  21.967  0.00  0.00    +0.000 N 
ATOM     28  H   UNL     1      -0.504   9.642  21.783  0.00  0.00    +0.000 HD
ATOM     29  H   UNL     1      -0.543   8.115  22.483  0.00  0.00    +0.000 HD
ENDBRANCH   2  27
BRANCH   9  30
ATOM     30  C   UNL     1       4.316   6.917  17.160  0.00  0.00    +0.000 C 
ATOM     31  C   UNL     1       5.780   7.013  16.808  0.00  0.00    +0.000 C 
ATOM     32  C   UNL     1       4.955   5.944  16.178  0.00  0.00    +0.000 C 
ENDBRANCH   9  30
BRANCH   7  33
ATOM     33  C   UNL     1       3.933   2.884  19.848  0.00  0.00    +0.000 C 
ATOM     34  O   UNL     1       5.095   2.572  20.065  0.00  0.00    +0.000 OA
BRANCH  33  35
ATOM     35  O   UNL     1       2.953   1.964  19.723  0.00  0.00    +0.000 OA
ATOM     36  H   UNL     1       2.215   2.082  20.371  0.00  0.00    +0.000 HD
ENDBRANCH  33  35
ENDBRANCH   7  33
TORSDOF 6
ENDMDL
MODEL 3
REMARK VINA RESULT:      -7.3      2.811      4.250
REMARK  Name = 
REMARK  9 active torsions:
REMARK  status: ('A' for Active; 'I' for Inactive)
REMARK    1  A    between atoms: C_1  and  O_2
REMARK    2  A    between atoms: O_2  and  N_3
REMARK    3  A    between atoms: N_9  and  C_10
REMARK    4  A    between atoms: C_11  and  N_12
REMARK    5  A    between atoms: C_17  and  C_18
REMARK    6  A    between atoms: C_18  and  O_20
REMARK    7  A    between atoms: N_22  and  C_23
REMARK    8  A    between atoms: C_27  and  C_28
REMARK    9  A    between atoms: C_32  and  C_33
REMARK                            x       y       z     vdW  Elec       q    Type
REMARK                         _______ _______ _______ _____ _____    ______ ____
ROOT
ATOM      1  C   UNL     1       1.864   8.006  19.128  0.00  0.00    +0.000 A 
ATOM      2  C   UNL     1       2.578   8.771  18.159  0.00  0.00    +0.000 A 
ATOM      3  C   UNL     1       3.563   8.164  17.373  0.00  0.00    +0.000 A 
ATOM      4  C   UNL     1       3.859   6.804  17.484  0.00  0.00    +0.000 A 
ATOM      5  C   UNL     1       4.929   6.267  16.601  0.00  0.00    +0.000 A 
ATOM      6  O   UNL     1       5.554   7.006  15.842  0.00  0.00    +0.000 OA
ATOM      7  C   UNL     1       5.243   4.843  16.661  0.00  0.00    +0.000 A 
ATOM      8  C   UNL     1       4.512   4.107  17.505  0.00  0.00    +0.000 A 
ATOM      9  N   UNL     1       3.511   4.552  18.358  0.00  0.00    +0.000 N 
ATOM     10  C   UNL     1       3.189   5.967  18.400  0.00  0.00    +0.000 A 
ATOM     11  C   UNL     1       2.257   6.611  19.283  0.00  0.00    +0.000 A 
ATOM     12  C   UNL     1       1.749   5.892  20.503  0.00  0.00    +0.000 C 
ENDROOT
BRANCH   1  19
ATOM     13  N   UNL     1      -2.295  10.949  18.518  0.00  0.00    +0.000 NA
ATOM     14  C   UNL     1      -1.586  11.470  19.489  0.00  0.00    +0.000 C 
ATOM     15  C   UNL     1      -0.559  10.587  20.148  0.00  0.00    +0.000 C 
ATOM     16  C   UNL     1       0.091  10.905  21.283  0.00  0.00    +0.000 C 
ATOM     17  C   UNL     1       0.908   9.865  22.040  0.00  0.00    +0.000 C 
ATOM     18  C   UNL     1       0.859   8.460  21.406  0.00  0.00    +0.000 C 
ATOM     19  N   UNL     1       0.876   8.586  19.945  0.00  0.00    +0.000 N 
ATOM     20  C   UNL     1      -0.318   9.275  19.420  0.00  0.00    +0.000 C 
ATOM     21  S   UNL     1       0.169  12.516  21.923  0.00  0.00    +0.000 S 
ATOM     22  C   UNL     1      -1.399  13.208  21.398  0.00  0.00    +0.000 C 
ATOM     23  C   UNL     1      -1.809  12.912  19.965  0.00  0.00    +0.000 C 
ATOM     24  C   UNL     1      -1.196  13.893  18.962  0.00  0.00    +0.000 C 
BRANCH  13  26
ATOM     25  C   UNL     1      -4.077  11.186  17.079  0.00  0.00    +0.000 C 
ATOM     26  O   UNL     1      -3.244  11.852  18.017  0.00  0.00    +0.000 OA
ENDBRANCH  13  26
ENDBRANCH   1  19
BRANCH   2  27
ATOM     27  N   UNL     1       2.211  10.069  17.748  0.00  0.00    +0.000 N 
ATOM     28  H   UNL     1       1.682  10.135  16.896  0.00  0.00    +0.000 HD
ATOM     29  H   UNL     1       1.818  10.636  18.494  0.00  0.00    +0.000 HD
ENDBRANCH   2  27
BRANCH   9  30
ATOM     30  C   UNL     1       2.853   3.540  19.221  0.00  0.00    +0.000 C 
ATOM     31  C   UNL     1       2.875   2.032  19.169  0.00  0.00    +0.000 C 
ATOM     32  C   UNL     1       3.765   2.734  20.137  0.00  0.00    +0.000 C 
ENDBRANCH   9  30
BRANCH   7  33
ATOM     33  C   UNL     1       6.321   4.198  15.879  0.00  0.00    +0.000 C 
ATOM     34  O   UNL     1       6.108   3.417  14.963  0.00  0.00    +0.000 OA
BRANCH  33  35
ATOM     35  O   UNL     1       7.572   4.527  16.268  0.00  0.00    +0.000 OA
ATOM     36  H   UNL     1       8.033   3.806  16.764  0.00  0.00    +0.000 HD
ENDBRANCH  33  35
ENDBRANCH   7  33
TORSDOF 6
ENDMDL
MODEL 4
REMARK VINA RESULT:      -7.2      0.967      1.027
REMARK  Name = 
REMARK  9 active torsions:
REMARK  status: ('A' for Active; 'I' for Inactive)
REMARK    1  A    between atoms: C_1  and  O_2
REMARK    2  A    between atoms: O_2  and  N_3
REMARK    3  A    between atoms: N_9  and  C_10
REMARK    4  A    between atoms: C_11  and  N_12
REMARK    5  A    between atoms: C_17  and  C_18
REMARK    6  A    between atoms: C_18  and  O_20
REMARK    7  A    between atoms: N_22  and  C_23
REMARK    8  A    between atoms: C_27  and  C_28
REMARK    9  A    between atoms: C_32  and  C_33
REMARK                            x       y       z     vdW  Elec       q    Type
REMARK                         _______ _______ _______ _____ _____    ______ ____
ROOT
ATOM      1  C   UNL     1       1.433   8.205  19.522  0.00  0.00    +0.000 A 
ATOM      2  C   UNL     1       0.892   7.447  20.601  0.00  0.00    +0.000 A 
ATOM      3  C   UNL     1       1.390   6.170  20.881  0.00  0.00    +0.000 A 
ATOM      4  C   UNL     1       2.437   5.611  20.145  0.00  0.00    +0.000 A 
ATOM      5  C   UNL     1       2.883   4.244  20.528  0.00  0.00    +0.000 A 
ATOM      6  O   UNL     1       2.316   3.621  21.423  0.00  0.00    +0.000 OA
ATOM      7  C   UNL     1       3.998   3.639  19.806  0.00  0.00    +0.000 A 
ATOM      8  C   UNL     1       4.566   4.386  18.853  0.00  0.00    +0.000 A 
ATOM      9  N   UNL     1       4.189   5.659  18.447  0.00  0.00    +0.000 N 
ATOM     10  C   UNL     1       3.046   6.297  19.075  0.00  0.00    +0.000 A 
ATOM     11  C   UNL     1       2.463   7.560  18.717  0.00  0.00    +0.000 A 
ATOM     12  C   UNL     1       2.805   8.207  17.402  0.00  0.00    +0.000 C 
ENDROOT
BRANCH   1  19
ATOM     13  N   UNL     1       0.280  12.536  22.020  0.00  0.00    +0.000 NA
ATOM     14  C   UNL     1      -0.722  12.267  21.220  0.00  0.00    +0.000 C 
ATOM     15  C   UNL     1      -0.466  11.311  20.085  0.00  0.00    +0.000 C 
ATOM     16  C   UNL     1      -1.324  11.101  19.069  0.00  0.00    +0.000 C 
ATOM     17  C   UNL     1      -0.895  10.336  17.823  0.00  0.00    +0.000 C 
ATOM     18  C   UNL     1       0.583   9.900  17.844  0.00  0.00    +0.000 C 
ATOM     19  N   UNL     1       0.948   9.487  19.203  0.00  0.00    +0.000 N 
ATOM     20  C   UNL     1       0.872  10.596  20.172  0.00  0.00    +0.000 C 
ATOM     21  S   UNL     1      -2.998  11.556  19.118  0.00  0.00    +0.000 S 
ATOM     22  C   UNL     1      -2.962  13.015  20.159  0.00  0.00    +0.000 C 
ATOM     23  C   UNL     1      -2.099  12.919  21.407  0.00  0.00    +0.000 C 
ATOM     24  C   UNL     1      -2.831  12.266  22.582  0.00  0.00    +0.000 C 
BRANCH  13  26
ATOM     25  C   UNL     1       0.242  14.777  22.548  0.00  0.00    +0.000 C 
ATOM     26  O   UNL     1      -0.070  13.469  23.006  0.00  0.00    +0.000 OA
ENDBRANCH  13  26
ENDBRANCH   1  19
BRANCH   2  27
ATOM     27  N   UNL     1       0.033   7.975  21.587  0.00  0.00    +0.000 N 
ATOM     28  H   UNL     1      -0.953   7.845  21.437  0.00  0.00    +0.000 HD
ATOM     29  H   UNL     1       0.315   7.747  22.536  0.00  0.00    +0.000 HD
ENDBRANCH   2  27
BRANCH   9  30
ATOM     30  C   UNL     1       4.966   6.279  17.344  0.00  0.00    +0.000 C 
ATOM     31  C   UNL     1       6.278   5.880  16.715  0.00  0.00    +0.000 C 
ATOM     32  C   UNL     1       5.008   5.512  16.030  0.00  0.00    +0.000 C 
ENDBRANCH   9  30
BRANCH   7  33
ATOM     33  C   UNL     1       4.498   2.269  20.052  0.00  0.00    +0.000 C 
ATOM     34  O   UNL     1       5.042   1.930  21.093  0.00  0.00    +0.000 OA
BRANCH  33  35
ATOM     35  O   UNL     1       4.323   1.413  19.021  0.00  0.00    +0.000 OA
ATOM     36  H   UNL     1       4.943   0.643  19.037  0.00  0.00    +0.000 HD
ENDBRANCH  33  35
ENDBRANCH   7  33
TORSDOF 6
ENDMDL
MODEL 5
REMARK VINA RESULT:      -6.8      2.974      8.889
REMARK  Name = 
REMARK  9 active torsions:
REMARK  status: ('A' for Active; 'I' for Inactive)
REMARK    1  A    between atoms: C_1  and  O_2
REMARK    2  A    between atoms: O_2  and  N_3
REMARK    3  A    between atoms: N_9  and  C_10
REMARK    4  A    between atoms: C_11  and  N_12
REMARK    5  A    between atoms: C_17  and  C_18
REMARK    6  A    between atoms: C_18  and  O_20
REMARK    7  A    between atoms: N_22  and  C_23
REMARK    8  A    between atoms: C_27  and  C_28
REMARK    9  A    between atoms: C_32  and  C_33
REMARK                            x       y       z     vdW  Elec       q    Type
REMARK                         _______ _______ _______ _____ _____    ______ ____
ROOT
ATOM      1  C   UNL     1       1.670   8.547  19.407  0.00  0.00    +0.000 A 
ATOM      2  C   UNL     1       1.423   8.021  20.709  0.00  0.00    +0.000 A 
ATOM      3  C   UNL     1       0.798   8.813  21.679  0.00  0.00    +0.000 A 
ATOM      4  C   UNL     1       0.375  10.115  21.404  0.00  0.00    +0.000 A 
ATOM      5  C   UNL     1      -0.273  10.867  22.514  0.00  0.00    +0.000 A 
ATOM      6  O   UNL     1      -0.383  10.373  23.634  0.00  0.00    +0.000 OA
ATOM      7  C   UNL     1      -0.761  12.218  22.257  0.00  0.00    +0.000 A 
ATOM      8  C   UNL     1      -0.611  12.680  21.010  0.00  0.00    +0.000 A 
ATOM      9  N   UNL     1      -0.009  12.030  19.941  0.00  0.00    +0.000 N 
ATOM     10  C   UNL     1       0.559  10.709  20.140  0.00  0.00    +0.000 A 
ATOM     11  C   UNL     1       1.298   9.938  19.179  0.00  0.00    +0.000 A 
ATOM     12  C   UNL     1       1.841  10.593  17.937  0.00  0.00    +0.000 C 
ENDROOT
BRANCH   1  19
ATOM     13  N   UNL     1       1.672   3.673  17.806  0.00  0.00    +0.000 NA
ATOM     14  C   UNL     1       2.923   4.047  17.921  0.00  0.00    +0.000 C 
ATOM     15  C   UNL     1       3.203   5.527  17.959  0.00  0.00    +0.000 C 
ATOM     16  C   UNL     1       4.434   6.063  17.864  0.00  0.00    +0.000 C 
ATOM     17  C   UNL     1       4.625   7.557  17.636  0.00  0.00    +0.000 C 
ATOM     18  C   UNL     1       3.301   8.333  17.484  0.00  0.00    +0.000 C 
ATOM     19  N   UNL     1       2.307   7.785  18.411  0.00  0.00    +0.000 N 
ATOM     20  C   UNL     1       1.957   6.385  18.105  0.00  0.00    +0.000 C 
ATOM     21  S   UNL     1       5.895   5.159  18.105  0.00  0.00    +0.000 S 
ATOM     22  C   UNL     1       5.428   3.526  17.530  0.00  0.00    +0.000 C 
ATOM     23  C   UNL     1       4.067   3.026  17.985  0.00  0.00    +0.000 C 
ATOM     24  C   UNL     1       4.110   2.376  19.370  0.00  0.00    +0.000 C 
BRANCH  13  26
ATOM     25  C   UNL     1       0.661   1.835  18.757  0.00  0.00    +0.000 C 
ATOM     26  O   UNL     1       1.546   2.278  17.737  0.00  0.00    +0.000 OA
ENDBRANCH  13  26
ENDBRANCH   1  19
BRANCH   2  27
ATOM     27  N   UNL     1       1.544   6.658  21.049  0.00  0.00    +0.000 N 
ATOM     28  H   UNL     1       1.101   6.369  21.904  0.00  0.00    +0.000 HD
ATOM     29  H   UNL     1       1.348   6.028  20.277  0.00  0.00    +0.000 HD
ENDBRANCH   2  27
BRANCH   9  30
ATOM     30  C   UNL     1       0.057  12.762  18.651  0.00  0.00    +0.000 C 
ATOM     31  C   UNL     1      -0.305  14.184  18.303  0.00  0.00    +0.000 C 
ATOM     32  C   UNL     1       1.126  13.840  18.537  0.00  0.00    +0.000 C 
ENDBRANCH   9  30
BRANCH   7  33
ATOM     33  C   UNL     1      -1.371  13.089  23.286  0.00  0.00    +0.000 C 
ATOM     34  O   UNL     1      -0.823  14.089  23.728  0.00  0.00    +0.000 OA
BRANCH  33  35
ATOM     35  O   UNL     1      -2.584  12.683  23.720  0.00  0.00    +0.000 OA
ATOM     36  H   UNL     1      -2.603  11.738  24.012  0.00  0.00    +0.000 HD
ENDBRANCH  33  35
ENDBRANCH   7  33
TORSDOF 6
ENDMDL
MODEL 6
REMARK VINA RESULT:      -6.6      3.089      8.913
REMARK  Name = 
REMARK  9 active torsions:
REMARK  status: ('A' for Active; 'I' for Inactive)
REMARK    1  A    between atoms: C_1  and  O_2
REMARK    2  A    between atoms: O_2  and  N_3
REMARK    3  A    between atoms: N_9  and  C_10
REMARK    4  A    between atoms: C_11  and  N_12
REMARK    5  A    between atoms: C_17  and  C_18
REMARK    6  A    between atoms: C_18  and  O_20
REMARK    7  A    between atoms: N_22  and  C_23
REMARK    8  A    between atoms: C_27  and  C_28
REMARK    9  A    between atoms: C_32  and  C_33
REMARK                            x       y       z     vdW  Elec       q    Type
REMARK                         _______ _______ _______ _____ _____    ______ ____
ROOT
ATOM      1  C   UNL     1       1.333   8.540  19.440  0.00  0.00    +0.000 A 
ATOM      2  C   UNL     1       1.522   8.237  20.820  0.00  0.00    +0.000 A 
ATOM      3  C   UNL     1       0.843   8.969  21.800  0.00  0.00    +0.000 A 
ATOM      4  C   UNL     1      -0.051   9.990  21.468  0.00  0.00    +0.000 A 
ATOM      5  C   UNL     1      -0.712  10.706  22.592  0.00  0.00    +0.000 A 
ATOM      6  O   UNL     1      -0.440  10.438  23.761  0.00  0.00    +0.000 OA
ATOM      7  C   UNL     1      -1.680  11.755  22.287  0.00  0.00    +0.000 A 
ATOM      8  C   UNL     1      -1.926  11.979  20.991  0.00  0.00    +0.000 A 
ATOM      9  N   UNL     1      -1.336  11.351  19.903  0.00  0.00    +0.000 N 
ATOM     10  C   UNL     1      -0.315  10.344  20.130  0.00  0.00    +0.000 A 
ATOM     11  C   UNL     1       0.463   9.667  19.129  0.00  0.00    +0.000 A 
ATOM     12  C   UNL     1       0.511  10.197  17.721  0.00  0.00    +0.000 C 
ENDROOT
BRANCH   1  19
ATOM     13  N   UNL     1       1.659   3.692  17.795  0.00  0.00    +0.000 NA
ATOM     14  C   UNL     1       2.881   4.153  17.897  0.00  0.00    +0.000 C 
ATOM     15  C   UNL     1       3.055   5.648  17.944  0.00  0.00    +0.000 C 
ATOM     16  C   UNL     1       4.244   6.272  17.837  0.00  0.00    +0.000 C 
ATOM     17  C   UNL     1       4.325   7.778  17.620  0.00  0.00    +0.000 C 
ATOM     18  C   UNL     1       2.948   8.458  17.493  0.00  0.00    +0.000 C 
ATOM     19  N   UNL     1       2.008   7.833  18.429  0.00  0.00    +0.000 N 
ATOM     20  C   UNL     1       1.754   6.415  18.115  0.00  0.00    +0.000 C 
ATOM     21  S   UNL     1       5.769   5.471  18.050  0.00  0.00    +0.000 S 
ATOM     22  C   UNL     1       5.411   3.815  17.466  0.00  0.00    +0.000 C 
ATOM     23  C   UNL     1       4.095   3.215  17.935  0.00  0.00    +0.000 C 
ATOM     24  C   UNL     1       4.204   2.558  19.314  0.00  0.00    +0.000 C 
BRANCH  13  26
ATOM     25  C   UNL     1       0.770   1.780  18.724  0.00  0.00    +0.000 C 
ATOM     26  O   UNL     1       1.630   2.292  17.715  0.00  0.00    +0.000 OA
ENDBRANCH  13  26
ENDBRANCH   1  19
BRANCH   2  27
ATOM     27  N   UNL     1       2.172   7.078  21.294  0.00  0.00    +0.000 N 
ATOM     28  H   UNL     1       3.080   6.886  20.910  0.00  0.00    +0.000 HD
ATOM     29  H   UNL     1       2.152   6.986  22.306  0.00  0.00    +0.000 HD
ENDBRANCH   2  27
BRANCH   9  30
ATOM     30  C   UNL     1      -1.761  11.792  18.551  0.00  0.00    +0.000 C 
ATOM     31  C   UNL     1      -2.411  11.030  17.422  0.00  0.00    +0.000 C 
ATOM     32  C   UNL     1      -3.261  11.877  18.305  0.00  0.00    +0.000 C 
ENDBRANCH   9  30
BRANCH   7  33
ATOM     33  C   UNL     1      -2.362  12.577  23.310  0.00  0.00    +0.000 C 
ATOM     34  O   UNL     1      -1.924  13.647  23.709  0.00  0.00    +0.000 OA
BRANCH  33  35
ATOM     35  O   UNL     1      -3.507  12.045  23.788  0.00  0.00    +0.000 OA
ATOM     36  H   UNL     1      -3.941  12.600  24.482  0.00  0.00    +0.000 HD
ENDBRANCH  33  35
ENDBRANCH   7  33
TORSDOF 6
ENDMDL
MODEL 7
REMARK VINA RESULT:      -6.6      6.517      9.400
REMARK  Name = 
REMARK  9 active torsions:
REMARK  status: ('A' for Active; 'I' for Inactive)
REMARK    1  A    between atoms: C_1  and  O_2
REMARK    2  A    between atoms: O_2  and  N_3
REMARK    3  A    between atoms: N_9  and  C_10
REMARK    4  A    between atoms: C_11  and  N_12
REMARK    5  A    between atoms: C_17  and  C_18
REMARK    6  A    between atoms: C_18  and  O_20
REMARK    7  A    between atoms: N_22  and  C_23
REMARK    8  A    between atoms: C_27  and  C_28
REMARK    9  A    between atoms: C_32  and  C_33
REMARK                            x       y       z     vdW  Elec       q    Type
REMARK                         _______ _______ _______ _____ _____    ______ ____
ROOT
ATOM      1  C   UNL     1      -1.419  13.419  21.877  0.00  0.00    +0.000 A 
ATOM      2  C   UNL     1      -0.490  12.350  21.718  0.00  0.00    +0.000 A 
ATOM      3  C   UNL     1       0.601  12.490  20.854  0.00  0.00    +0.000 A 
ATOM      4  C   UNL     1       0.834  13.672  20.149  0.00  0.00    +0.000 A 
ATOM      5  C   UNL     1       2.023  13.706  19.254  0.00  0.00    +0.000 A 
ATOM      6  O   UNL     1       2.737  12.716  19.111  0.00  0.00    +0.000 OA
ATOM      7  C   UNL     1       2.320  14.936  18.526  0.00  0.00    +0.000 A 
ATOM      8  C   UNL     1       1.501  15.971  18.743  0.00  0.00    +0.000 A 
ATOM      9  N   UNL     1       0.375  15.994  19.556  0.00  0.00    +0.000 N 
ATOM     10  C   UNL     1      -0.020  14.787  20.259  0.00  0.00    +0.000 A 
ATOM     11  C   UNL     1      -1.200  14.606  21.060  0.00  0.00    +0.000 A 
ATOM     12  C   UNL     1      -2.333  15.593  20.974  0.00  0.00    +0.000 C 
ENDROOT
BRANCH   1  19
ATOM     13  N   UNL     1      -6.264  11.762  21.553  0.00  0.00    +0.000 NA
ATOM     14  C   UNL     1      -6.290  12.934  22.137  0.00  0.00    +0.000 C 
ATOM     15  C   UNL     1      -5.002  13.442  22.732  0.00  0.00    +0.000 C 
ATOM     16  C   UNL     1      -4.916  14.517  23.537  0.00  0.00    +0.000 C 
ATOM     17  C   UNL     1      -3.642  14.815  24.318  0.00  0.00    +0.000 C 
ATOM     18  C   UNL     1      -2.537  13.758  24.122  0.00  0.00    +0.000 C 
ATOM     19  N   UNL     1      -2.535  13.309  22.726  0.00  0.00    +0.000 N 
ATOM     20  C   UNL     1      -3.783  12.618  22.351  0.00  0.00    +0.000 C 
ATOM     21  S   UNL     1      -6.166  15.713  23.675  0.00  0.00    +0.000 S 
ATOM     22  C   UNL     1      -7.648  14.745  23.393  0.00  0.00    +0.000 C 
ATOM     23  C   UNL     1      -7.584  13.752  22.244  0.00  0.00    +0.000 C 
ATOM     24  C   UNL     1      -7.909  14.393  20.892  0.00  0.00    +0.000 C 
BRANCH  13  26
ATOM     25  C   UNL     1      -7.394  10.797  19.794  0.00  0.00    +0.000 C 
ATOM     26  O   UNL     1      -7.529  11.382  21.081  0.00  0.00    +0.000 OA
ENDBRANCH  13  26
ENDBRANCH   1  19
BRANCH   2  27
ATOM     27  N   UNL     1      -0.440  11.214  22.553  0.00  0.00    +0.000 N 
ATOM     28  H   UNL     1       0.456  10.989  22.948  0.00  0.00    +0.000 HD
ATOM     29  H   UNL     1      -1.186  11.182  23.241  0.00  0.00    +0.000 HD
ENDBRANCH   2  27
BRANCH   9  30
ATOM     30  C   UNL     1      -0.392  17.264  19.618  0.00  0.00    +0.000 C 
ATOM     31  C   UNL     1      -0.173  18.585  18.924  0.00  0.00    +0.000 C 
ATOM     32  C   UNL     1      -1.184  17.639  18.373  0.00  0.00    +0.000 C 
ENDBRANCH   9  30
BRANCH   7  33
ATOM     33  C   UNL     1       3.436  15.081  17.565  0.00  0.00    +0.000 C 
ATOM     34  O   UNL     1       3.472  15.951  16.707  0.00  0.00    +0.000 OA
BRANCH  33  35
ATOM     35  O   UNL     1       4.415  14.160  17.697  0.00  0.00    +0.000 OA
ATOM     36  H   UNL     1       4.496  13.799  18.614  0.00  0.00    +0.000 HD
ENDBRANCH  33  35
ENDBRANCH   7  33
TORSDOF 6
ENDMDL
MODEL 8
REMARK VINA RESULT:      -6.3      5.352      8.446
REMARK  Name = 
REMARK  9 active torsions:
REMARK  status: ('A' for Active; 'I' for Inactive)
REMARK    1  A    between atoms: C_1  and  O_2
REMARK    2  A    between atoms: O_2  and  N_3
REMARK    3  A    between atoms: N_9  and  C_10
REMARK    4  A    between atoms: C_11  and  N_12
REMARK    5  A    between atoms: C_17  and  C_18
REMARK    6  A    between atoms: C_18  and  O_20
REMARK    7  A    between atoms: N_22  and  C_23
REMARK    8  A    between atoms: C_27  and  C_28
REMARK    9  A    between atoms: C_32  and  C_33
REMARK                            x       y       z     vdW  Elec       q    Type
REMARK                         _______ _______ _______ _____ _____    ______ ____
ROOT
ATOM      1  C   UNL     1      -4.831  12.295  19.285  0.00  0.00    +0.000 A 
ATOM      2  C   UNL     1      -4.821  11.640  18.018  0.00  0.00    +0.000 A 
ATOM      3  C   UNL     1      -3.661  11.002  17.566  0.00  0.00    +0.000 A 
ATOM      4  C   UNL     1      -2.497  10.959  18.338  0.00  0.00    +0.000 A 
ATOM      5  C   UNL     1      -1.322  10.258  17.754  0.00  0.00    +0.000 A 
ATOM      6  O   UNL     1      -1.366   9.782  16.621  0.00  0.00    +0.000 OA
ATOM      7  C   UNL     1      -0.097  10.159  18.543  0.00  0.00    +0.000 A 
ATOM      8  C   UNL     1      -0.134  10.694  19.768  0.00  0.00    +0.000 A 
ATOM      9  N   UNL     1      -1.195  11.366  20.360  0.00  0.00    +0.000 N 
ATOM     10  C   UNL     1      -2.422  11.561  19.609  0.00  0.00    +0.000 A 
ATOM     11  C   UNL     1      -3.576  12.309  20.026  0.00  0.00    +0.000 A 
ATOM     12  C   UNL     1      -3.483  13.258  21.190  0.00  0.00    +0.000 C 
ENDROOT
BRANCH   1  19
ATOM     13  N   UNL     1      -6.863  16.998  19.020  0.00  0.00    +0.000 NA
ATOM     14  C   UNL     1      -6.895  16.628  20.276  0.00  0.00    +0.000 C 
ATOM     15  C   UNL     1      -6.760  15.157  20.570  0.00  0.00    +0.000 C 
ATOM     16  C   UNL     1      -6.982  14.606  21.778  0.00  0.00    +0.000 C 
ATOM     17  C   UNL     1      -7.095  13.096  21.945  0.00  0.00    +0.000 C 
ATOM     18  C   UNL     1      -6.981  12.318  20.619  0.00  0.00    +0.000 C 
ATOM     19  N   UNL     1      -5.975  12.957  19.766  0.00  0.00    +0.000 N 
ATOM     20  C   UNL     1      -6.356  14.324  19.365  0.00  0.00    +0.000 C 
ATOM     21  S   UNL     1      -7.040  15.521  23.252  0.00  0.00    +0.000 S 
ATOM     22  C   UNL     1      -7.691  17.095  22.695  0.00  0.00    +0.000 C 
ATOM     23  C   UNL     1      -7.093  17.644  21.410  0.00  0.00    +0.000 C 
ATOM     24  C   UNL     1      -5.795  18.420  21.648  0.00  0.00    +0.000 C 
BRANCH  13  26
ATOM     25  C   UNL     1      -7.916  18.630  17.781  0.00  0.00    +0.000 C 
ATOM     26  O   UNL     1      -7.043  18.381  18.874  0.00  0.00    +0.000 OA
ENDBRANCH  13  26
ENDBRANCH   1  19
BRANCH   2  27
ATOM     27  N   UNL     1      -5.978  11.369  17.258  0.00  0.00    +0.000 N 
ATOM     28  H   UNL     1      -6.733  12.027  17.343  0.00  0.00    +0.000 HD
ATOM     29  H   UNL     1      -5.781  11.126  16.292  0.00  0.00    +0.000 HD
ENDBRANCH   2  27
BRANCH   9  30
ATOM     30  C   UNL     1      -0.985  11.893  21.732  0.00  0.00    +0.000 C 
ATOM     31  C   UNL     1      -1.746  11.648  23.012  0.00  0.00    +0.000 C 
ATOM     32  C   UNL     1      -0.479  10.901  22.770  0.00  0.00    +0.000 C 
ENDBRANCH   9  30
BRANCH   7  33
ATOM     33  C   UNL     1       1.155   9.540  18.057  0.00  0.00    +0.000 C 
ATOM     34  O   UNL     1       1.443   8.368  18.253  0.00  0.00    +0.000 OA
BRANCH  33  35
ATOM     35  O   UNL     1       1.974  10.379  17.387  0.00  0.00    +0.000 OA
ATOM     36  H   UNL     1       2.025  11.283  17.785  0.00  0.00    +0.000 HD
ENDBRANCH  33  35
ENDBRANCH   7  33
TORSDOF 6
ENDMDL
MODEL 9
REMARK VINA RESULT:      -6.2      6.396      9.019
REMARK  Name = 
REMARK  9 active torsions:
REMARK  status: ('A' for Active; 'I' for Inactive)
REMARK    1  A    between atoms: C_1  and  O_2
REMARK    2  A    between atoms: O_2  and  N_3
REMARK    3  A    between atoms: N_9  and  C_10
REMARK    4  A    between atoms: C_11  and  N_12
REMARK    5  A    between atoms: C_17  and  C_18
REMARK    6  A    between atoms: C_18  and  O_20
REMARK    7  A    between atoms: N_22  and  C_23
REMARK    8  A    between atoms: C_27  and  C_28
REMARK    9  A    between atoms: C_32  and  C_33
REMARK                            x       y       z     vdW  Elec       q    Type
REMARK                         _______ _______ _______ _____ _____    ______ ____
ROOT
ATOM      1  C   UNL     1       0.352  12.855  20.417  0.00  0.00    +0.000 A 
ATOM      2  C   UNL     1       0.989  12.452  19.206  0.00  0.00    +0.000 A 
ATOM      3  C   UNL     1       2.127  13.127  18.753  0.00  0.00    +0.000 A 
ATOM      4  C   UNL     1       2.690  14.184  19.472  0.00  0.00    +0.000 A 
ATOM      5  C   UNL     1       3.897  14.832  18.892  0.00  0.00    +0.000 A 
ATOM      6  O   UNL     1       4.346  14.478  17.803  0.00  0.00    +0.000 OA
ATOM      7  C   UNL     1       4.537  15.917  19.629  0.00  0.00    +0.000 A 
ATOM      8  C   UNL     1       3.993  16.237  20.809  0.00  0.00    +0.000 A 
ATOM      9  N   UNL     1       2.866  15.676  21.395  0.00  0.00    +0.000 N 
ATOM     10  C   UNL     1       2.140  14.637  20.687  0.00  0.00    +0.000 A 
ATOM     11  C   UNL     1       0.910  14.017  21.097  0.00  0.00    +0.000 A 
ATOM     12  C   UNL     1       0.069  14.643  22.177  0.00  0.00    +0.000 C 
ENDROOT
BRANCH   1  19
ATOM     13  N   UNL     1      -4.729  13.271  19.835  0.00  0.00    +0.000 NA
ATOM     14  C   UNL     1      -4.488  13.181  21.120  0.00  0.00    +0.000 C 
ATOM     15  C   UNL     1      -3.150  12.631  21.538  0.00  0.00    +0.000 C 
ATOM     16  C   UNL     1      -2.839  12.285  22.801  0.00  0.00    +0.000 C 
ATOM     17  C   UNL     1      -1.578  11.488  23.110  0.00  0.00    +0.000 C 
ATOM     18  C   UNL     1      -0.769  11.101  21.856  0.00  0.00    +0.000 C 
ATOM     19  N   UNL     1      -0.802  12.208  20.896  0.00  0.00    +0.000 N 
ATOM     20  C   UNL     1      -2.161  12.483  20.393  0.00  0.00    +0.000 C 
ATOM     21  S   UNL     1      -3.748  12.799  24.187  0.00  0.00    +0.000 S 
ATOM     22  C   UNL     1      -5.409  12.922  23.525  0.00  0.00    +0.000 C 
ATOM     23  C   UNL     1      -5.535  13.590  22.165  0.00  0.00    +0.000 C 
ATOM     24  C   UNL     1      -5.608  15.116  22.262  0.00  0.00    +0.000 C 
BRANCH  13  26
ATOM     25  C   UNL     1      -6.587  13.022  18.496  0.00  0.00    +0.000 C 
ATOM     26  O   UNL     1      -6.019  13.753  19.574  0.00  0.00    +0.000 OA
ENDBRANCH  13  26
ENDBRANCH   1  19
BRANCH   2  27
ATOM     27  N   UNL     1       0.703  11.251  18.523  0.00  0.00    +0.000 N 
ATOM     28  H   UNL     1       1.240  10.445  18.793  0.00  0.00    +0.000 HD
ATOM     29  H   UNL     1      -0.290  11.051  18.451  0.00  0.00    +0.000 HD
ENDBRANCH   2  27
BRANCH   9  30
ATOM     30  C   UNL     1       2.442  16.218  22.710  0.00  0.00    +0.000 C 
ATOM     31  C   UNL     1       3.076  17.257  23.601  0.00  0.00    +0.000 C 
ATOM     32  C   UNL     1       1.941  17.655  22.721  0.00  0.00    +0.000 C 
ENDBRANCH   9  30
BRANCH   7  33
ATOM     33  C   UNL     1       5.705  16.679  19.136  0.00  0.00    +0.000 C 
ATOM     34  O   UNL     1       5.824  17.888  19.276  0.00  0.00    +0.000 OA
BRANCH  33  35
ATOM     35  O   UNL     1       6.633  15.934  18.498  0.00  0.00    +0.000 OA
ATOM     36  H   UNL     1       6.328  15.017  18.289  0.00  0.00    +0.000 HD
ENDBRANCH  33  35
ENDBRANCH   7  33
TORSDOF 6
ENDMDL
