MODEL 1
REMARK VINA RESULT:      -7.4      0.000      0.000
REMARK  Name = 
REMARK  5 active torsions:
REMARK  status: ('A' for Active; 'I' for Inactive)
REMARK    1  A    between atoms: C_2  and  C_3
REMARK    2  A    between atoms: C_3  and  C_4
REMARK    3  A    between atoms: C_13  and  O_14
REMARK    4  A    between atoms: O_14  and  C_15
REMARK    5  A    between atoms: C_15  and  C_16
REMARK                            x       y       z     vdW  Elec       q    Type
REMARK                         _______ _______ _______ _____ _____    ______ ____
ROOT
ATOM      1  O   UNL     1       8.732   7.230  19.045  0.00  0.00    +0.000 OA
ATOM      2  C   UNL     1       7.904   7.625  18.226  0.00  0.00    +0.000 C 
ATOM      3  N   UNL     1       6.962   6.769  17.648  0.00  0.00    +0.000 N 
ATOM      4  C   UNL     1       6.970   5.352  18.023  0.00  0.00    +0.000 C 
ATOM      5  C   UNL     1       6.515   4.454  16.868  0.00  0.00    +0.000 C 
ATOM      6  C   UNL     1       5.200   4.938  16.240  0.00  0.00    +0.000 C 
ATOM      7  C   UNL     1       5.359   6.406  15.837  0.00  0.00    +0.000 C 
ATOM      8  C   UNL     1       5.712   7.241  17.058  0.00  0.00    +0.000 C 
ENDROOT
BRANCH   2   9
ATOM      9  C   UNL     1       7.842   9.075  17.758  0.00  0.00    +0.000 C 
BRANCH   9  10
ATOM     10  C   UNL     1       8.824  10.028  18.384  0.00  0.00    +0.000 A 
ATOM     11  C   UNL     1       8.924  10.135  19.775  0.00  0.00    +0.000 A 
ATOM     12  C   UNL     1       9.895  10.955  20.339  0.00  0.00    +0.000 A 
ATOM     13  C   UNL     1      10.744  11.640  19.487  0.00  0.00    +0.000 A 
ATOM     14  N   UNL     1      10.680  11.564  18.141  0.00  0.00    +0.000 NA
ATOM     15  C   UNL     1       9.720  10.767  17.620  0.00  0.00    +0.000 A 
ENDBRANCH   9  10
ENDBRANCH   2   9
BRANCH   6  16
ATOM     16  O   UNL     1       4.151   4.755  17.199  0.00  0.00    +0.000 OA
BRANCH  16  17
ATOM     17  C   UNL     1       3.766   3.391  17.386  0.00  0.00    +0.000 C 
BRANCH  17  18
ATOM     18  C   UNL     1       2.961   3.234  18.650  0.00  0.00    +0.000 A 
ATOM     19  C   UNL     1       1.559   3.315  18.592  0.00  0.00    +0.000 A 
ATOM     20  C   UNL     1       0.789   3.180  19.747  0.00  0.00    +0.000 A 
ATOM     21  C   UNL     1       1.410   2.939  20.970  0.00  0.00    +0.000 A 
ATOM     22  C   UNL     1       2.797   2.826  21.038  0.00  0.00    +0.000 A 
ATOM     23  C   UNL     1       3.568   2.966  19.883  0.00  0.00    +0.000 A 
ENDBRANCH  17  18
ENDBRANCH  16  17
ENDBRANCH   6  16
TORSDOF 5
ENDMDL
MODEL 2
REMARK VINA RESULT:      -7.3      0.760      1.044
REMARK  Name = 
REMARK  5 active torsions:
REMARK  status: ('A' for Active; 'I' for Inactive)
REMARK    1  A    between atoms: C_2  and  C_3
REMARK    2  A    between atoms: C_3  and  C_4
REMARK    3  A    between atoms: C_13  and  O_14
REMARK    4  A    between atoms: O_14  and  C_15
REMARK    5  A    between atoms: C_15  and  C_16
REMARK                            x       y       z     vdW  Elec       q    Type
REMARK                         _______ _______ _______ _____ _____    ______ ____
ROOT
ATOM      1  O   UNL     1       8.644   7.193  18.983  0.00  0.00    +0.000 OA
ATOM      2  C   UNL     1       7.844   7.546  18.118  0.00  0.00    +0.000 C 
ATOM      3  N   UNL     1       6.871   6.682  17.608  0.00  0.00    +0.000 N 
ATOM      4  C   UNL     1       6.810   5.308  18.114  0.00  0.00    +0.000 C 
ATOM      5  C   UNL     1       6.327   4.327  17.040  0.00  0.00    +0.000 C 
ATOM      6  C   UNL     1       5.042   4.808  16.350  0.00  0.00    +0.000 C 
ATOM      7  C   UNL     1       5.272   6.223  15.815  0.00  0.00    +0.000 C 
ATOM      8  C   UNL     1       5.649   7.152  16.959  0.00  0.00    +0.000 C 
ENDROOT
BRANCH   2   9
ATOM      9  C   UNL     1       7.853   8.948  17.517  0.00  0.00    +0.000 C 
BRANCH   9  10
ATOM     10  C   UNL     1       8.600  10.005  18.283  0.00  0.00    +0.000 A 
ATOM     11  C   UNL     1       8.800  11.276  17.732  0.00  0.00    +0.000 A 
ATOM     12  C   UNL     1       9.416  12.269  18.487  0.00  0.00    +0.000 A 
ATOM     13  C   UNL     1       9.807  11.958  19.777  0.00  0.00    +0.000 A 
ATOM     14  N   UNL     1       9.632  10.745  20.344  0.00  0.00    +0.000 NA
ATOM     15  C   UNL     1       9.040   9.796  19.585  0.00  0.00    +0.000 A 
ENDBRANCH   9  10
ENDBRANCH   2   9
BRANCH   6  16
ATOM     16  O   UNL     1       3.976   4.761  17.306  0.00  0.00    +0.000 OA
BRANCH  16  17
ATOM     17  C   UNL     1       3.319   3.494  17.384  0.00  0.00    +0.000 C 
BRANCH  17  18
ATOM     18  C   UNL     1       2.695   3.300  18.742  0.00  0.00    +0.000 A 
ATOM     19  C   UNL     1       1.308   3.467  18.896  0.00  0.00    +0.000 A 
ATOM     20  C   UNL     1       0.704   3.301  20.142  0.00  0.00    +0.000 A 
ATOM     21  C   UNL     1       1.476   2.942  21.244  0.00  0.00    +0.000 A 
ATOM     22  C   UNL     1       2.847   2.743  21.100  0.00  0.00    +0.000 A 
ATOM     23  C   UNL     1       3.453   2.915  19.854  0.00  0.00    +0.000 A 
ENDBRANCH  17  18
ENDBRANCH  16  17
ENDBRANCH   6  16
TORSDOF 5
ENDMDL
MODEL 3
REMARK VINA RESULT:      -7.3      4.291      6.977
REMARK  Name = 
REMARK  5 active torsions:
REMARK  status: ('A' for Active; 'I' for Inactive)
REMARK    1  A    between atoms: C_2  and  C_3
REMARK    2  A    between atoms: C_3  and  C_4
REMARK    3  A    between atoms: C_13  and  O_14
REMARK    4  A    between atoms: O_14  and  C_15
REMARK    5  A    between atoms: C_15  and  C_16
REMARK                            x       y       z     vdW  Elec       q    Type
REMARK                         _______ _______ _______ _____ _____    ______ ____
ROOT
ATOM      1  O   UNL     1       2.370   4.645  17.827  0.00  0.00    +0.000 OA
ATOM      2  C   UNL     1       3.388   5.315  17.991  0.00  0.00    +0.000 C 
ATOM      3  N   UNL     1       4.511   5.175  17.170  0.00  0.00    +0.000 N 
ATOM      4  C   UNL     1       4.475   4.188  16.087  0.00  0.00    +0.000 C 
ATOM      5  C   UNL     1       5.861   3.595  15.811  0.00  0.00    +0.000 C 
ATOM      6  C   UNL     1       6.935   4.680  15.648  0.00  0.00    +0.000 C 
ATOM      7  C   UNL     1       6.903   5.592  16.877  0.00  0.00    +0.000 C 
ATOM      8  C   UNL     1       5.523   6.217  17.019  0.00  0.00    +0.000 C 
ENDROOT
BRANCH   2   9
ATOM      9  C   UNL     1       3.522   6.344  19.109  0.00  0.00    +0.000 C 
BRANCH   9  10
ATOM     10  C   UNL     1       2.624   7.548  19.028  0.00  0.00    +0.000 A 
ATOM     11  C   UNL     1       2.483   8.251  17.827  0.00  0.00    +0.000 A 
ATOM     12  C   UNL     1       1.583   9.309  17.744  0.00  0.00    +0.000 A 
ATOM     13  C   UNL     1       0.845   9.626  18.872  0.00  0.00    +0.000 A 
ATOM     14  N   UNL     1       0.952   8.973  20.048  0.00  0.00    +0.000 NA
ATOM     15  C   UNL     1       1.841   7.955  20.103  0.00  0.00    +0.000 A 
ENDBRANCH   9  10
ENDBRANCH   2   9
BRANCH   6  16
ATOM     16  O   UNL     1       6.667   5.399  14.438  0.00  0.00    +0.000 OA
BRANCH  16  17
ATOM     17  C   UNL     1       7.418   4.943  13.311  0.00  0.00    +0.000 C 
BRANCH  17  18
ATOM     18  C   UNL     1       6.646   3.904  12.540  0.00  0.00    +0.000 A 
ATOM     19  C   UNL     1       5.252   4.031  12.414  0.00  0.00    +0.000 A 
ATOM     20  C   UNL     1       4.510   3.081  11.712  0.00  0.00    +0.000 A 
ATOM     21  C   UNL     1       5.157   2.005  11.108  0.00  0.00    +0.000 A 
ATOM     22  C   UNL     1       6.542   1.883  11.200  0.00  0.00    +0.000 A 
ATOM     23  C   UNL     1       7.283   2.831  11.906  0.00  0.00    +0.000 A 
ENDBRANCH  17  18
ENDBRANCH  16  17
ENDBRANCH   6  16
TORSDOF 5
ENDMDL
MODEL 4
REMARK VINA RESULT:      -7.3      4.698      7.217
REMARK  Name = 
REMARK  5 active torsions:
REMARK  status: ('A' for Active; 'I' for Inactive)
REMARK    1  A    between atoms: C_2  and  C_3
REMARK    2  A    between atoms: C_3  and  C_4
REMARK    3  A    between atoms: C_13  and  O_14
REMARK    4  A    between atoms: O_14  and  C_15
REMARK    5  A    between atoms: C_15  and  C_16
REMARK                            x       y       z     vdW  Elec       q    Type
REMARK                         _______ _______ _______ _____ _____    ______ ____
ROOT
ATOM      1  O   UNL     1       2.012   8.644  19.282  0.00  0.00    +0.000 OA
ATOM      2  C   UNL     1       1.734   7.731  20.057  0.00  0.00    +0.000 C 
ATOM      3  N   UNL     1       1.874   6.386  19.704  0.00  0.00    +0.000 N 
ATOM      4  C   UNL     1       2.359   6.055  18.361  0.00  0.00    +0.000 C 
ATOM      5  C   UNL     1       1.762   4.740  17.848  0.00  0.00    +0.000 C 
ATOM      6  C   UNL     1       1.897   3.603  18.871  0.00  0.00    +0.000 C 
ATOM      7  C   UNL     1       1.292   4.063  20.200  0.00  0.00    +0.000 C 
ATOM      8  C   UNL     1       2.008   5.313  20.687  0.00  0.00    +0.000 C 
ENDROOT
BRANCH   2   9
ATOM      9  C   UNL     1       1.197   7.984  21.462  0.00  0.00    +0.000 C 
BRANCH   9  10
ATOM     10  C   UNL     1       0.282   9.166  21.631  0.00  0.00    +0.000 A 
ATOM     11  C   UNL     1      -0.168   9.543  22.902  0.00  0.00    +0.000 A 
ATOM     12  C   UNL     1      -0.942  10.688  23.051  0.00  0.00    +0.000 A 
ATOM     13  C   UNL     1      -1.237  11.428  21.919  0.00  0.00    +0.000 A 
ATOM     14  N   UNL     1      -0.823  11.098  20.677  0.00  0.00    +0.000 NA
ATOM     15  C   UNL     1      -0.080   9.975  20.559  0.00  0.00    +0.000 A 
ENDBRANCH   9  10
ENDBRANCH   2   9
BRANCH   6  16
ATOM     16  O   UNL     1       3.286   3.276  18.998  0.00  0.00    +0.000 OA
BRANCH  16  17
ATOM     17  C   UNL     1       3.987   3.219  17.753  0.00  0.00    +0.000 C 
BRANCH  17  18
ATOM     18  C   UNL     1       5.220   4.083  17.795  0.00  0.00    +0.000 A 
ATOM     19  C   UNL     1       5.617   4.664  19.011  0.00  0.00    +0.000 A 
ATOM     20  C   UNL     1       6.750   5.475  19.078  0.00  0.00    +0.000 A 
ATOM     21  C   UNL     1       7.514   5.694  17.934  0.00  0.00    +0.000 A 
ATOM     22  C   UNL     1       7.149   5.100  16.728  0.00  0.00    +0.000 A 
ATOM     23  C   UNL     1       6.013   4.292  16.660  0.00  0.00    +0.000 A 
ENDBRANCH  17  18
ENDBRANCH  16  17
ENDBRANCH   6  16
TORSDOF 5
ENDMDL
MODEL 5
REMARK VINA RESULT:      -7.3      5.249      7.538
REMARK  Name = 
REMARK  5 active torsions:
REMARK  status: ('A' for Active; 'I' for Inactive)
REMARK    1  A    between atoms: C_2  and  C_3
REMARK    2  A    between atoms: C_3  and  C_4
REMARK    3  A    between atoms: C_13  and  O_14
REMARK    4  A    between atoms: O_14  and  C_15
REMARK    5  A    between atoms: C_15  and  C_16
REMARK                            x       y       z     vdW  Elec       q    Type
REMARK                         _______ _______ _______ _____ _____    ______ ____
ROOT
ATOM      1  O   UNL     1       1.900   9.659  17.413  0.00  0.00    +0.000 OA
ATOM      2  C   UNL     1       1.633   9.190  18.518  0.00  0.00    +0.000 C 
ATOM      3  N   UNL     1       1.957   7.876  18.868  0.00  0.00    +0.000 N 
ATOM      4  C   UNL     1       2.629   7.028  17.880  0.00  0.00    +0.000 C 
ATOM      5  C   UNL     1       2.241   5.554  18.037  0.00  0.00    +0.000 C 
ATOM      6  C   UNL     1       2.376   5.069  19.488  0.00  0.00    +0.000 C 
ATOM      7  C   UNL     1       1.573   6.005  20.395  0.00  0.00    +0.000 C 
ATOM      8  C   UNL     1       2.089   7.429  20.252  0.00  0.00    +0.000 C 
ENDROOT
BRANCH   2   9
ATOM      9  C   UNL     1       0.910   9.992  19.596  0.00  0.00    +0.000 C 
BRANCH   9  10
ATOM     10  C   UNL     1      -0.407  10.608  19.208  0.00  0.00    +0.000 A 
ATOM     11  C   UNL     1      -1.191  10.036  18.200  0.00  0.00    +0.000 A 
ATOM     12  C   UNL     1      -2.444  10.566  17.913  0.00  0.00    +0.000 A 
ATOM     13  C   UNL     1      -2.878  11.652  18.653  0.00  0.00    +0.000 A 
ATOM     14  N   UNL     1      -2.152  12.232  19.633  0.00  0.00    +0.000 NA
ATOM     15  C   UNL     1      -0.933  11.703  19.884  0.00  0.00    +0.000 A 
ENDBRANCH   9  10
ENDBRANCH   2   9
BRANCH   6  16
ATOM     16  O   UNL     1       3.768   5.054  19.828  0.00  0.00    +0.000 OA
BRANCH  16  17
ATOM     17  C   UNL     1       4.456   3.874  19.411  0.00  0.00    +0.000 C 
BRANCH  17  18
ATOM     18  C   UNL     1       5.345   4.164  18.230  0.00  0.00    +0.000 A 
ATOM     19  C   UNL     1       4.967   3.715  16.953  0.00  0.00    +0.000 A 
ATOM     20  C   UNL     1       5.774   3.963  15.842  0.00  0.00    +0.000 A 
ATOM     21  C   UNL     1       6.957   4.683  15.992  0.00  0.00    +0.000 A 
ATOM     22  C   UNL     1       7.330   5.159  17.247  0.00  0.00    +0.000 A 
ATOM     23  C   UNL     1       6.525   4.907  18.359  0.00  0.00    +0.000 A 
ENDBRANCH  17  18
ENDBRANCH  16  17
ENDBRANCH   6  16
TORSDOF 5
ENDMDL
MODEL 6
REMARK VINA RESULT:      -7.3      4.695      7.214
REMARK  Name = 
REMARK  5 active torsions:
REMARK  status: ('A' for Active; 'I' for Inactive)
REMARK    1  A    between atoms: C_2  and  C_3
REMARK    2  A    between atoms: C_3  and  C_4
REMARK    3  A    between atoms: C_13  and  O_14
REMARK    4  A    between atoms: O_14  and  C_15
REMARK    5  A    between atoms: C_15  and  C_16
REMARK                            x       y       z     vdW  Elec       q    Type
REMARK                         _______ _______ _______ _____ _____    ______ ____
ROOT
ATOM      1  O   UNL     1       2.046   8.559  19.213  0.00  0.00    +0.000 OA
ATOM      2  C   UNL     1       1.825   7.643  20.004  0.00  0.00    +0.000 C 
ATOM      3  N   UNL     1       1.959   6.299  19.641  0.00  0.00    +0.000 N 
ATOM      4  C   UNL     1       2.365   5.974  18.271  0.00  0.00    +0.000 C 
ATOM      5  C   UNL     1       1.752   4.653  17.795  0.00  0.00    +0.000 C 
ATOM      6  C   UNL     1       1.962   3.517  18.807  0.00  0.00    +0.000 C 
ATOM      7  C   UNL     1       1.434   3.970  20.170  0.00  0.00    +0.000 C 
ATOM      8  C   UNL     1       2.164   5.228  20.613  0.00  0.00    +0.000 C 
ENDROOT
BRANCH   2   9
ATOM      9  C   UNL     1       1.373   7.890  21.439  0.00  0.00    +0.000 C 
BRANCH   9  10
ATOM     10  C   UNL     1       0.585   9.147  21.690  0.00  0.00    +0.000 A 
ATOM     11  C   UNL     1       0.047   9.875  20.624  0.00  0.00    +0.000 A 
ATOM     12  C   UNL     1      -0.751  10.986  20.876  0.00  0.00    +0.000 A 
ATOM     13  C   UNL     1      -0.991  11.330  22.195  0.00  0.00    +0.000 A 
ATOM     14  N   UNL     1      -0.490  10.654  23.251  0.00  0.00    +0.000 NA
ATOM     15  C   UNL     1       0.290   9.584  22.977  0.00  0.00    +0.000 A 
ENDBRANCH   9  10
ENDBRANCH   2   9
BRANCH   6  16
ATOM     16  O   UNL     1       3.360   3.206  18.848  0.00  0.00    +0.000 OA
BRANCH  16  17
ATOM     17  C   UNL     1       3.931   2.922  17.569  0.00  0.00    +0.000 C 
BRANCH  17  18
ATOM     18  C   UNL     1       5.017   3.913  17.238  0.00  0.00    +0.000 A 
ATOM     19  C   UNL     1       5.790   4.464  18.274  0.00  0.00    +0.000 A 
ATOM     20  C   UNL     1       6.796   5.389  17.998  0.00  0.00    +0.000 A 
ATOM     21  C   UNL     1       7.058   5.756  16.680  0.00  0.00    +0.000 A 
ATOM     22  C   UNL     1       6.319   5.195  15.640  0.00  0.00    +0.000 A 
ATOM     23  C   UNL     1       5.309   4.273  15.917  0.00  0.00    +0.000 A 
ENDBRANCH  17  18
ENDBRANCH  16  17
ENDBRANCH   6  16
TORSDOF 5
ENDMDL
MODEL 7
REMARK VINA RESULT:      -7.3      5.912      8.624
REMARK  Name = 
REMARK  5 active torsions:
REMARK  status: ('A' for Active; 'I' for Inactive)
REMARK    1  A    between atoms: C_2  and  C_3
REMARK    2  A    between atoms: C_3  and  C_4
REMARK    3  A    between atoms: C_13  and  O_14
REMARK    4  A    between atoms: O_14  and  C_15
REMARK    5  A    between atoms: C_15  and  C_16
REMARK                            x       y       z     vdW  Elec       q    Type
REMARK                         _______ _______ _______ _____ _____    ______ ____
ROOT
ATOM      1  O   UNL     1       3.925   6.749  17.183  0.00  0.00    +0.000 OA
ATOM      2  C   UNL     1       3.452   6.798  18.317  0.00  0.00    +0.000 C 
ATOM      3  N   UNL     1       2.552   7.794  18.705  0.00  0.00    +0.000 N 
ATOM      4  C   UNL     1       2.169   8.819  17.730  0.00  0.00    +0.000 C 
ATOM      5  C   UNL     1       1.875  10.164  18.403  0.00  0.00    +0.000 C 
ATOM      6  C   UNL     1       0.909  10.021  19.589  0.00  0.00    +0.000 C 
ATOM      7  C   UNL     1       1.468   8.972  20.554  0.00  0.00    +0.000 C 
ATOM      8  C   UNL     1       1.633   7.644  19.831  0.00  0.00    +0.000 C 
ENDROOT
BRANCH   2   9
ATOM      9  C   UNL     1       3.817   5.789  19.401  0.00  0.00    +0.000 C 
BRANCH   9  10
ATOM     10  C   UNL     1       3.366   4.371  19.182  0.00  0.00    +0.000 A 
ATOM     11  C   UNL     1       2.071   4.098  18.726  0.00  0.00    +0.000 A 
ATOM     12  C   UNL     1       1.698   2.788  18.445  0.00  0.00    +0.000 A 
ATOM     13  C   UNL     1       2.639   1.789  18.624  0.00  0.00    +0.000 A 
ATOM     14  N   UNL     1       3.897   2.011  19.061  0.00  0.00    +0.000 NA
ATOM     15  C   UNL     1       4.230   3.292  19.336  0.00  0.00    +0.000 A 
ENDBRANCH   9  10
ENDBRANCH   2   9
BRANCH   6  16
ATOM     16  O   UNL     1      -0.377   9.651  19.077  0.00  0.00    +0.000 OA
BRANCH  16  17
ATOM     17  C   UNL     1      -1.352  10.694  19.144  0.00  0.00    +0.000 C 
BRANCH  17  18
ATOM     18  C   UNL     1      -2.245  10.667  17.930  0.00  0.00    +0.000 A 
ATOM     19  C   UNL     1      -3.371  11.506  17.881  0.00  0.00    +0.000 A 
ATOM     20  C   UNL     1      -4.219  11.498  16.774  0.00  0.00    +0.000 A 
ATOM     21  C   UNL     1      -3.938  10.667  15.691  0.00  0.00    +0.000 A 
ATOM     22  C   UNL     1      -2.808   9.851  15.714  0.00  0.00    +0.000 A 
ATOM     23  C   UNL     1      -1.962   9.856  16.824  0.00  0.00    +0.000 A 
ENDBRANCH  17  18
ENDBRANCH  16  17
ENDBRANCH   6  16
TORSDOF 5
ENDMDL
MODEL 8
REMARK VINA RESULT:      -7.3      6.228      8.830
REMARK  Name = 
REMARK  5 active torsions:
REMARK  status: ('A' for Active; 'I' for Inactive)
REMARK    1  A    between atoms: C_2  and  C_3
REMARK    2  A    between atoms: C_3  and  C_4
REMARK    3  A    between atoms: C_13  and  O_14
REMARK    4  A    between atoms: O_14  and  C_15
REMARK    5  A    between atoms: C_15  and  C_16
REMARK                            x       y       z     vdW  Elec       q    Type
REMARK                         _______ _______ _______ _____ _____    ______ ____
ROOT
ATOM      1  O   UNL     1       3.346   7.510  17.193  0.00  0.00    +0.000 OA
ATOM      2  C   UNL     1       2.906   7.357  18.331  0.00  0.00    +0.000 C 
ATOM      3  N   UNL     1       2.036   8.277  18.922  0.00  0.00    +0.000 N 
ATOM      4  C   UNL     1       1.645   9.468  18.164  0.00  0.00    +0.000 C 
ATOM      5  C   UNL     1       1.395  10.670  19.081  0.00  0.00    +0.000 C 
ATOM      6  C   UNL     1       0.461  10.325  20.250  0.00  0.00    +0.000 C 
ATOM      7  C   UNL     1       1.026   9.110  20.988  0.00  0.00    +0.000 C 
ATOM      8  C   UNL     1       1.147   7.935  20.030  0.00  0.00    +0.000 C 
ENDROOT
BRANCH   2   9
ATOM      9  C   UNL     1       3.282   6.162  19.201  0.00  0.00    +0.000 C 
BRANCH   9  10
ATOM     10  C   UNL     1       3.019   4.798  18.622  0.00  0.00    +0.000 A 
ATOM     11  C   UNL     1       4.077   3.926  18.344  0.00  0.00    +0.000 A 
ATOM     12  C   UNL     1       3.813   2.638  17.891  0.00  0.00    +0.000 A 
ATOM     13  C   UNL     1       2.491   2.260  17.736  0.00  0.00    +0.000 A 
ATOM     14  N   UNL     1       1.443   3.070  17.993  0.00  0.00    +0.000 NA
ATOM     15  C   UNL     1       1.728   4.320  18.422  0.00  0.00    +0.000 A 
ENDBRANCH   9  10
ENDBRANCH   2   9
BRANCH   6  16
ATOM     16  O   UNL     1      -0.846  10.072  19.719  0.00  0.00    +0.000 OA
BRANCH  16  17
ATOM     17  C   UNL     1      -1.549  11.250  19.317  0.00  0.00    +0.000 C 
BRANCH  17  18
ATOM     18  C   UNL     1      -2.345  10.995  18.063  0.00  0.00    +0.000 A 
ATOM     19  C   UNL     1      -3.568  11.659  17.873  0.00  0.00    +0.000 A 
ATOM     20  C   UNL     1      -4.329  11.437  16.726  0.00  0.00    +0.000 A 
ATOM     21  C   UNL     1      -3.865  10.564  15.744  0.00  0.00    +0.000 A 
ATOM     22  C   UNL     1      -2.640   9.921  15.906  0.00  0.00    +0.000 A 
ATOM     23  C   UNL     1      -1.880  10.140  17.056  0.00  0.00    +0.000 A 
ENDBRANCH  17  18
ENDBRANCH  16  17
ENDBRANCH   6  16
TORSDOF 5
ENDMDL
MODEL 9
REMARK VINA RESULT:      -7.2      6.367      9.210
REMARK  Name = 
REMARK  5 active torsions:
REMARK  status: ('A' for Active; 'I' for Inactive)
REMARK    1  A    between atoms: C_2  and  C_3
REMARK    2  A    between atoms: C_3  and  C_4
REMARK    3  A    between atoms: C_13  and  O_14
REMARK    4  A    between atoms: O_14  and  C_15
REMARK    5  A    between atoms: C_15  and  C_16
REMARK                            x       y       z     vdW  Elec       q    Type
REMARK                         _______ _______ _______ _____ _____    ______ ____
ROOT
ATOM      1  O   UNL     1       2.690   6.909  18.273  0.00  0.00    +0.000 OA
ATOM      2  C   UNL     1       2.314   7.064  19.434  0.00  0.00    +0.000 C 
ATOM      3  N   UNL     1       1.629   8.211  19.846  0.00  0.00    +0.000 N 
ATOM      4  C   UNL     1       1.359   9.264  18.864  0.00  0.00    +0.000 C 
ATOM      5  C   UNL     1       1.350  10.655  19.509  0.00  0.00    +0.000 C 
ATOM      6  C   UNL     1       0.461  10.709  20.760  0.00  0.00    +0.000 C 
ATOM      7  C   UNL     1       0.898   9.600  21.721  0.00  0.00    +0.000 C 
ATOM      8  C   UNL     1       0.781   8.248  21.036  0.00  0.00    +0.000 C 
ENDROOT
BRANCH   2   9
ATOM      9  C   UNL     1       2.576   6.032  20.526  0.00  0.00    +0.000 C 
BRANCH   9  10
ATOM     10  C   UNL     1       2.319   4.594  20.169  0.00  0.00    +0.000 A 
ATOM     11  C   UNL     1       1.013   4.095  20.117  0.00  0.00    +0.000 A 
ATOM     12  C   UNL     1       0.786   2.787  19.702  0.00  0.00    +0.000 A 
ATOM     13  C   UNL     1       1.880   2.019  19.342  0.00  0.00    +0.000 A 
ATOM     14  N   UNL     1       3.154   2.463  19.378  0.00  0.00    +0.000 NA
ATOM     15  C   UNL     1       3.347   3.734  19.795  0.00  0.00    +0.000 A 
ENDBRANCH   9  10
ENDBRANCH   2   9
BRANCH   6  16
ATOM     16  O   UNL     1      -0.903  10.556  20.348  0.00  0.00    +0.000 OA
BRANCH  16  17
ATOM     17  C   UNL     1      -1.441  11.701  19.683  0.00  0.00    +0.000 C 
BRANCH  17  18
ATOM     18  C   UNL     1      -2.283  11.287  18.505  0.00  0.00    +0.000 A 
ATOM     19  C   UNL     1      -1.734  10.441  17.525  0.00  0.00    +0.000 A 
ATOM     20  C   UNL     1      -2.488  10.047  16.420  0.00  0.00    +0.000 A 
ATOM     21  C   UNL     1      -3.808  10.475  16.292  0.00  0.00    +0.000 A 
ATOM     22  C   UNL     1      -4.375  11.289  17.271  0.00  0.00    +0.000 A 
ATOM     23  C   UNL     1      -3.619  11.687  18.375  0.00  0.00    +0.000 A 
ENDBRANCH  17  18
ENDBRANCH  16  17
ENDBRANCH   6  16
TORSDOF 5
ENDMDL
