MODEL 1
REMARK VINA RESULT:      -8.7      0.000      0.000
REMARK  Name = 
REMARK  7 active torsions:
REMARK  status: ('A' for Active; 'I' for Inactive)
REMARK    1  A    between atoms: C_2  and  C_3
REMARK    2  A    between atoms: C_2  and  C_21
REMARK    3  A    between atoms: C_3  and  C_4
REMARK    4  A    between atoms: C_4  and  N_5
REMARK    5  A    between atoms: C_4  and  C_15
REMARK    6  A    between atoms: N_5  and  C_6
REMARK    7  A    between atoms: C_9  and  N_10
REMARK                            x       y       z     vdW  Elec       q    Type
REMARK                         _______ _______ _______ _____ _____    ______ ____
ROOT
ATOM      1  C   UNL     1       3.120   5.113  19.585  0.00  0.00    +0.000 C 
ENDROOT
BRANCH   1   2
ATOM      2  C   UNL     1       3.055   3.688  20.232  0.00  0.00    +0.000 C 
ATOM      3  C   UNL     1       1.707   3.382  20.917  0.00  0.00    +0.000 C 
ATOM      4  C   UNL     1       0.559   3.171  19.926  0.00  0.00    +0.000 C 
ATOM      5  C   UNL     1       0.891   2.135  18.854  0.00  0.00    +0.000 C 
ATOM      6  C   UNL     1       2.240   2.394  18.191  0.00  0.00    +0.000 C 
ATOM      7  C   UNL     1       3.341   2.544  19.235  0.00  0.00    +0.000 C 
ENDBRANCH   1   2
BRANCH   1   8
ATOM      8  N   UNL     1       4.527   5.522  19.392  0.00  0.00    +0.000 N 
ATOM      9  H   UNL     1       5.127   5.179  20.141  0.00  0.00    +0.000 HD
BRANCH   8  10
ATOM     10  C   UNL     1       5.149   5.519  18.141  0.00  0.00    +0.000 A 
ATOM     11  C   UNL     1       6.518   5.757  17.973  0.00  0.00    +0.000 A 
ATOM     12  C   UNL     1       7.144   5.607  16.726  0.00  0.00    +0.000 A 
ATOM     13  C   UNL     1       6.399   5.180  15.624  0.00  0.00    +0.000 A 
ATOM     14  C   UNL     1       5.025   4.960  15.751  0.00  0.00    +0.000 A 
ATOM     15  C   UNL     1       4.415   5.135  17.003  0.00  0.00    +0.000 A 
BRANCH  13  16
ATOM     16  N   UNL     1       7.070   4.921  14.344  0.00  0.00    +0.000 N 
ATOM     17  O   UNL     1       8.079   5.592  14.075  0.00  0.00    +0.000 OA
ATOM     18  O   UNL     1       6.599   4.040  13.609  0.00  0.00    +0.000 OA
ENDBRANCH  13  16
ENDBRANCH   8  10
ENDBRANCH   1   8
BRANCH   1  19
ATOM     19  C   UNL     1       2.334   6.210  20.358  0.00  0.00    +0.000 C 
BRANCH  19  21
ATOM     20  O   UNL     1       2.504   7.776  18.517  0.00  0.00    +0.000 OA
ATOM     21  C   UNL     1       2.081   7.535  19.652  0.00  0.00    +0.000 C 
BRANCH  21  22
ATOM     22  C   UNL     1       1.285   8.601  20.355  0.00  0.00    +0.000 A 
ATOM     23  C   UNL     1       0.790   9.744  19.707  0.00  0.00    +0.000 A 
ATOM     24  C   UNL     1       0.119  10.743  20.433  0.00  0.00    +0.000 A 
ATOM     25  C   UNL     1      -0.064  10.599  21.806  0.00  0.00    +0.000 A 
ATOM     26  C   UNL     1       0.392   9.454  22.441  0.00  0.00    +0.000 A 
ATOM     27  F   UNL     1       0.209   9.313  23.760  0.00  0.00    +0.000 F 
ATOM     28  C   UNL     1       1.054   8.457  21.732  0.00  0.00    +0.000 A 
ENDBRANCH  21  22
ENDBRANCH  19  21
ENDBRANCH   1  19
TORSDOF 7
ENDMDL
MODEL 2
REMARK VINA RESULT:      -8.6      1.508      2.034
REMARK  Name = 
REMARK  7 active torsions:
REMARK  status: ('A' for Active; 'I' for Inactive)
REMARK    1  A    between atoms: C_2  and  C_3
REMARK    2  A    between atoms: C_2  and  C_21
REMARK    3  A    between atoms: C_3  and  C_4
REMARK    4  A    between atoms: C_4  and  N_5
REMARK    5  A    between atoms: C_4  and  C_15
REMARK    6  A    between atoms: N_5  and  C_6
REMARK    7  A    between atoms: C_9  and  N_10
REMARK                            x       y       z     vdW  Elec       q    Type
REMARK                         _______ _______ _______ _____ _____    ______ ____
ROOT
ATOM      1  C   UNL     1       3.891   4.260  18.595  0.00  0.00    +0.000 C 
ENDROOT
BRANCH   1   2
ATOM      2  C   UNL     1       3.460   3.452  19.867  0.00  0.00    +0.000 C 
ATOM      3  C   UNL     1       2.422   4.186  20.742  0.00  0.00    +0.000 C 
ATOM      4  C   UNL     1       1.033   4.254  20.103  0.00  0.00    +0.000 C 
ATOM      5  C   UNL     1       0.523   2.885  19.658  0.00  0.00    +0.000 C 
ATOM      6  C   UNL     1       1.548   2.122  18.826  0.00  0.00    +0.000 C 
ATOM      7  C   UNL     1       2.891   2.052  19.545  0.00  0.00    +0.000 C 
ENDBRANCH   1   2
BRANCH   1   8
ATOM      8  N   UNL     1       4.967   3.543  17.878  0.00  0.00    +0.000 N 
ATOM      9  H   UNL     1       4.774   2.545  17.805  0.00  0.00    +0.000 HD
BRANCH   8  10
ATOM     10  C   UNL     1       5.601   4.068  16.749  0.00  0.00    +0.000 A 
ATOM     11  C   UNL     1       6.886   4.622  16.788  0.00  0.00    +0.000 A 
ATOM     12  C   UNL     1       7.555   5.010  15.617  0.00  0.00    +0.000 A 
ATOM     13  C   UNL     1       6.948   4.815  14.374  0.00  0.00    +0.000 A 
ATOM     14  C   UNL     1       5.656   4.290  14.302  0.00  0.00    +0.000 A 
ATOM     15  C   UNL     1       4.995   3.927  15.487  0.00  0.00    +0.000 A 
BRANCH  13  16
ATOM     16  N   UNL     1       7.687   5.122  13.143  0.00  0.00    +0.000 N 
ATOM     17  O   UNL     1       7.320   4.567  12.096  0.00  0.00    +0.000 OA
ATOM     18  O   UNL     1       8.628   5.926  13.216  0.00  0.00    +0.000 OA
ENDBRANCH  13  16
ENDBRANCH   8  10
ENDBRANCH   1   8
BRANCH   1  19
ATOM     19  C   UNL     1       4.307   5.731  18.877  0.00  0.00    +0.000 C 
BRANCH  19  21
ATOM     20  O   UNL     1       4.148   6.970  16.800  0.00  0.00    +0.000 OA
ATOM     21  C   UNL     1       3.754   6.814  17.960  0.00  0.00    +0.000 C 
BRANCH  21  22
ATOM     22  C   UNL     1       2.684   7.737  18.477  0.00  0.00    +0.000 A 
ATOM     23  C   UNL     1       2.157   8.800  17.726  0.00  0.00    +0.000 A 
ATOM     24  C   UNL     1       1.213   9.675  18.292  0.00  0.00    +0.000 A 
ATOM     25  C   UNL     1       0.789   9.485  19.604  0.00  0.00    +0.000 A 
ATOM     26  C   UNL     1       1.281   8.414  20.334  0.00  0.00    +0.000 A 
ATOM     27  F   UNL     1       0.867   8.228  21.594  0.00  0.00    +0.000 F 
ATOM     28  C   UNL     1       2.212   7.539  19.784  0.00  0.00    +0.000 A 
ENDBRANCH  21  22
ENDBRANCH  19  21
ENDBRANCH   1  19
TORSDOF 7
ENDMDL
MODEL 3
REMARK VINA RESULT:      -8.6      0.578      1.027
REMARK  Name = 
REMARK  7 active torsions:
REMARK  status: ('A' for Active; 'I' for Inactive)
REMARK    1  A    between atoms: C_2  and  C_3
REMARK    2  A    between atoms: C_2  and  C_21
REMARK    3  A    between atoms: C_3  and  C_4
REMARK    4  A    between atoms: C_4  and  N_5
REMARK    5  A    between atoms: C_4  and  C_15
REMARK    6  A    between atoms: N_5  and  C_6
REMARK    7  A    between atoms: C_9  and  N_10
REMARK                            x       y       z     vdW  Elec       q    Type
REMARK                         _______ _______ _______ _____ _____    ______ ____
ROOT
ATOM      1  C   UNL     1       3.051   5.322  19.401  0.00  0.00    +0.000 C 
ENDROOT
BRANCH   1   2
ATOM      2  C   UNL     1       3.083   3.893  20.044  0.00  0.00    +0.000 C 
ATOM      3  C   UNL     1       1.853   3.583  20.922  0.00  0.00    +0.000 C 
ATOM      4  C   UNL     1       0.569   3.378  20.113  0.00  0.00    +0.000 C 
ATOM      5  C   UNL     1       0.736   2.348  18.998  0.00  0.00    +0.000 C 
ATOM      6  C   UNL     1       1.970   2.609  18.142  0.00  0.00    +0.000 C 
ATOM      7  C   UNL     1       3.216   2.754  19.009  0.00  0.00    +0.000 C 
ENDBRANCH   1   2
BRANCH   1   8
ATOM      8  N   UNL     1       4.415   5.733  19.006  0.00  0.00    +0.000 N 
ATOM      9  H   UNL     1       5.085   5.601  19.763  0.00  0.00    +0.000 HD
BRANCH   8  10
ATOM     10  C   UNL     1       4.948   5.463  17.743  0.00  0.00    +0.000 A 
ATOM     11  C   UNL     1       4.693   6.265  16.624  0.00  0.00    +0.000 A 
ATOM     12  C   UNL     1       5.354   6.056  15.404  0.00  0.00    +0.000 A 
ATOM     13  C   UNL     1       6.313   5.046  15.299  0.00  0.00    +0.000 A 
ATOM     14  C   UNL     1       6.572   4.211  16.388  0.00  0.00    +0.000 A 
ATOM     15  C   UNL     1       5.886   4.424  17.594  0.00  0.00    +0.000 A 
BRANCH  13  16
ATOM     16  N   UNL     1       7.081   4.894  14.056  0.00  0.00    +0.000 N 
ATOM     17  O   UNL     1       6.696   4.041  13.241  0.00  0.00    +0.000 OA
ATOM     18  O   UNL     1       8.062   5.633  13.885  0.00  0.00    +0.000 OA
ENDBRANCH  13  16
ENDBRANCH   8  10
ENDBRANCH   1   8
BRANCH   1  19
ATOM     19  C   UNL     1       2.387   6.413  20.288  0.00  0.00    +0.000 C 
BRANCH  19  21
ATOM     20  O   UNL     1       2.317   8.012  18.468  0.00  0.00    +0.000 OA
ATOM     21  C   UNL     1       1.986   7.722  19.622  0.00  0.00    +0.000 C 
BRANCH  21  22
ATOM     22  C   UNL     1       1.152   8.712  20.391  0.00  0.00    +0.000 A 
ATOM     23  C   UNL     1       0.527   9.818  19.794  0.00  0.00    +0.000 A 
ATOM     24  C   UNL     1      -0.176  10.749  20.578  0.00  0.00    +0.000 A 
ATOM     25  C   UNL     1      -0.261  10.574  21.956  0.00  0.00    +0.000 A 
ATOM     26  C   UNL     1       0.325   9.462  22.542  0.00  0.00    +0.000 A 
ATOM     27  F   UNL     1       0.235   9.290  23.867  0.00  0.00    +0.000 F 
ATOM     28  C   UNL     1       1.019   8.531  21.777  0.00  0.00    +0.000 A 
ENDBRANCH  21  22
ENDBRANCH  19  21
ENDBRANCH   1  19
TORSDOF 7
ENDMDL
MODEL 4
REMARK VINA RESULT:      -8.5      0.928      1.309
REMARK  Name = 
REMARK  7 active torsions:
REMARK  status: ('A' for Active; 'I' for Inactive)
REMARK    1  A    between atoms: C_2  and  C_3
REMARK    2  A    between atoms: C_2  and  C_21
REMARK    3  A    between atoms: C_3  and  C_4
REMARK    4  A    between atoms: C_4  and  N_5
REMARK    5  A    between atoms: C_4  and  C_15
REMARK    6  A    between atoms: N_5  and  C_6
REMARK    7  A    between atoms: C_9  and  N_10
REMARK                            x       y       z     vdW  Elec       q    Type
REMARK                         _______ _______ _______ _____ _____    ______ ____
ROOT
ATOM      1  C   UNL     1       3.119   5.102  19.573  0.00  0.00    +0.000 C 
ENDROOT
BRANCH   1   2
ATOM      2  C   UNL     1       3.073   3.663  20.190  0.00  0.00    +0.000 C 
ATOM      3  C   UNL     1       1.761   3.356  20.942  0.00  0.00    +0.000 C 
ATOM      4  C   UNL     1       0.558   3.181  20.013  0.00  0.00    +0.000 C 
ATOM      5  C   UNL     1       0.817   2.167  18.900  0.00  0.00    +0.000 C 
ATOM      6  C   UNL     1       2.130   2.426  18.169  0.00  0.00    +0.000 C 
ATOM      7  C   UNL     1       3.289   2.539  19.153  0.00  0.00    +0.000 C 
ENDBRANCH   1   2
BRANCH   1   8
ATOM      8  N   UNL     1       4.522   5.526  19.373  0.00  0.00    +0.000 N 
ATOM      9  H   UNL     1       5.130   5.186  20.117  0.00  0.00    +0.000 HD
BRANCH   8  10
ATOM     10  C   UNL     1       5.136   5.535  18.119  0.00  0.00    +0.000 A 
ATOM     11  C   UNL     1       6.477   5.892  17.932  0.00  0.00    +0.000 A 
ATOM     12  C   UNL     1       7.108   5.755  16.686  0.00  0.00    +0.000 A 
ATOM     13  C   UNL     1       6.401   5.221  15.606  0.00  0.00    +0.000 A 
ATOM     14  C   UNL     1       5.054   4.881  15.751  0.00  0.00    +0.000 A 
ATOM     15  C   UNL     1       4.436   5.044  17.001  0.00  0.00    +0.000 A 
BRANCH  13  16
ATOM     16  N   UNL     1       7.088   4.979  14.331  0.00  0.00    +0.000 N 
ATOM     17  O   UNL     1       8.117   5.631  14.097  0.00  0.00    +0.000 OA
ATOM     18  O   UNL     1       6.609   4.128  13.566  0.00  0.00    +0.000 OA
ENDBRANCH  13  16
ENDBRANCH   8  10
ENDBRANCH   1   8
BRANCH   1  19
ATOM     19  C   UNL     1       2.334   6.175  20.378  0.00  0.00    +0.000 C 
BRANCH  19  21
ATOM     20  O   UNL     1       2.531   7.805  18.595  0.00  0.00    +0.000 OA
ATOM     21  C   UNL     1       2.101   7.529  19.720  0.00  0.00    +0.000 C 
BRANCH  21  22
ATOM     22  C   UNL     1       1.316   8.579  20.458  0.00  0.00    +0.000 A 
ATOM     23  C   UNL     1       1.124   8.560  21.848  0.00  0.00    +0.000 A 
ATOM     24  C   UNL     1       0.318   9.528  22.472  0.00  0.00    +0.000 A 
ATOM     25  C   UNL     1      -0.293  10.519  21.708  0.00  0.00    +0.000 A 
ATOM     26  C   UNL     1      -0.075  10.561  20.339  0.00  0.00    +0.000 A 
ATOM     27  F   UNL     1      -0.657  11.519  19.607  0.00  0.00    +0.000 F 
ATOM     28  C   UNL     1       0.725   9.612  19.712  0.00  0.00    +0.000 A 
ENDBRANCH  21  22
ENDBRANCH  19  21
ENDBRANCH   1  19
TORSDOF 7
ENDMDL
MODEL 5
REMARK VINA RESULT:      -8.5      1.634      2.125
REMARK  Name = 
REMARK  7 active torsions:
REMARK  status: ('A' for Active; 'I' for Inactive)
REMARK    1  A    between atoms: C_2  and  C_3
REMARK    2  A    between atoms: C_2  and  C_21
REMARK    3  A    between atoms: C_3  and  C_4
REMARK    4  A    between atoms: C_4  and  N_5
REMARK    5  A    between atoms: C_4  and  C_15
REMARK    6  A    between atoms: N_5  and  C_6
REMARK    7  A    between atoms: C_9  and  N_10
REMARK                            x       y       z     vdW  Elec       q    Type
REMARK                         _______ _______ _______ _____ _____    ______ ____
ROOT
ATOM      1  C   UNL     1       3.973   4.047  18.755  0.00  0.00    +0.000 C 
ENDROOT
BRANCH   1   2
ATOM      2  C   UNL     1       3.520   2.790  19.573  0.00  0.00    +0.000 C 
ATOM      3  C   UNL     1       2.881   3.136  20.934  0.00  0.00    +0.000 C 
ATOM      4  C   UNL     1       1.492   3.766  20.806  0.00  0.00    +0.000 C 
ATOM      5  C   UNL     1       0.547   2.937  19.938  0.00  0.00    +0.000 C 
ATOM      6  C   UNL     1       1.173   2.547  18.604  0.00  0.00    +0.000 C 
ATOM      7  C   UNL     1       2.529   1.882  18.811  0.00  0.00    +0.000 C 
ENDBRANCH   1   2
BRANCH   1   8
ATOM      8  N   UNL     1       5.385   3.903  18.341  0.00  0.00    +0.000 N 
ATOM      9  H   UNL     1       5.790   3.028  18.672  0.00  0.00    +0.000 HD
BRANCH   8  10
ATOM     10  C   UNL     1       5.843   4.279  17.076  0.00  0.00    +0.000 A 
ATOM     11  C   UNL     1       7.140   4.754  16.848  0.00  0.00    +0.000 A 
ATOM     12  C   UNL     1       7.620   4.989  15.550  0.00  0.00    +0.000 A 
ATOM     13  C   UNL     1       6.804   4.716  14.450  0.00  0.00    +0.000 A 
ATOM     14  C   UNL     1       5.495   4.268  14.643  0.00  0.00    +0.000 A 
ATOM     15  C   UNL     1       5.028   4.058  15.950  0.00  0.00    +0.000 A 
BRANCH  13  16
ATOM     16  N   UNL     1       7.339   4.860  13.090  0.00  0.00    +0.000 N 
ATOM     17  O   UNL     1       8.116   5.802  12.872  0.00  0.00    +0.000 OA
ATOM     18  O   UNL     1       6.994   4.026  12.239  0.00  0.00    +0.000 OA
ENDBRANCH  13  16
ENDBRANCH   8  10
ENDBRANCH   1   8
BRANCH   1  19
ATOM     19  C   UNL     1       3.752   5.404  19.482  0.00  0.00    +0.000 C 
BRANCH  19  21
ATOM     20  O   UNL     1       3.585   6.750  17.473  0.00  0.00    +0.000 OA
ATOM     21  C   UNL     1       3.258   6.582  18.652  0.00  0.00    +0.000 C 
BRANCH  21  22
ATOM     22  C   UNL     1       2.334   7.588  19.284  0.00  0.00    +0.000 A 
ATOM     23  C   UNL     1       1.816   7.448  20.581  0.00  0.00    +0.000 A 
ATOM     24  C   UNL     1       0.897   8.384  21.088  0.00  0.00    +0.000 A 
ATOM     25  C   UNL     1       0.498   9.462  20.302  0.00  0.00    +0.000 A 
ATOM     26  C   UNL     1       1.037   9.620  19.034  0.00  0.00    +0.000 A 
ATOM     27  F   UNL     1       0.659  10.662  18.282  0.00  0.00    +0.000 F 
ATOM     28  C   UNL     1       1.951   8.705  18.524  0.00  0.00    +0.000 A 
ENDBRANCH  21  22
ENDBRANCH  19  21
ENDBRANCH   1  19
TORSDOF 7
ENDMDL
MODEL 6
REMARK VINA RESULT:      -8.4      0.836      1.499
REMARK  Name = 
REMARK  7 active torsions:
REMARK  status: ('A' for Active; 'I' for Inactive)
REMARK    1  A    between atoms: C_2  and  C_3
REMARK    2  A    between atoms: C_2  and  C_21
REMARK    3  A    between atoms: C_3  and  C_4
REMARK    4  A    between atoms: C_4  and  N_5
REMARK    5  A    between atoms: C_4  and  C_15
REMARK    6  A    between atoms: N_5  and  C_6
REMARK    7  A    between atoms: C_9  and  N_10
REMARK                            x       y       z     vdW  Elec       q    Type
REMARK                         _______ _______ _______ _____ _____    ______ ____
ROOT
ATOM      1  C   UNL     1       3.019   5.221  19.602  0.00  0.00    +0.000 C 
ENDROOT
BRANCH   1   2
ATOM      2  C   UNL     1       2.699   4.048  20.590  0.00  0.00    +0.000 C 
ATOM      3  C   UNL     1       1.194   3.730  20.704  0.00  0.00    +0.000 C 
ATOM      4  C   UNL     1       0.621   3.060  19.452  0.00  0.00    +0.000 C 
ATOM      5  C   UNL     1       1.422   1.832  19.024  0.00  0.00    +0.000 C 
ATOM      6  C   UNL     1       2.919   2.111  18.945  0.00  0.00    +0.000 C 
ATOM      7  C   UNL     1       3.428   2.731  20.241  0.00  0.00    +0.000 C 
ENDBRANCH   1   2
BRANCH   1   8
ATOM      8  N   UNL     1       4.482   5.363  19.437  0.00  0.00    +0.000 N 
ATOM      9  H   UNL     1       4.990   5.019  20.251  0.00  0.00    +0.000 HD
BRANCH   8  10
ATOM     10  C   UNL     1       5.133   5.103  18.229  0.00  0.00    +0.000 A 
ATOM     11  C   UNL     1       4.503   4.485  17.143  0.00  0.00    +0.000 A 
ATOM     12  C   UNL     1       5.134   4.367  15.895  0.00  0.00    +0.000 A 
ATOM     13  C   UNL     1       6.411   4.902  15.711  0.00  0.00    +0.000 A 
ATOM     14  C   UNL     1       7.079   5.501  16.781  0.00  0.00    +0.000 A 
ATOM     15  C   UNL     1       6.438   5.592  18.027  0.00  0.00    +0.000 A 
BRANCH  13  16
ATOM     16  N   UNL     1       7.031   4.873  14.380  0.00  0.00    +0.000 N 
ATOM     17  O   UNL     1       6.545   4.107  13.534  0.00  0.00    +0.000 OA
ATOM     18  O   UNL     1       7.997   5.623  14.173  0.00  0.00    +0.000 OA
ENDBRANCH  13  16
ENDBRANCH   8  10
ENDBRANCH   1   8
BRANCH   1  19
ATOM     19  C   UNL     1       2.378   6.583  19.990  0.00  0.00    +0.000 C 
BRANCH  19  21
ATOM     20  O   UNL     1       2.869   7.556  17.825  0.00  0.00    +0.000 OA
ATOM     21  C   UNL     1       2.312   7.667  18.922  0.00  0.00    +0.000 C 
BRANCH  21  22
ATOM     22  C   UNL     1       1.542   8.929  19.202  0.00  0.00    +0.000 A 
ATOM     23  C   UNL     1       1.468  10.001  18.300  0.00  0.00    +0.000 A 
ATOM     24  C   UNL     1       0.795  11.185  18.651  0.00  0.00    +0.000 A 
ATOM     25  C   UNL     1       0.190  11.296  19.900  0.00  0.00    +0.000 A 
ATOM     26  C   UNL     1       0.231  10.223  20.778  0.00  0.00    +0.000 A 
ATOM     27  F   UNL     1      -0.358  10.328  21.976  0.00  0.00    +0.000 F 
ATOM     28  C   UNL     1       0.889   9.045  20.440  0.00  0.00    +0.000 A 
ENDBRANCH  21  22
ENDBRANCH  19  21
ENDBRANCH   1  19
TORSDOF 7
ENDMDL
MODEL 7
REMARK VINA RESULT:      -8.4      1.395      2.047
REMARK  Name = 
REMARK  7 active torsions:
REMARK  status: ('A' for Active; 'I' for Inactive)
REMARK    1  A    between atoms: C_2  and  C_3
REMARK    2  A    between atoms: C_2  and  C_21
REMARK    3  A    between atoms: C_3  and  C_4
REMARK    4  A    between atoms: C_4  and  N_5
REMARK    5  A    between atoms: C_4  and  C_15
REMARK    6  A    between atoms: N_5  and  C_6
REMARK    7  A    between atoms: C_9  and  N_10
REMARK                            x       y       z     vdW  Elec       q    Type
REMARK                         _______ _______ _______ _____ _____    ______ ____
ROOT
ATOM      1  C   UNL     1       3.953   4.090  18.553  0.00  0.00    +0.000 C 
ENDROOT
BRANCH   1   2
ATOM      2  C   UNL     1       3.508   2.814  19.346  0.00  0.00    +0.000 C 
ATOM      3  C   UNL     1       2.995   3.119  20.769  0.00  0.00    +0.000 C 
ATOM      4  C   UNL     1       1.630   3.812  20.783  0.00  0.00    +0.000 C 
ATOM      5  C   UNL     1       0.584   3.067  19.956  0.00  0.00    +0.000 C 
ATOM      6  C   UNL     1       1.084   2.717  18.559  0.00  0.00    +0.000 C 
ATOM      7  C   UNL     1       2.421   1.987  18.625  0.00  0.00    +0.000 C 
ENDBRANCH   1   2
BRANCH   1   8
ATOM      8  N   UNL     1       5.404   4.036  18.274  0.00  0.00    +0.000 N 
ATOM      9  H   UNL     1       5.876   3.344  18.854  0.00  0.00    +0.000 HD
BRANCH   8  10
ATOM     10  C   UNL     1       5.928   4.123  16.982  0.00  0.00    +0.000 A 
ATOM     11  C   UNL     1       5.193   3.784  15.840  0.00  0.00    +0.000 A 
ATOM     12  C   UNL     1       5.691   4.016  14.549  0.00  0.00    +0.000 A 
ATOM     13  C   UNL     1       6.936   4.628  14.386  0.00  0.00    +0.000 A 
ATOM     14  C   UNL     1       7.707   4.953  15.504  0.00  0.00    +0.000 A 
ATOM     15  C   UNL     1       7.199   4.695  16.787  0.00  0.00    +0.000 A 
BRANCH  13  16
ATOM     16  N   UNL     1       7.413   4.967  13.039  0.00  0.00    +0.000 N 
ATOM     17  O   UNL     1       8.196   5.925  12.928  0.00  0.00    +0.000 OA
ATOM     18  O   UNL     1       7.019   4.272  12.091  0.00  0.00    +0.000 OA
ENDBRANCH  13  16
ENDBRANCH   8  10
ENDBRANCH   1   8
BRANCH   1  19
ATOM     19  C   UNL     1       3.577   5.436  19.234  0.00  0.00    +0.000 C 
BRANCH  19  21
ATOM     20  O   UNL     1       4.011   6.821  17.293  0.00  0.00    +0.000 OA
ATOM     21  C   UNL     1       3.377   6.653  18.340  0.00  0.00    +0.000 C 
BRANCH  21  22
ATOM     22  C   UNL     1       2.371   7.699  18.738  0.00  0.00    +0.000 A 
ATOM     23  C   UNL     1       1.882   8.671  17.852  0.00  0.00    +0.000 A 
ATOM     24  C   UNL     1       1.000   9.669  18.302  0.00  0.00    +0.000 A 
ATOM     25  C   UNL     1       0.602   9.694  19.636  0.00  0.00    +0.000 A 
ATOM     26  C   UNL     1       1.056   8.712  20.504  0.00  0.00    +0.000 A 
ATOM     27  F   UNL     1       0.666   8.732  21.785  0.00  0.00    +0.000 F 
ATOM     28  C   UNL     1       1.924   7.717  20.069  0.00  0.00    +0.000 A 
ENDBRANCH  21  22
ENDBRANCH  19  21
ENDBRANCH   1  19
TORSDOF 7
ENDMDL
MODEL 8
REMARK VINA RESULT:      -8.4      3.037      6.624
REMARK  Name = 
REMARK  7 active torsions:
REMARK  status: ('A' for Active; 'I' for Inactive)
REMARK    1  A    between atoms: C_2  and  C_3
REMARK    2  A    between atoms: C_2  and  C_21
REMARK    3  A    between atoms: C_3  and  C_4
REMARK    4  A    between atoms: C_4  and  N_5
REMARK    5  A    between atoms: C_4  and  C_15
REMARK    6  A    between atoms: N_5  and  C_6
REMARK    7  A    between atoms: C_9  and  N_10
REMARK                            x       y       z     vdW  Elec       q    Type
REMARK                         _______ _______ _______ _____ _____    ______ ____
ROOT
ATOM      1  C   UNL     1       2.992   5.158  18.948  0.00  0.00    +0.000 C 
ENDROOT
BRANCH   1   2
ATOM      2  C   UNL     1       1.552   4.605  19.225  0.00  0.00    +0.000 C 
ATOM      3  C   UNL     1       1.305   3.203  18.630  0.00  0.00    +0.000 C 
ATOM      4  C   UNL     1       2.058   2.093  19.367  0.00  0.00    +0.000 C 
ATOM      5  C   UNL     1       1.811   2.114  20.874  0.00  0.00    +0.000 C 
ATOM      6  C   UNL     1       2.008   3.500  21.478  0.00  0.00    +0.000 C 
ATOM      7  C   UNL     1       1.192   4.545  20.726  0.00  0.00    +0.000 C 
ENDBRANCH   1   2
BRANCH   1   8
ATOM      8  N   UNL     1       3.165   6.474  19.600  0.00  0.00    +0.000 N 
ATOM      9  H   UNL     1       4.144   6.760  19.622  0.00  0.00    +0.000 HD
BRANCH   8  10
ATOM     10  C   UNL     1       2.284   7.538  19.399  0.00  0.00    +0.000 A 
ATOM     11  C   UNL     1       1.564   8.136  20.440  0.00  0.00    +0.000 A 
ATOM     12  C   UNL     1       0.797   9.293  20.234  0.00  0.00    +0.000 A 
ATOM     13  C   UNL     1       0.767   9.890  18.972  0.00  0.00    +0.000 A 
ATOM     14  C   UNL     1       1.452   9.304  17.905  0.00  0.00    +0.000 A 
ATOM     15  C   UNL     1       2.197   8.135  18.127  0.00  0.00    +0.000 A 
BRANCH  13  16
ATOM     16  N   UNL     1       0.052  11.158  18.779  0.00  0.00    +0.000 N 
ATOM     17  O   UNL     1      -0.988  11.136  18.102  0.00  0.00    +0.000 OA
ATOM     18  O   UNL     1       0.519  12.175  19.313  0.00  0.00    +0.000 OA
ENDBRANCH  13  16
ENDBRANCH   8  10
ENDBRANCH   1   8
BRANCH   1  19
ATOM     19  C   UNL     1       3.374   5.239  17.443  0.00  0.00    +0.000 C 
BRANCH  19  21
ATOM     20  O   UNL     1       5.071   3.917  16.327  0.00  0.00    +0.000 OA
ATOM     21  C   UNL     1       4.801   4.880  17.052  0.00  0.00    +0.000 C 
BRANCH  21  22
ATOM     22  C   UNL     1       5.937   5.725  17.564  0.00  0.00    +0.000 A 
ATOM     23  C   UNL     1       6.236   6.999  17.057  0.00  0.00    +0.000 A 
ATOM     24  C   UNL     1       7.357   7.709  17.524  0.00  0.00    +0.000 A 
ATOM     25  C   UNL     1       8.176   7.148  18.500  0.00  0.00    +0.000 A 
ATOM     26  C   UNL     1       7.861   5.905  19.027  0.00  0.00    +0.000 A 
ATOM     27  F   UNL     1       8.646   5.371  19.972  0.00  0.00    +0.000 F 
ATOM     28  C   UNL     1       6.752   5.196  18.577  0.00  0.00    +0.000 A 
ENDBRANCH  21  22
ENDBRANCH  19  21
ENDBRANCH   1  19
TORSDOF 7
ENDMDL
MODEL 9
REMARK VINA RESULT:      -8.4      3.606      7.646
REMARK  Name = 
REMARK  7 active torsions:
REMARK  status: ('A' for Active; 'I' for Inactive)
REMARK    1  A    between atoms: C_2  and  C_3
REMARK    2  A    between atoms: C_2  and  C_21
REMARK    3  A    between atoms: C_3  and  C_4
REMARK    4  A    between atoms: C_4  and  N_5
REMARK    5  A    between atoms: C_4  and  C_15
REMARK    6  A    between atoms: N_5  and  C_6
REMARK    7  A    between atoms: C_9  and  N_10
REMARK                            x       y       z     vdW  Elec       q    Type
REMARK                         _______ _______ _______ _____ _____    ______ ____
ROOT
ATOM      1  C   UNL     1       3.702   4.995  18.132  0.00  0.00    +0.000 C 
ENDROOT
BRANCH   1   2
ATOM      2  C   UNL     1       2.727   3.993  17.427  0.00  0.00    +0.000 C 
ATOM      3  C   UNL     1       3.192   2.523  17.499  0.00  0.00    +0.000 C 
ATOM      4  C   UNL     1       3.071   1.920  18.901  0.00  0.00    +0.000 C 
ATOM      5  C   UNL     1       1.677   2.097  19.499  0.00  0.00    +0.000 C 
ATOM      6  C   UNL     1       1.178   3.534  19.401  0.00  0.00    +0.000 C 
ATOM      7  C   UNL     1       1.282   4.051  17.970  0.00  0.00    +0.000 C 
ENDBRANCH   1   2
BRANCH   1   8
ATOM      8  N   UNL     1       3.404   6.379  17.708  0.00  0.00    +0.000 N 
ATOM      9  H   UNL     1       3.254   6.443  16.702  0.00  0.00    +0.000 HD
BRANCH   8  10
ATOM     10  C   UNL     1       2.581   7.234  18.445  0.00  0.00    +0.000 A 
ATOM     11  C   UNL     1       2.324   7.053  19.809  0.00  0.00    +0.000 A 
ATOM     12  C   UNL     1       1.613   8.004  20.556  0.00  0.00    +0.000 A 
ATOM     13  C   UNL     1       1.172   9.179  19.943  0.00  0.00    +0.000 A 
ATOM     14  C   UNL     1       1.388   9.379  18.578  0.00  0.00    +0.000 A 
ATOM     15  C   UNL     1       2.084   8.406  17.844  0.00  0.00    +0.000 A 
BRANCH  13  16
ATOM     16  N   UNL     1       0.521  10.222  20.746  0.00  0.00    +0.000 N 
ATOM     17  O   UNL     1       0.926  10.395  21.906  0.00  0.00    +0.000 OA
ATOM     18  O   UNL     1      -0.388  10.879  20.216  0.00  0.00    +0.000 OA
ENDBRANCH  13  16
ENDBRANCH   8  10
ENDBRANCH   1   8
BRANCH   1  19
ATOM     19  C   UNL     1       5.211   4.675  17.934  0.00  0.00    +0.000 C 
BRANCH  19  21
ATOM     20  O   UNL     1       6.500   6.619  17.275  0.00  0.00    +0.000 OA
ATOM     21  C   UNL     1       5.997   5.537  16.955  0.00  0.00    +0.000 C 
BRANCH  21  22
ATOM     22  C   UNL     1       6.176   5.062  15.539  0.00  0.00    +0.000 A 
ATOM     23  C   UNL     1       5.323   4.131  14.927  0.00  0.00    +0.000 A 
ATOM     24  C   UNL     1       5.586   3.668  13.625  0.00  0.00    +0.000 A 
ATOM     25  C   UNL     1       6.698   4.139  12.932  0.00  0.00    +0.000 A 
ATOM     26  C   UNL     1       7.521   5.087  13.522  0.00  0.00    +0.000 A 
ATOM     27  F   UNL     1       8.586   5.545  12.852  0.00  0.00    +0.000 F 
ATOM     28  C   UNL     1       7.268   5.555  14.807  0.00  0.00    +0.000 A 
ENDBRANCH  21  22
ENDBRANCH  19  21
ENDBRANCH   1  19
TORSDOF 7
ENDMDL
