MODEL 1
REMARK VINA RESULT:      -8.1      0.000      0.000
REMARK  Name = 
REMARK  8 active torsions:
REMARK  status: ('A' for Active; 'I' for Inactive)
REMARK    1  A    between atoms: C_1  and  C_2
REMARK    2  A    between atoms: C_5  and  C_6
REMARK    3  A    between atoms: C_7  and  C_8
REMARK    4  A    between atoms: C_8  and  C_9
REMARK    5  A    between atoms: C_9  and  C_10
REMARK    6  A    between atoms: C_15  and  O_16
REMARK    7  A    between atoms: O_16  and  C_17
REMARK    8  A    between atoms: C_20  and  C_21
REMARK                            x       y       z     vdW  Elec       q    Type
REMARK                         _______ _______ _______ _____ _____    ______ ____
ROOT
ATOM      1  C   UNL     1       4.067   3.663  19.275  0.00  0.00    +0.000 C 
ATOM      2  O   UNL     1       3.570   2.577  19.572  0.00  0.00    +0.000 OA
ATOM      3  N   UNL     1       3.567   4.863  19.767  0.00  0.00    +0.000 N 
ATOM      4  C   UNL     1       2.502   4.839  20.769  0.00  0.00    +0.000 C 
ATOM      5  C   UNL     1       1.247   5.501  20.216  0.00  0.00    +0.000 C 
ATOM      6  C   UNL     1       1.540   6.936  19.757  0.00  0.00    +0.000 C 
ATOM      7  C   UNL     1       2.708   6.939  18.760  0.00  0.00    +0.000 C 
ATOM      8  C   UNL     1       3.935   6.201  19.304  0.00  0.00    +0.000 C 
ENDROOT
BRANCH   1   9
ATOM      9  C   UNL     1       5.290   3.740  18.374  0.00  0.00    +0.000 C 
BRANCH   9  10
ATOM     10  C   UNL     1       4.909   4.065  16.928  0.00  0.00    +0.000 C 
BRANCH  10  17
ATOM     11  C   UNL     1       5.782   3.665  13.799  0.00  0.00    +0.000 C 
ATOM     12  C   UNL     1       6.383   4.563  14.814  0.00  0.00    +0.000 A 
ATOM     13  N   UNL     1       7.416   5.343  14.479  0.00  0.00    +0.000 NA
ATOM     14  O   UNL     1       7.737   6.050  15.618  0.00  0.00    +0.000 OA
ATOM     15  C   UNL     1       6.904   5.692  16.629  0.00  0.00    +0.000 A 
ATOM     16  C   UNL     1       7.132   6.373  17.918  0.00  0.00    +0.000 C 
ATOM     17  C   UNL     1       6.012   4.740  16.178  0.00  0.00    +0.000 A 
ENDBRANCH  10  17
ENDBRANCH   9  10
ENDBRANCH   1   9
BRANCH   6  18
ATOM     18  O   UNL     1       1.906   7.793  20.852  0.00  0.00    +0.000 OA
BRANCH  18  19
ATOM     19  C   UNL     1       1.043   8.777  21.112  0.00  0.00    +0.000 A 
ATOM     20  N   UNL     1       0.458   9.473  20.169  0.00  0.00    +0.000 NA
ATOM     21  C   UNL     1      -0.361  10.438  20.728  0.00  0.00    +0.000 A 
ATOM     22  C   UNL     1      -1.146  11.363  19.998  0.00  0.00    +0.000 A 
ATOM     23  C   UNL     1      -1.201  11.375  18.498  0.00  0.00    +0.000 C 
ATOM     24  C   UNL     1      -1.896  12.313  20.723  0.00  0.00    +0.000 A 
ATOM     25  C   UNL     1      -1.877  12.341  22.115  0.00  0.00    +0.000 A 
ATOM     26  C   UNL     1      -1.124  11.418  22.843  0.00  0.00    +0.000 A 
ATOM     27  C   UNL     1      -0.373  10.470  22.124  0.00  0.00    +0.000 A 
ATOM     28  S   UNL     1       0.635   9.202  22.716  0.00  0.00    +0.000 S 
ENDBRANCH  18  19
ENDBRANCH   6  18
TORSDOF 5
ENDMDL
MODEL 2
REMARK VINA RESULT:      -7.9      3.153     10.269
REMARK  Name = 
REMARK  8 active torsions:
REMARK  status: ('A' for Active; 'I' for Inactive)
REMARK    1  A    between atoms: C_1  and  C_2
REMARK    2  A    between atoms: C_5  and  C_6
REMARK    3  A    between atoms: C_7  and  C_8
REMARK    4  A    between atoms: C_8  and  C_9
REMARK    5  A    between atoms: C_9  and  C_10
REMARK    6  A    between atoms: C_15  and  O_16
REMARK    7  A    between atoms: O_16  and  C_17
REMARK    8  A    between atoms: C_20  and  C_21
REMARK                            x       y       z     vdW  Elec       q    Type
REMARK                         _______ _______ _______ _____ _____    ______ ____
ROOT
ATOM      1  C   UNL     1      -0.955  11.586  22.089  0.00  0.00    +0.000 C 
ATOM      2  O   UNL     1      -0.767  12.067  23.206  0.00  0.00    +0.000 OA
ATOM      3  N   UNL     1      -0.502  10.317  21.746  0.00  0.00    +0.000 N 
ATOM      4  C   UNL     1       0.104   9.470  22.772  0.00  0.00    +0.000 C 
ATOM      5  C   UNL     1       1.556   9.178  22.421  0.00  0.00    +0.000 C 
ATOM      6  C   UNL     1       1.666   8.529  21.034  0.00  0.00    +0.000 C 
ATOM      7  C   UNL     1       0.961   9.405  19.989  0.00  0.00    +0.000 C 
ATOM      8  C   UNL     1      -0.473   9.752  20.396  0.00  0.00    +0.000 C 
ENDROOT
BRANCH   1   9
ATOM      9  C   UNL     1      -1.735  12.352  21.032  0.00  0.00    +0.000 C 
BRANCH   9  10
ATOM     10  C   UNL     1      -2.618  13.437  21.653  0.00  0.00    +0.000 C 
BRANCH  10  17
ATOM     11  C   UNL     1      -5.061  12.681  19.611  0.00  0.00    +0.000 C 
ATOM     12  C   UNL     1      -5.045  12.612  21.091  0.00  0.00    +0.000 A 
ATOM     13  N   UNL     1      -6.134  12.193  21.747  0.00  0.00    +0.000 NA
ATOM     14  O   UNL     1      -5.806  12.236  23.084  0.00  0.00    +0.000 OA
ATOM     15  C   UNL     1      -4.532  12.684  23.230  0.00  0.00    +0.000 A 
ATOM     16  C   UNL     1      -4.043  12.783  24.618  0.00  0.00    +0.000 C 
ATOM     17  C   UNL     1      -3.989  12.944  21.987  0.00  0.00    +0.000 A 
ENDBRANCH  10  17
ENDBRANCH   9  10
ENDBRANCH   1   9
BRANCH   6  18
ATOM     18  O   UNL     1       1.053   7.230  20.992  0.00  0.00    +0.000 OA
BRANCH  18  19
ATOM     19  C   UNL     1       1.705   6.321  20.265  0.00  0.00    +0.000 A 
ATOM     20  N   UNL     1       2.543   6.646  19.312  0.00  0.00    +0.000 NA
ATOM     21  C   UNL     1       3.049   5.506  18.714  0.00  0.00    +0.000 A 
ATOM     22  C   UNL     1       3.984   5.489  17.650  0.00  0.00    +0.000 A 
ATOM     23  C   UNL     1       4.568   6.741  17.064  0.00  0.00    +0.000 C 
ATOM     24  C   UNL     1       4.368   4.238  17.124  0.00  0.00    +0.000 A 
ATOM     25  C   UNL     1       3.853   3.049  17.635  0.00  0.00    +0.000 A 
ATOM     26  C   UNL     1       2.949   3.055  18.698  0.00  0.00    +0.000 A 
ATOM     27  C   UNL     1       2.562   4.301  19.225  0.00  0.00    +0.000 A 
ATOM     28  S   UNL     1       1.489   4.647  20.530  0.00  0.00    +0.000 S 
ENDBRANCH  18  19
ENDBRANCH   6  18
TORSDOF 5
ENDMDL
MODEL 3
REMARK VINA RESULT:      -7.8      3.421     10.493
REMARK  Name = 
REMARK  8 active torsions:
REMARK  status: ('A' for Active; 'I' for Inactive)
REMARK    1  A    between atoms: C_1  and  C_2
REMARK    2  A    between atoms: C_5  and  C_6
REMARK    3  A    between atoms: C_7  and  C_8
REMARK    4  A    between atoms: C_8  and  C_9
REMARK    5  A    between atoms: C_9  and  C_10
REMARK    6  A    between atoms: C_15  and  O_16
REMARK    7  A    between atoms: O_16  and  C_17
REMARK    8  A    between atoms: C_20  and  C_21
REMARK                            x       y       z     vdW  Elec       q    Type
REMARK                         _______ _______ _______ _____ _____    ______ ____
ROOT
ATOM      1  C   UNL     1      -1.147  11.833  22.199  0.00  0.00    +0.000 C 
ATOM      2  O   UNL     1      -1.054  12.201  23.369  0.00  0.00    +0.000 OA
ATOM      3  N   UNL     1      -0.702  10.584  21.780  0.00  0.00    +0.000 N 
ATOM      4  C   UNL     1      -0.227   9.622  22.773  0.00  0.00    +0.000 C 
ATOM      5  C   UNL     1       1.242   9.305  22.534  0.00  0.00    +0.000 C 
ATOM      6  C   UNL     1       1.467   8.782  21.109  0.00  0.00    +0.000 C 
ATOM      7  C   UNL     1       0.895   9.778  20.090  0.00  0.00    +0.000 C 
ATOM      8  C   UNL     1      -0.560  10.145  20.391  0.00  0.00    +0.000 C 
ENDROOT
BRANCH   1   9
ATOM      9  C   UNL     1      -1.795  12.724  21.150  0.00  0.00    +0.000 C 
BRANCH   9  10
ATOM     10  C   UNL     1      -2.787  13.708  21.777  0.00  0.00    +0.000 C 
BRANCH  10  17
ATOM     11  C   UNL     1      -5.121  12.814  19.664  0.00  0.00    +0.000 C 
ATOM     12  C   UNL     1      -5.122  12.693  21.141  0.00  0.00    +0.000 A 
ATOM     13  N   UNL     1      -6.179  12.155  21.761  0.00  0.00    +0.000 NA
ATOM     14  O   UNL     1      -5.878  12.179  23.105  0.00  0.00    +0.000 OA
ATOM     15  C   UNL     1      -4.650  12.731  23.290  0.00  0.00    +0.000 A 
ATOM     16  C   UNL     1      -4.193  12.822  24.690  0.00  0.00    +0.000 C 
ATOM     17  C   UNL     1      -4.113  13.084  22.068  0.00  0.00    +0.000 A 
ENDBRANCH  10  17
ENDBRANCH   9  10
ENDBRANCH   1   9
BRANCH   6  18
ATOM     18  O   UNL     1       0.820   7.518  20.885  0.00  0.00    +0.000 OA
BRANCH  18  19
ATOM     19  C   UNL     1       1.625   6.534  20.480  0.00  0.00    +0.000 A 
ATOM     20  N   UNL     1       1.578   5.327  20.988  0.00  0.00    +0.000 NA
ATOM     21  C   UNL     1       2.540   4.525  20.399  0.00  0.00    +0.000 A 
ATOM     22  C   UNL     1       2.765   3.162  20.708  0.00  0.00    +0.000 A 
ATOM     23  C   UNL     1       1.939   2.411  21.711  0.00  0.00    +0.000 C 
ATOM     24  C   UNL     1       3.817   2.497  20.045  0.00  0.00    +0.000 A 
ATOM     25  C   UNL     1       4.610   3.152  19.106  0.00  0.00    +0.000 A 
ATOM     26  C   UNL     1       4.380   4.489  18.779  0.00  0.00    +0.000 A 
ATOM     27  C   UNL     1       3.333   5.157  19.439  0.00  0.00    +0.000 A 
ATOM     28  S   UNL     1       2.789   6.784  19.255  0.00  0.00    +0.000 S 
ENDBRANCH  18  19
ENDBRANCH   6  18
TORSDOF 5
ENDMDL
MODEL 4
REMARK VINA RESULT:      -7.8      2.824      9.181
REMARK  Name = 
REMARK  8 active torsions:
REMARK  status: ('A' for Active; 'I' for Inactive)
REMARK    1  A    between atoms: C_1  and  C_2
REMARK    2  A    between atoms: C_5  and  C_6
REMARK    3  A    between atoms: C_7  and  C_8
REMARK    4  A    between atoms: C_8  and  C_9
REMARK    5  A    between atoms: C_9  and  C_10
REMARK    6  A    between atoms: C_15  and  O_16
REMARK    7  A    between atoms: O_16  and  C_17
REMARK    8  A    between atoms: C_20  and  C_21
REMARK                            x       y       z     vdW  Elec       q    Type
REMARK                         _______ _______ _______ _____ _____    ______ ____
ROOT
ATOM      1  C   UNL     1       2.039   4.926  20.715  0.00  0.00    +0.000 C 
ATOM      2  O   UNL     1       2.114   4.302  21.774  0.00  0.00    +0.000 OA
ATOM      3  N   UNL     1       2.757   4.552  19.585  0.00  0.00    +0.000 N 
ATOM      4  C   UNL     1       3.527   3.309  19.604  0.00  0.00    +0.000 C 
ATOM      5  C   UNL     1       5.010   3.608  19.430  0.00  0.00    +0.000 C 
ATOM      6  C   UNL     1       5.263   4.395  18.136  0.00  0.00    +0.000 C 
ATOM      7  C   UNL     1       4.390   5.657  18.111  0.00  0.00    +0.000 C 
ATOM      8  C   UNL     1       2.912   5.345  18.366  0.00  0.00    +0.000 C 
ENDROOT
BRANCH   1   9
ATOM      9  C   UNL     1       1.117   6.128  20.583  0.00  0.00    +0.000 C 
BRANCH   9  10
ATOM     10  C   UNL     1       1.814   7.427  20.995  0.00  0.00    +0.000 C 
BRANCH  10  17
ATOM     11  C   UNL     1      -0.295   9.278  22.678  0.00  0.00    +0.000 C 
ATOM     12  C   UNL     1       0.167   9.450  21.280  0.00  0.00    +0.000 A 
ATOM     13  N   UNL     1      -0.292  10.473  20.551  0.00  0.00    +0.000 NA
ATOM     14  O   UNL     1       0.318  10.362  19.321  0.00  0.00    +0.000 OA
ATOM     15  C   UNL     1       1.134   9.275  19.311  0.00  0.00    +0.000 A 
ATOM     16  C   UNL     1       1.857   9.029  18.049  0.00  0.00    +0.000 C 
ATOM     17  C   UNL     1       1.081   8.646  20.539  0.00  0.00    +0.000 A 
ENDBRANCH  10  17
ENDBRANCH   9  10
ENDBRANCH   1   9
BRANCH   6  18
ATOM     18  O   UNL     1       4.945   3.628  16.963  0.00  0.00    +0.000 OA
BRANCH  18  19
ATOM     19  C   UNL     1       5.598   3.989  15.857  0.00  0.00    +0.000 A 
ATOM     20  N   UNL     1       5.377   3.434  14.691  0.00  0.00    +0.000 NA
ATOM     21  C   UNL     1       6.211   3.985  13.735  0.00  0.00    +0.000 A 
ATOM     22  C   UNL     1       6.236   3.621  12.366  0.00  0.00    +0.000 A 
ATOM     23  C   UNL     1       5.311   2.592  11.784  0.00  0.00    +0.000 C 
ATOM     24  C   UNL     1       7.179   4.252  11.529  0.00  0.00    +0.000 A 
ATOM     25  C   UNL     1       8.058   5.213  12.024  0.00  0.00    +0.000 A 
ATOM     26  C   UNL     1       8.025   5.595  13.367  0.00  0.00    +0.000 A 
ATOM     27  C   UNL     1       7.086   4.966  14.206  0.00  0.00    +0.000 A 
ATOM     28  S   UNL     1       6.784   5.218  15.885  0.00  0.00    +0.000 S 
ENDBRANCH  18  19
ENDBRANCH   6  18
TORSDOF 5
ENDMDL
MODEL 5
REMARK VINA RESULT:      -7.7      2.466      4.403
REMARK  Name = 
REMARK  8 active torsions:
REMARK  status: ('A' for Active; 'I' for Inactive)
REMARK    1  A    between atoms: C_1  and  C_2
REMARK    2  A    between atoms: C_5  and  C_6
REMARK    3  A    between atoms: C_7  and  C_8
REMARK    4  A    between atoms: C_8  and  C_9
REMARK    5  A    between atoms: C_9  and  C_10
REMARK    6  A    between atoms: C_15  and  O_16
REMARK    7  A    between atoms: O_16  and  C_17
REMARK    8  A    between atoms: C_20  and  C_21
REMARK                            x       y       z     vdW  Elec       q    Type
REMARK                         _______ _______ _______ _____ _____    ______ ____
ROOT
ATOM      1  C   UNL     1       1.911   7.092  19.994  0.00  0.00    +0.000 C 
ATOM      2  O   UNL     1       1.817   6.082  20.690  0.00  0.00    +0.000 OA
ATOM      3  N   UNL     1       1.553   8.350  20.467  0.00  0.00    +0.000 N 
ATOM      4  C   UNL     1       1.175   8.507  21.871  0.00  0.00    +0.000 C 
ATOM      5  C   UNL     1      -0.271   8.970  21.976  0.00  0.00    +0.000 C 
ATOM      6  C   UNL     1      -0.489  10.275  21.197  0.00  0.00    +0.000 C 
ATOM      7  C   UNL     1      -0.018  10.102  19.745  0.00  0.00    +0.000 C 
ATOM      8  C   UNL     1       1.413   9.562  19.660  0.00  0.00    +0.000 C 
ENDROOT
BRANCH   1   9
ATOM      9  C   UNL     1       2.465   7.017  18.580  0.00  0.00    +0.000 C 
BRANCH   9  10
ATOM     10  C   UNL     1       2.615   5.569  18.106  0.00  0.00    +0.000 C 
BRANCH  10  17
ATOM     11  C   UNL     1       5.606   6.512  17.170  0.00  0.00    +0.000 C 
ATOM     12  C   UNL     1       5.234   5.394  18.069  0.00  0.00    +0.000 A 
ATOM     13  N   UNL     1       6.190   4.630  18.608  0.00  0.00    +0.000 NA
ATOM     14  O   UNL     1       5.535   3.700  19.384  0.00  0.00    +0.000 OA
ATOM     15  C   UNL     1       4.194   3.902  19.307  0.00  0.00    +0.000 A 
ATOM     16  C   UNL     1       3.361   2.973  20.094  0.00  0.00    +0.000 C 
ATOM     17  C   UNL     1       3.935   4.974  18.477  0.00  0.00    +0.000 A 
ENDBRANCH  10  17
ENDBRANCH   9  10
ENDBRANCH   1   9
BRANCH   6  18
ATOM     18  O   UNL     1       0.248  11.373  21.760  0.00  0.00    +0.000 OA
BRANCH  18  19
ATOM     19  C   UNL     1      -0.500  12.378  22.220  0.00  0.00    +0.000 A 
ATOM     20  N   UNL     1      -1.604  12.184  22.899  0.00  0.00    +0.000 NA
ATOM     21  C   UNL     1      -2.182  13.399  23.224  0.00  0.00    +0.000 A 
ATOM     22  C   UNL     1      -3.383  13.560  23.958  0.00  0.00    +0.000 A 
ATOM     23  C   UNL     1      -4.160  12.399  24.506  0.00  0.00    +0.000 C 
ATOM     24  C   UNL     1      -3.860  14.871  24.169  0.00  0.00    +0.000 A 
ATOM     25  C   UNL     1      -3.172  15.979  23.680  0.00  0.00    +0.000 A 
ATOM     26  C   UNL     1      -1.976  15.830  22.975  0.00  0.00    +0.000 A 
ATOM     27  C   UNL     1      -1.498  14.524  22.762  0.00  0.00    +0.000 A 
ATOM     28  S   UNL     1      -0.064  14.008  21.953  0.00  0.00    +0.000 S 
ENDBRANCH  18  19
ENDBRANCH   6  18
TORSDOF 5
ENDMDL
MODEL 6
REMARK VINA RESULT:      -7.7      0.459      1.549
REMARK  Name = 
REMARK  8 active torsions:
REMARK  status: ('A' for Active; 'I' for Inactive)
REMARK    1  A    between atoms: C_1  and  C_2
REMARK    2  A    between atoms: C_5  and  C_6
REMARK    3  A    between atoms: C_7  and  C_8
REMARK    4  A    between atoms: C_8  and  C_9
REMARK    5  A    between atoms: C_9  and  C_10
REMARK    6  A    between atoms: C_15  and  O_16
REMARK    7  A    between atoms: O_16  and  C_17
REMARK    8  A    between atoms: C_20  and  C_21
REMARK                            x       y       z     vdW  Elec       q    Type
REMARK                         _______ _______ _______ _____ _____    ______ ____
ROOT
ATOM      1  C   UNL     1       4.083   3.643  19.162  0.00  0.00    +0.000 C 
ATOM      2  O   UNL     1       3.646   2.547  19.508  0.00  0.00    +0.000 OA
ATOM      3  N   UNL     1       3.579   4.834  19.673  0.00  0.00    +0.000 N 
ATOM      4  C   UNL     1       2.590   4.791  20.749  0.00  0.00    +0.000 C 
ATOM      5  C   UNL     1       1.277   5.402  20.280  0.00  0.00    +0.000 C 
ATOM      6  C   UNL     1       1.487   6.838  19.781  0.00  0.00    +0.000 C 
ATOM      7  C   UNL     1       2.580   6.864  18.702  0.00  0.00    +0.000 C 
ATOM      8  C   UNL     1       3.867   6.176  19.165  0.00  0.00    +0.000 C 
ENDROOT
BRANCH   1   9
ATOM      9  C   UNL     1       5.235   3.747  18.173  0.00  0.00    +0.000 C 
BRANCH   9  10
ATOM     10  C   UNL     1       4.740   4.038  16.755  0.00  0.00    +0.000 C 
BRANCH  10  17
ATOM     11  C   UNL     1       7.231   5.993  17.580  0.00  0.00    +0.000 C 
ATOM     12  C   UNL     1       6.894   5.448  16.244  0.00  0.00    +0.000 A 
ATOM     13  N   UNL     1       7.663   5.749  15.192  0.00  0.00    +0.000 NA
ATOM     14  O   UNL     1       7.100   5.098  14.116  0.00  0.00    +0.000 OA
ATOM     15  C   UNL     1       5.996   4.416  14.520  0.00  0.00    +0.000 A 
ATOM     16  C   UNL     1       5.285   3.668  13.466  0.00  0.00    +0.000 C 
ATOM     17  C   UNL     1       5.809   4.601  15.875  0.00  0.00    +0.000 A 
ENDBRANCH  10  17
ENDBRANCH   9  10
ENDBRANCH   1   9
BRANCH   6  18
ATOM     18  O   UNL     1       1.901   7.724  20.834  0.00  0.00    +0.000 OA
BRANCH  18  19
ATOM     19  C   UNL     1       1.066   8.734  21.085  0.00  0.00    +0.000 A 
ATOM     20  N   UNL     1       0.448   9.393  20.136  0.00  0.00    +0.000 NA
ATOM     21  C   UNL     1      -0.330  10.398  20.682  0.00  0.00    +0.000 A 
ATOM     22  C   UNL     1      -1.134  11.300  19.944  0.00  0.00    +0.000 A 
ATOM     23  C   UNL     1      -1.257  11.239  18.449  0.00  0.00    +0.000 C 
ATOM     24  C   UNL     1      -1.836  12.297  20.654  0.00  0.00    +0.000 A 
ATOM     25  C   UNL     1      -1.752  12.392  22.041  0.00  0.00    +0.000 A 
ATOM     26  C   UNL     1      -0.980  11.493  22.778  0.00  0.00    +0.000 A 
ATOM     27  C   UNL     1      -0.277  10.498  22.074  0.00  0.00    +0.000 A 
ATOM     28  S   UNL     1       0.738   9.244  22.682  0.00  0.00    +0.000 S 
ENDBRANCH  18  19
ENDBRANCH   6  18
TORSDOF 5
ENDMDL
MODEL 7
REMARK VINA RESULT:      -7.7      3.216      4.787
REMARK  Name = 
REMARK  8 active torsions:
REMARK  status: ('A' for Active; 'I' for Inactive)
REMARK    1  A    between atoms: C_1  and  C_2
REMARK    2  A    between atoms: C_5  and  C_6
REMARK    3  A    between atoms: C_7  and  C_8
REMARK    4  A    between atoms: C_8  and  C_9
REMARK    5  A    between atoms: C_9  and  C_10
REMARK    6  A    between atoms: C_15  and  O_16
REMARK    7  A    between atoms: O_16  and  C_17
REMARK    8  A    between atoms: C_20  and  C_21
REMARK                            x       y       z     vdW  Elec       q    Type
REMARK                         _______ _______ _______ _____ _____    ______ ____
ROOT
ATOM      1  C   UNL     1       1.971   6.638  19.901  0.00  0.00    +0.000 C 
ATOM      2  O   UNL     1       1.674   5.730  20.677  0.00  0.00    +0.000 OA
ATOM      3  N   UNL     1       1.788   7.978  20.228  0.00  0.00    +0.000 N 
ATOM      4  C   UNL     1       1.351   8.333  21.577  0.00  0.00    +0.000 C 
ATOM      5  C   UNL     1      -0.007   9.018  21.524  0.00  0.00    +0.000 C 
ATOM      6  C   UNL     1       0.035  10.254  20.614  0.00  0.00    +0.000 C 
ATOM      7  C   UNL     1       0.564   9.865  19.227  0.00  0.00    +0.000 C 
ATOM      8  C   UNL     1       1.894   9.108  19.305  0.00  0.00    +0.000 C 
ENDROOT
BRANCH   1   9
ATOM      9  C   UNL     1       2.596   6.335  18.548  0.00  0.00    +0.000 C 
BRANCH   9  10
ATOM     10  C   UNL     1       1.824   5.246  17.798  0.00  0.00    +0.000 C 
BRANCH  10  17
ATOM     11  C   UNL     1       0.751   2.577  19.358  0.00  0.00    +0.000 C 
ATOM     12  C   UNL     1       1.998   2.746  18.576  0.00  0.00    +0.000 A 
ATOM     13  N   UNL     1       2.841   1.716  18.443  0.00  0.00    +0.000 NA
ATOM     14  O   UNL     1       3.883   2.181  17.671  0.00  0.00    +0.000 OA
ATOM     15  C   UNL     1       3.668   3.483  17.346  0.00  0.00    +0.000 A 
ATOM     16  C   UNL     1       4.709   4.116  16.516  0.00  0.00    +0.000 C 
ATOM     17  C   UNL     1       2.475   3.905  17.898  0.00  0.00    +0.000 A 
ENDBRANCH  10  17
ENDBRANCH   9  10
ENDBRANCH   1   9
BRANCH   6  18
ATOM     18  O   UNL     1       0.899  11.280  21.132  0.00  0.00    +0.000 OA
BRANCH  18  19
ATOM     19  C   UNL     1       0.804  12.461  20.518  0.00  0.00    +0.000 A 
ATOM     20  N   UNL     1       1.839  13.074  19.998  0.00  0.00    +0.000 NA
ATOM     21  C   UNL     1       1.451  14.285  19.453  0.00  0.00    +0.000 A 
ATOM     22  C   UNL     1       2.315  15.202  18.806  0.00  0.00    +0.000 A 
ATOM     23  C   UNL     1       3.779  14.935  18.607  0.00  0.00    +0.000 C 
ATOM     24  C   UNL     1       1.766  16.415  18.341  0.00  0.00    +0.000 A 
ATOM     25  C   UNL     1       0.413  16.706  18.502  0.00  0.00    +0.000 A 
ATOM     26  C   UNL     1      -0.450  15.798  19.118  0.00  0.00    +0.000 A 
ATOM     27  C   UNL     1       0.094  14.587  19.585  0.00  0.00    +0.000 A 
ATOM     28  S   UNL     1      -0.695  13.267  20.366  0.00  0.00    +0.000 S 
ENDBRANCH  18  19
ENDBRANCH   6  18
TORSDOF 5
ENDMDL
MODEL 8
REMARK VINA RESULT:      -7.7      3.215      4.050
REMARK  Name = 
REMARK  8 active torsions:
REMARK  status: ('A' for Active; 'I' for Inactive)
REMARK    1  A    between atoms: C_1  and  C_2
REMARK    2  A    between atoms: C_5  and  C_6
REMARK    3  A    between atoms: C_7  and  C_8
REMARK    4  A    between atoms: C_8  and  C_9
REMARK    5  A    between atoms: C_9  and  C_10
REMARK    6  A    between atoms: C_15  and  O_16
REMARK    7  A    between atoms: O_16  and  C_17
REMARK    8  A    between atoms: C_20  and  C_21
REMARK                            x       y       z     vdW  Elec       q    Type
REMARK                         _______ _______ _______ _____ _____    ______ ____
ROOT
ATOM      1  C   UNL     1       2.575   6.394  18.720  0.00  0.00    +0.000 C 
ATOM      2  O   UNL     1       2.190   5.441  19.395  0.00  0.00    +0.000 OA
ATOM      3  N   UNL     1       2.349   7.711  19.104  0.00  0.00    +0.000 N 
ATOM      4  C   UNL     1       1.753   7.983  20.411  0.00  0.00    +0.000 C 
ATOM      5  C   UNL     1       0.409   8.677  20.240  0.00  0.00    +0.000 C 
ATOM      6  C   UNL     1       0.556   9.966  19.421  0.00  0.00    +0.000 C 
ATOM      7  C   UNL     1       1.248   9.662  18.084  0.00  0.00    +0.000 C 
ATOM      8  C   UNL     1       2.561   8.896  18.273  0.00  0.00    +0.000 C 
ENDROOT
BRANCH   1   9
ATOM      9  C   UNL     1       3.358   6.173  17.434  0.00  0.00    +0.000 C 
BRANCH   9  10
ATOM     10  C   UNL     1       3.952   4.764  17.367  0.00  0.00    +0.000 C 
BRANCH  10  17
ATOM     11  C   UNL     1       6.487   5.320  19.359  0.00  0.00    +0.000 C 
ATOM     12  C   UNL     1       6.507   5.006  17.911  0.00  0.00    +0.000 A 
ATOM     13  N   UNL     1       7.677   4.918  17.268  0.00  0.00    +0.000 NA
ATOM     14  O   UNL     1       7.366   4.615  15.961  0.00  0.00    +0.000 OA
ATOM     15  C   UNL     1       6.017   4.525  15.821  0.00  0.00    +0.000 A 
ATOM     16  C   UNL     1       5.535   4.204  14.464  0.00  0.00    +0.000 C 
ATOM     17  C   UNL     1       5.409   4.767  17.036  0.00  0.00    +0.000 A 
ENDBRANCH  10  17
ENDBRANCH   9  10
ENDBRANCH   1   9
BRANCH   6  18
ATOM     18  O   UNL     1       1.348  10.954  20.101  0.00  0.00    +0.000 OA
BRANCH  18  19
ATOM     19  C   UNL     1       1.140  12.213  19.709  0.00  0.00    +0.000 A 
ATOM     20  N   UNL     1       2.098  12.975  19.240  0.00  0.00    +0.000 NA
ATOM     21  C   UNL     1       1.602  14.231  18.939  0.00  0.00    +0.000 A 
ATOM     22  C   UNL     1       2.362  15.302  18.409  0.00  0.00    +0.000 A 
ATOM     23  C   UNL     1       3.820  15.175  18.077  0.00  0.00    +0.000 C 
ATOM     24  C   UNL     1       1.711  16.535  18.197  0.00  0.00    +0.000 A 
ATOM     25  C   UNL     1       0.359  16.701  18.489  0.00  0.00    +0.000 A 
ATOM     26  C   UNL     1      -0.402  15.644  18.990  0.00  0.00    +0.000 A 
ATOM     27  C   UNL     1       0.243  14.412  19.204  0.00  0.00    +0.000 A 
ATOM     28  S   UNL     1      -0.409  12.927  19.791  0.00  0.00    +0.000 S 
ENDBRANCH  18  19
ENDBRANCH   6  18
TORSDOF 5
ENDMDL
MODEL 9
REMARK VINA RESULT:      -7.6      3.175      3.744
REMARK  Name = 
REMARK  8 active torsions:
REMARK  status: ('A' for Active; 'I' for Inactive)
REMARK    1  A    between atoms: C_1  and  C_2
REMARK    2  A    between atoms: C_5  and  C_6
REMARK    3  A    between atoms: C_7  and  C_8
REMARK    4  A    between atoms: C_8  and  C_9
REMARK    5  A    between atoms: C_9  and  C_10
REMARK    6  A    between atoms: C_15  and  O_16
REMARK    7  A    between atoms: O_16  and  C_17
REMARK    8  A    between atoms: C_20  and  C_21
REMARK                            x       y       z     vdW  Elec       q    Type
REMARK                         _______ _______ _______ _____ _____    ______ ____
ROOT
ATOM      1  C   UNL     1       2.587   6.382  18.737  0.00  0.00    +0.000 C 
ATOM      2  O   UNL     1       2.219   5.426  19.418  0.00  0.00    +0.000 OA
ATOM      3  N   UNL     1       2.358   7.697  19.126  0.00  0.00    +0.000 N 
ATOM      4  C   UNL     1       1.778   7.965  20.441  0.00  0.00    +0.000 C 
ATOM      5  C   UNL     1       0.426   8.649  20.289  0.00  0.00    +0.000 C 
ATOM      6  C   UNL     1       0.552   9.940  19.468  0.00  0.00    +0.000 C 
ATOM      7  C   UNL     1       1.228   9.640  18.122  0.00  0.00    +0.000 C 
ATOM      8  C   UNL     1       2.549   8.884  18.292  0.00  0.00    +0.000 C 
ENDROOT
BRANCH   1   9
ATOM      9  C   UNL     1       3.353   6.167  17.441  0.00  0.00    +0.000 C 
BRANCH   9  10
ATOM     10  C   UNL     1       3.985   4.774  17.379  0.00  0.00    +0.000 C 
BRANCH  10  17
ATOM     11  C   UNL     1       5.482   4.260  14.515  0.00  0.00    +0.000 C 
ATOM     12  C   UNL     1       6.091   4.596  15.824  0.00  0.00    +0.000 A 
ATOM     13  N   UNL     1       7.418   4.726  15.923  0.00  0.00    +0.000 NA
ATOM     14  O   UNL     1       7.668   5.040  17.241  0.00  0.00    +0.000 OA
ATOM     15  C   UNL     1       6.497   5.094  17.929  0.00  0.00    +0.000 A 
ATOM     16  C   UNL     1       6.611   5.422  19.362  0.00  0.00    +0.000 C 
ATOM     17  C   UNL     1       5.447   4.817  17.076  0.00  0.00    +0.000 A 
ENDBRANCH  10  17
ENDBRANCH   9  10
ENDBRANCH   1   9
BRANCH   6  18
ATOM     18  O   UNL     1       1.347  10.933  20.137  0.00  0.00    +0.000 OA
BRANCH  18  19
ATOM     19  C   UNL     1       1.137  12.189  19.737  0.00  0.00    +0.000 A 
ATOM     20  N   UNL     1       2.096  12.956  19.281  0.00  0.00    +0.000 NA
ATOM     21  C   UNL     1       1.596  14.207  18.966  0.00  0.00    +0.000 A 
ATOM     22  C   UNL     1       2.357  15.282  18.445  0.00  0.00    +0.000 A 
ATOM     23  C   UNL     1       3.822  15.165  18.139  0.00  0.00    +0.000 C 
ATOM     24  C   UNL     1       1.700  16.510  18.217  0.00  0.00    +0.000 A 
ATOM     25  C   UNL     1       0.342  16.665  18.486  0.00  0.00    +0.000 A 
ATOM     26  C   UNL     1      -0.420  15.605  18.977  0.00  0.00    +0.000 A 
ATOM     27  C   UNL     1       0.231  14.379  19.208  0.00  0.00    +0.000 A 
ATOM     28  S   UNL     1      -0.420  12.891  19.790  0.00  0.00    +0.000 S 
ENDBRANCH  18  19
ENDBRANCH   6  18
TORSDOF 5
ENDMDL
