MODEL 1
REMARK VINA RESULT:      -8.3      0.000      0.000
REMARK  Name = 
REMARK  13 active torsions:
REMARK  status: ('A' for Active; 'I' for Inactive)
REMARK    1  A    between atoms: C_2  and  C_3
REMARK    2  A    between atoms: C_3  and  C_4
REMARK    3  A    between atoms: N_14  and  C_15
REMARK    4  A    between atoms: C_18  and  C_19
REMARK    5  A    between atoms: C_19  and  C_20
REMARK    6  A    between atoms: C_20  and  N_21
REMARK    7  A    between atoms: N_21  and  C_22
REMARK    8  A    between atoms: C_22  and  C_23
REMARK    9  A    between atoms: C_23  and  O_24
REMARK   10  A    between atoms: C_23  and  C_25
REMARK   11  A    between atoms: C_25  and  O_26
REMARK   12  A    between atoms: O_26  and  C_27
REMARK   13  A    between atoms: C_30  and  O_31
REMARK                            x       y       z     vdW  Elec       q    Type
REMARK                         _______ _______ _______ _____ _____    ______ ____
ROOT
ATOM      1  C   UNL     1       7.626   6.986  18.271  0.00  0.00    +0.000 A 
ATOM      2  C   UNL     1       7.373   5.738  18.849  0.00  0.00    +0.000 A 
ATOM      3  C   UNL     1       6.420   4.874  18.316  0.00  0.00    +0.000 A 
ATOM      4  C   UNL     1       5.676   5.244  17.195  0.00  0.00    +0.000 A 
ATOM      5  C   UNL     1       5.964   6.470  16.578  0.00  0.00    +0.000 A 
ATOM      6  C   UNL     1       6.931   7.331  17.107  0.00  0.00    +0.000 A 
ENDROOT
BRANCH   1   9
ATOM      7  O   UNL     1       7.776   9.851  17.778  0.00  0.00    +0.000 OA
ATOM      8  C   UNL     1       8.572   9.272  18.516  0.00  0.00    +0.000 C 
ATOM      9  N   UNL     1       8.521   7.920  18.841  0.00  0.00    +0.000 N 
ATOM     10  H   UNL     1       9.100   7.593  19.607  0.00  0.00    +0.000 HD
BRANCH   8  11
ATOM     11  C   UNL     1       9.706  10.060  19.158  0.00  0.00    +0.000 C 
BRANCH  11  12
ATOM     12  C   UNL     1       9.997  11.421  18.564  0.00  0.00    +0.000 A 
ATOM     13  C   UNL     1      11.019  11.628  17.631  0.00  0.00    +0.000 A 
ATOM     14  C   UNL     1      11.262  12.909  17.122  0.00  0.00    +0.000 A 
ATOM     15  C   UNL     1      10.503  14.010  17.533  0.00  0.00    +0.000 A 
ATOM     16  C   UNL     1      10.718  15.295  17.006  0.00  0.00    +0.000 A 
ATOM     17  C   UNL     1       9.939  16.374  17.422  0.00  0.00    +0.000 A 
ATOM     18  C   UNL     1       8.943  16.193  18.381  0.00  0.00    +0.000 A 
ATOM     19  C   UNL     1       8.727  14.926  18.922  0.00  0.00    +0.000 A 
ATOM     20  C   UNL     1       9.491  13.821  18.512  0.00  0.00    +0.000 A 
ATOM     21  C   UNL     1       9.271  12.536  19.024  0.00  0.00    +0.000 A 
ENDBRANCH  11  12
ENDBRANCH   8  11
ENDBRANCH   1   9
BRANCH   4  22
ATOM     22  C   UNL     1       4.597   4.328  16.672  0.00  0.00    +0.000 C 
BRANCH  22  23
ATOM     23  C   UNL     1       4.466   3.060  17.529  0.00  0.00    +0.000 C 
BRANCH  23  24
ATOM     24  N   UNL     1       3.080   2.615  17.597  0.00  0.00    +0.000 NA
ATOM     25  H   UNL     1       2.994   1.827  18.248  0.00  0.00    +0.000 HD
BRANCH  24  26
ATOM     26  C   UNL     1       2.205   3.702  18.044  0.00  0.00    +0.000 C 
BRANCH  26  27
ATOM     27  C   UNL     1       2.185   3.755  19.583  0.00  0.00    +0.000 C 
BRANCH  27  28
ATOM     28  O   UNL     1       0.841   3.903  20.063  0.00  0.00    +0.000 OA
ATOM     29  H   UNL     1       0.700   3.224  20.745  0.00  0.00    +0.000 HD
ENDBRANCH  27  28
BRANCH  27  30
ATOM     30  C   UNL     1       3.027   4.928  20.080  0.00  0.00    +0.000 C 
BRANCH  30  31
ATOM     31  O   UNL     1       2.151   5.974  20.513  0.00  0.00    +0.000 OA
BRANCH  31  32
ATOM     32  C   UNL     1       2.126   7.075  19.706  0.00  0.00    +0.000 A 
ATOM     33  C   UNL     1       1.397   8.166  20.187  0.00  0.00    +0.000 A 
ATOM     34  C   UNL     1       1.300   9.334  19.429  0.00  0.00    +0.000 A 
ATOM     35  C   UNL     1       1.957   9.407  18.206  0.00  0.00    +0.000 A 
ATOM     36  C   UNL     1       2.705   8.340  17.731  0.00  0.00    +0.000 A 
ATOM     37  C   UNL     1       2.792   7.171  18.484  0.00  0.00    +0.000 A 
BRANCH  35  38
ATOM     38  O   UNL     1       1.894  10.521  17.425  0.00  0.00    +0.000 OA
ATOM     39  H   UNL     1       2.611  11.118  17.693  0.00  0.00    +0.000 HD
ENDBRANCH  35  38
ENDBRANCH  31  32
ENDBRANCH  30  31
ENDBRANCH  27  30
ENDBRANCH  26  27
ENDBRANCH  24  26
ENDBRANCH  23  24
ENDBRANCH  22  23
ENDBRANCH   4  22
TORSDOF 13
ENDMDL
MODEL 2
REMARK VINA RESULT:      -8.3      6.344     10.841
REMARK  Name = 
REMARK  13 active torsions:
REMARK  status: ('A' for Active; 'I' for Inactive)
REMARK    1  A    between atoms: C_2  and  C_3
REMARK    2  A    between atoms: C_3  and  C_4
REMARK    3  A    between atoms: N_14  and  C_15
REMARK    4  A    between atoms: C_18  and  C_19
REMARK    5  A    between atoms: C_19  and  C_20
REMARK    6  A    between atoms: C_20  and  N_21
REMARK    7  A    between atoms: N_21  and  C_22
REMARK    8  A    between atoms: C_22  and  C_23
REMARK    9  A    between atoms: C_23  and  O_24
REMARK   10  A    between atoms: C_23  and  C_25
REMARK   11  A    between atoms: C_25  and  O_26
REMARK   12  A    between atoms: O_26  and  C_27
REMARK   13  A    between atoms: C_30  and  O_31
REMARK                            x       y       z     vdW  Elec       q    Type
REMARK                         _______ _______ _______ _____ _____    ______ ____
ROOT
ATOM      1  C   UNL     1       0.584  10.774  21.152  0.00  0.00    +0.000 A 
ATOM      2  C   UNL     1       0.435  12.149  20.947  0.00  0.00    +0.000 A 
ATOM      3  C   UNL     1      -0.500  12.890  21.666  0.00  0.00    +0.000 A 
ATOM      4  C   UNL     1      -1.328  12.269  22.602  0.00  0.00    +0.000 A 
ATOM      5  C   UNL     1      -1.143  10.902  22.853  0.00  0.00    +0.000 A 
ATOM      6  C   UNL     1      -0.195  10.161  22.140  0.00  0.00    +0.000 A 
ENDROOT
BRANCH   1   9
ATOM      7  O   UNL     1       0.134   9.701  18.484  0.00  0.00    +0.000 OA
ATOM      8  C   UNL     1       1.155   9.454  19.125  0.00  0.00    +0.000 C 
ATOM      9  N   UNL     1       1.460   9.981  20.376  0.00  0.00    +0.000 N 
ATOM     10  H   UNL     1       2.407   9.870  20.721  0.00  0.00    +0.000 HD
BRANCH   8  11
ATOM     11  C   UNL     1       2.202   8.518  18.533  0.00  0.00    +0.000 C 
BRANCH  11  12
ATOM     12  C   UNL     1       2.124   7.069  18.962  0.00  0.00    +0.000 A 
ATOM     13  C   UNL     1       1.893   6.692  20.288  0.00  0.00    +0.000 A 
ATOM     14  C   UNL     1       1.847   5.337  20.640  0.00  0.00    +0.000 A 
ATOM     15  C   UNL     1       2.038   4.332  19.685  0.00  0.00    +0.000 A 
ATOM     16  C   UNL     1       1.964   2.970  20.021  0.00  0.00    +0.000 A 
ATOM     17  C   UNL     1       2.145   1.987  19.050  0.00  0.00    +0.000 A 
ATOM     18  C   UNL     1       2.417   2.346  17.730  0.00  0.00    +0.000 A 
ATOM     19  C   UNL     1       2.507   3.693  17.385  0.00  0.00    +0.000 A 
ATOM     20  C   UNL     1       2.318   4.703  18.342  0.00  0.00    +0.000 A 
ATOM     21  C   UNL     1       2.376   6.062  18.011  0.00  0.00    +0.000 A 
ENDBRANCH  11  12
ENDBRANCH   8  11
ENDBRANCH   1   9
BRANCH   4  22
ATOM     22  C   UNL     1      -2.384  13.071  23.322  0.00  0.00    +0.000 C 
BRANCH  22  23
ATOM     23  C   UNL     1      -2.881  14.248  22.468  0.00  0.00    +0.000 C 
BRANCH  23  24
ATOM     24  N   UNL     1      -4.334  14.242  22.363  0.00  0.00    +0.000 NA
ATOM     25  H   UNL     1      -4.618  14.381  21.387  0.00  0.00    +0.000 HD
BRANCH  24  26
ATOM     26  C   UNL     1      -4.886  12.974  22.846  0.00  0.00    +0.000 C 
BRANCH  26  27
ATOM     27  C   UNL     1      -6.299  12.767  22.269  0.00  0.00    +0.000 C 
BRANCH  27  28
ATOM     28  O   UNL     1      -7.091  11.963  23.155  0.00  0.00    +0.000 OA
ATOM     29  H   UNL     1      -7.938  11.790  22.710  0.00  0.00    +0.000 HD
ENDBRANCH  27  28
BRANCH  27  30
ATOM     30  C   UNL     1      -6.217  12.082  20.907  0.00  0.00    +0.000 C 
BRANCH  30  31
ATOM     31  O   UNL     1      -5.608  12.982  19.974  0.00  0.00    +0.000 OA
BRANCH  31  32
ATOM     32  C   UNL     1      -4.760  12.396  19.078  0.00  0.00    +0.000 A 
ATOM     33  C   UNL     1      -3.430  12.274  19.487  0.00  0.00    +0.000 A 
ATOM     34  C   UNL     1      -2.484  11.703  18.636  0.00  0.00    +0.000 A 
ATOM     35  C   UNL     1      -2.886  11.233  17.390  0.00  0.00    +0.000 A 
ATOM     36  C   UNL     1      -4.208  11.325  16.984  0.00  0.00    +0.000 A 
ATOM     37  C   UNL     1      -5.150  11.905  17.831  0.00  0.00    +0.000 A 
BRANCH  35  38
ATOM     38  O   UNL     1      -2.003  10.668  16.520  0.00  0.00    +0.000 OA
ATOM     39  H   UNL     1      -1.115  10.994  16.737  0.00  0.00    +0.000 HD
ENDBRANCH  35  38
ENDBRANCH  31  32
ENDBRANCH  30  31
ENDBRANCH  27  30
ENDBRANCH  26  27
ENDBRANCH  24  26
ENDBRANCH  23  24
ENDBRANCH  22  23
ENDBRANCH   4  22
TORSDOF 13
ENDMDL
MODEL 3
REMARK VINA RESULT:      -8.1      1.085      1.531
REMARK  Name = 
REMARK  13 active torsions:
REMARK  status: ('A' for Active; 'I' for Inactive)
REMARK    1  A    between atoms: C_2  and  C_3
REMARK    2  A    between atoms: C_3  and  C_4
REMARK    3  A    between atoms: N_14  and  C_15
REMARK    4  A    between atoms: C_18  and  C_19
REMARK    5  A    between atoms: C_19  and  C_20
REMARK    6  A    between atoms: C_20  and  N_21
REMARK    7  A    between atoms: N_21  and  C_22
REMARK    8  A    between atoms: C_22  and  C_23
REMARK    9  A    between atoms: C_23  and  O_24
REMARK   10  A    between atoms: C_23  and  C_25
REMARK   11  A    between atoms: C_25  and  O_26
REMARK   12  A    between atoms: O_26  and  C_27
REMARK   13  A    between atoms: C_30  and  O_31
REMARK                            x       y       z     vdW  Elec       q    Type
REMARK                         _______ _______ _______ _____ _____    ______ ____
ROOT
ATOM      1  C   UNL     1       7.367   6.402  18.254  0.00  0.00    +0.000 A 
ATOM      2  C   UNL     1       6.666   5.496  19.055  0.00  0.00    +0.000 A 
ATOM      3  C   UNL     1       5.722   4.630  18.510  0.00  0.00    +0.000 A 
ATOM      4  C   UNL     1       5.438   4.659  17.144  0.00  0.00    +0.000 A 
ATOM      5  C   UNL     1       6.179   5.525  16.327  0.00  0.00    +0.000 A 
ATOM      6  C   UNL     1       7.137   6.385  16.874  0.00  0.00    +0.000 A 
ENDROOT
BRANCH   1   9
ATOM      7  O   UNL     1       7.559   9.236  17.618  0.00  0.00    +0.000 OA
ATOM      8  C   UNL     1       8.336   8.687  18.397  0.00  0.00    +0.000 C 
ATOM      9  N   UNL     1       8.265   7.355  18.790  0.00  0.00    +0.000 N 
ATOM     10  H   UNL     1       8.828   7.060  19.581  0.00  0.00    +0.000 HD
BRANCH   8  11
ATOM     11  C   UNL     1       9.470   9.495  19.017  0.00  0.00    +0.000 C 
BRANCH  11  12
ATOM     12  C   UNL     1       9.483  10.977  18.710  0.00  0.00    +0.000 A 
ATOM     13  C   UNL     1       8.574  11.566  17.825  0.00  0.00    +0.000 A 
ATOM     14  C   UNL     1       8.636  12.939  17.559  0.00  0.00    +0.000 A 
ATOM     15  C   UNL     1       9.604  13.752  18.159  0.00  0.00    +0.000 A 
ATOM     16  C   UNL     1       9.657  15.136  17.922  0.00  0.00    +0.000 A 
ATOM     17  C   UNL     1      10.624  15.927  18.542  0.00  0.00    +0.000 A 
ATOM     18  C   UNL     1      11.563  15.349  19.396  0.00  0.00    +0.000 A 
ATOM     19  C   UNL     1      11.531  13.975  19.629  0.00  0.00    +0.000 A 
ATOM     20  C   UNL     1      10.561  13.158  19.026  0.00  0.00    +0.000 A 
ATOM     21  C   UNL     1      10.495  11.780  19.268  0.00  0.00    +0.000 A 
ENDBRANCH  11  12
ENDBRANCH   8  11
ENDBRANCH   1   9
BRANCH   4  22
ATOM     22  C   UNL     1       4.362   3.764  16.580  0.00  0.00    +0.000 C 
BRANCH  22  23
ATOM     23  C   UNL     1       3.719   2.894  17.671  0.00  0.00    +0.000 C 
BRANCH  23  24
ATOM     24  N   UNL     1       2.332   2.587  17.345  0.00  0.00    +0.000 NA
ATOM     25  H   UNL     1       2.261   1.634  16.972  0.00  0.00    +0.000 HD
BRANCH  24  26
ATOM     26  C   UNL     1       1.480   2.701  18.531  0.00  0.00    +0.000 C 
BRANCH  26  27
ATOM     27  C   UNL     1       2.267   3.367  19.676  0.00  0.00    +0.000 C 
BRANCH  27  28
ATOM     28  O   UNL     1       2.470   2.439  20.752  0.00  0.00    +0.000 OA
ATOM     29  H   UNL     1       3.024   1.717  20.411  0.00  0.00    +0.000 HD
ENDBRANCH  27  28
BRANCH  27  30
ATOM     30  C   UNL     1       1.506   4.583  20.199  0.00  0.00    +0.000 C 
BRANCH  30  31
ATOM     31  O   UNL     1       2.447   5.620  20.501  0.00  0.00    +0.000 OA
BRANCH  31  32
ATOM     32  C   UNL     1       2.289   6.769  19.781  0.00  0.00    +0.000 A 
ATOM     33  C   UNL     1       2.822   6.758  18.490  0.00  0.00    +0.000 A 
ATOM     34  C   UNL     1       2.724   7.890  17.680  0.00  0.00    +0.000 A 
ATOM     35  C   UNL     1       2.067   9.016  18.163  0.00  0.00    +0.000 A 
ATOM     36  C   UNL     1       1.511   9.030  19.434  0.00  0.00    +0.000 A 
ATOM     37  C   UNL     1       1.619   7.903  20.244  0.00  0.00    +0.000 A 
BRANCH  35  38
ATOM     38  O   UNL     1       1.944  10.149  17.416  0.00  0.00    +0.000 OA
ATOM     39  H   UNL     1       2.471  10.036  16.609  0.00  0.00    +0.000 HD
ENDBRANCH  35  38
ENDBRANCH  31  32
ENDBRANCH  30  31
ENDBRANCH  27  30
ENDBRANCH  26  27
ENDBRANCH  24  26
ENDBRANCH  23  24
ENDBRANCH  22  23
ENDBRANCH   4  22
TORSDOF 13
ENDMDL
MODEL 4
REMARK VINA RESULT:      -8.1      4.970      9.315
REMARK  Name = 
REMARK  13 active torsions:
REMARK  status: ('A' for Active; 'I' for Inactive)
REMARK    1  A    between atoms: C_2  and  C_3
REMARK    2  A    between atoms: C_3  and  C_4
REMARK    3  A    between atoms: N_14  and  C_15
REMARK    4  A    between atoms: C_18  and  C_19
REMARK    5  A    between atoms: C_19  and  C_20
REMARK    6  A    between atoms: C_20  and  N_21
REMARK    7  A    between atoms: N_21  and  C_22
REMARK    8  A    between atoms: C_22  and  C_23
REMARK    9  A    between atoms: C_23  and  O_24
REMARK   10  A    between atoms: C_23  and  C_25
REMARK   11  A    between atoms: C_25  and  O_26
REMARK   12  A    between atoms: O_26  and  C_27
REMARK   13  A    between atoms: C_30  and  O_31
REMARK                            x       y       z     vdW  Elec       q    Type
REMARK                         _______ _______ _______ _____ _____    ______ ____
ROOT
ATOM      1  C   UNL     1       0.679   9.936  19.372  0.00  0.00    +0.000 A 
ATOM      2  C   UNL     1       0.960   9.072  20.434  0.00  0.00    +0.000 A 
ATOM      3  C   UNL     1       1.721   7.921  20.247  0.00  0.00    +0.000 A 
ATOM      4  C   UNL     1       2.209   7.591  18.982  0.00  0.00    +0.000 A 
ATOM      5  C   UNL     1       1.979   8.482  17.925  0.00  0.00    +0.000 A 
ATOM      6  C   UNL     1       1.225   9.646  18.117  0.00  0.00    +0.000 A 
ENDROOT
BRANCH   1   9
ATOM      7  O   UNL     1       1.442  12.744  19.453  0.00  0.00    +0.000 OA
ATOM      8  C   UNL     1       0.276  12.379  19.598  0.00  0.00    +0.000 C 
ATOM      9  N   UNL     1      -0.165  11.062  19.511  0.00  0.00    +0.000 N 
ATOM     10  H   UNL     1      -1.164  10.898  19.448  0.00  0.00    +0.000 HD
BRANCH   8  11
ATOM     11  C   UNL     1      -0.804  13.417  19.878  0.00  0.00    +0.000 C 
BRANCH  11  12
ATOM     12  C   UNL     1      -1.658  13.181  21.105  0.00  0.00    +0.000 A 
ATOM     13  C   UNL     1      -1.108  12.860  22.350  0.00  0.00    +0.000 A 
ATOM     14  C   UNL     1      -1.940  12.633  23.453  0.00  0.00    +0.000 A 
ATOM     15  C   UNL     1      -3.333  12.712  23.340  0.00  0.00    +0.000 A 
ATOM     16  C   UNL     1      -4.177  12.516  24.447  0.00  0.00    +0.000 A 
ATOM     17  C   UNL     1      -5.561  12.613  24.312  0.00  0.00    +0.000 A 
ATOM     18  C   UNL     1      -6.127  12.892  23.068  0.00  0.00    +0.000 A 
ATOM     19  C   UNL     1      -5.303  13.075  21.959  0.00  0.00    +0.000 A 
ATOM     20  C   UNL     1      -3.906  12.994  22.071  0.00  0.00    +0.000 A 
ATOM     21  C   UNL     1      -3.059  13.202  20.974  0.00  0.00    +0.000 A 
ENDBRANCH  11  12
ENDBRANCH   8  11
ENDBRANCH   1   9
BRANCH   4  22
ATOM     22  C   UNL     1       2.971   6.304  18.781  0.00  0.00    +0.000 C 
BRANCH  22  23
ATOM     23  C   UNL     1       2.168   5.295  17.946  0.00  0.00    +0.000 C 
BRANCH  23  24
ATOM     24  N   UNL     1       1.600   4.252  18.791  0.00  0.00    +0.000 NA
ATOM     25  H   UNL     1       1.615   3.352  18.298  0.00  0.00    +0.000 HD
BRANCH  24  26
ATOM     26  C   UNL     1       2.353   4.126  20.041  0.00  0.00    +0.000 C 
BRANCH  26  27
ATOM     27  C   UNL     1       2.968   2.717  20.138  0.00  0.00    +0.000 C 
BRANCH  27  28
ATOM     28  O   UNL     1       3.304   2.408  21.498  0.00  0.00    +0.000 OA
ATOM     29  H   UNL     1       4.192   2.012  21.495  0.00  0.00    +0.000 HD
ENDBRANCH  27  28
BRANCH  27  30
ATOM     30  C   UNL     1       4.228   2.632  19.279  0.00  0.00    +0.000 C 
BRANCH  30  31
ATOM     31  O   UNL     1       5.212   3.524  19.814  0.00  0.00    +0.000 OA
BRANCH  31  32
ATOM     32  C   UNL     1       5.825   4.325  18.893  0.00  0.00    +0.000 A 
ATOM     33  C   UNL     1       6.697   5.288  19.407  0.00  0.00    +0.000 A 
ATOM     34  C   UNL     1       7.361   6.164  18.548  0.00  0.00    +0.000 A 
ATOM     35  C   UNL     1       7.166   6.048  17.176  0.00  0.00    +0.000 A 
ATOM     36  C   UNL     1       6.323   5.079  16.652  0.00  0.00    +0.000 A 
ATOM     37  C   UNL     1       5.653   4.212  17.513  0.00  0.00    +0.000 A 
BRANCH  35  38
ATOM     38  O   UNL     1       7.787   6.878  16.292  0.00  0.00    +0.000 OA
ATOM     39  H   UNL     1       7.502   7.787  16.480  0.00  0.00    +0.000 HD
ENDBRANCH  35  38
ENDBRANCH  31  32
ENDBRANCH  30  31
ENDBRANCH  27  30
ENDBRANCH  26  27
ENDBRANCH  24  26
ENDBRANCH  23  24
ENDBRANCH  22  23
ENDBRANCH   4  22
TORSDOF 13
ENDMDL
MODEL 5
REMARK VINA RESULT:      -8.1      5.166      9.887
REMARK  Name = 
REMARK  13 active torsions:
REMARK  status: ('A' for Active; 'I' for Inactive)
REMARK    1  A    between atoms: C_2  and  C_3
REMARK    2  A    between atoms: C_3  and  C_4
REMARK    3  A    between atoms: N_14  and  C_15
REMARK    4  A    between atoms: C_18  and  C_19
REMARK    5  A    between atoms: C_19  and  C_20
REMARK    6  A    between atoms: C_20  and  N_21
REMARK    7  A    between atoms: N_21  and  C_22
REMARK    8  A    between atoms: C_22  and  C_23
REMARK    9  A    between atoms: C_23  and  O_24
REMARK   10  A    between atoms: C_23  and  C_25
REMARK   11  A    between atoms: C_25  and  O_26
REMARK   12  A    between atoms: O_26  and  C_27
REMARK   13  A    between atoms: C_30  and  O_31
REMARK                            x       y       z     vdW  Elec       q    Type
REMARK                         _______ _______ _______ _____ _____    ______ ____
ROOT
ATOM      1  C   UNL     1       0.498  10.036  19.850  0.00  0.00    +0.000 A 
ATOM      2  C   UNL     1       0.633   9.169  20.939  0.00  0.00    +0.000 A 
ATOM      3  C   UNL     1       1.378   7.997  20.842  0.00  0.00    +0.000 A 
ATOM      4  C   UNL     1       1.997   7.648  19.642  0.00  0.00    +0.000 A 
ATOM      5  C   UNL     1       1.914   8.541  18.564  0.00  0.00    +0.000 A 
ATOM      6  C   UNL     1       1.176   9.725  18.666  0.00  0.00    +0.000 A 
ENDROOT
BRANCH   1   9
ATOM      7  O   UNL     1       0.772  12.373  21.564  0.00  0.00    +0.000 OA
ATOM      8  C   UNL     1      -0.166  12.245  20.778  0.00  0.00    +0.000 C 
ATOM      9  N   UNL     1      -0.324  11.185  19.890  0.00  0.00    +0.000 N 
ATOM     10  H   UNL     1      -1.019  11.279  19.156  0.00  0.00    +0.000 HD
BRANCH   8  11
ATOM     11  C   UNL     1      -1.250  13.314  20.726  0.00  0.00    +0.000 C 
BRANCH  11  12
ATOM     12  C   UNL     1      -2.402  13.148  21.693  0.00  0.00    +0.000 A 
ATOM     13  C   UNL     1      -2.218  13.118  23.079  0.00  0.00    +0.000 A 
ATOM     14  C   UNL     1      -3.313  12.944  23.934  0.00  0.00    +0.000 A 
ATOM     15  C   UNL     1      -4.609  12.789  23.431  0.00  0.00    +0.000 A 
ATOM     16  C   UNL     1      -5.720  12.644  24.280  0.00  0.00    +0.000 A 
ATOM     17  C   UNL     1      -7.003  12.503  23.755  0.00  0.00    +0.000 A 
ATOM     18  C   UNL     1      -7.200  12.490  22.374  0.00  0.00    +0.000 A 
ATOM     19  C   UNL     1      -6.106  12.619  21.519  0.00  0.00    +0.000 A 
ATOM     20  C   UNL     1      -4.804  12.773  22.023  0.00  0.00    +0.000 A 
ATOM     21  C   UNL     1      -3.696  12.932  21.182  0.00  0.00    +0.000 A 
ENDBRANCH  11  12
ENDBRANCH   8  11
ENDBRANCH   1   9
BRANCH   4  22
ATOM     22  C   UNL     1       2.742   6.340  19.531  0.00  0.00    +0.000 C 
BRANCH  22  23
ATOM     23  C   UNL     1       2.129   5.262  20.438  0.00  0.00    +0.000 C 
BRANCH  23  24
ATOM     24  N   UNL     1       1.380   4.286  19.658  0.00  0.00    +0.000 NA
ATOM     25  H   UNL     1       1.407   4.535  18.663  0.00  0.00    +0.000 HD
BRANCH  24  26
ATOM     26  C   UNL     1       1.937   2.942  19.829  0.00  0.00    +0.000 C 
BRANCH  26  27
ATOM     27  C   UNL     1       2.143   2.283  18.453  0.00  0.00    +0.000 C 
BRANCH  27  28
ATOM     28  O   UNL     1       3.106   1.223  18.542  0.00  0.00    +0.000 OA
ATOM     29  H   UNL     1       2.782   0.593  19.208  0.00  0.00    +0.000 HD
ENDBRANCH  27  28
BRANCH  27  30
ATOM     30  C   UNL     1       2.630   3.319  17.442  0.00  0.00    +0.000 C 
BRANCH  30  31
ATOM     31  O   UNL     1       4.010   3.067  17.152  0.00  0.00    +0.000 OA
BRANCH  31  32
ATOM     32  C   UNL     1       4.827   4.158  17.245  0.00  0.00    +0.000 A 
ATOM     33  C   UNL     1       5.507   4.307  18.456  0.00  0.00    +0.000 A 
ATOM     34  C   UNL     1       6.354   5.398  18.654  0.00  0.00    +0.000 A 
ATOM     35  C   UNL     1       6.534   6.315  17.625  0.00  0.00    +0.000 A 
ATOM     36  C   UNL     1       5.884   6.163  16.409  0.00  0.00    +0.000 A 
ATOM     37  C   UNL     1       5.031   5.079  16.217  0.00  0.00    +0.000 A 
BRANCH  35  38
ATOM     38  O   UNL     1       7.348   7.399  17.765  0.00  0.00    +0.000 OA
ATOM     39  H   UNL     1       8.207   7.090  18.096  0.00  0.00    +0.000 HD
ENDBRANCH  35  38
ENDBRANCH  31  32
ENDBRANCH  30  31
ENDBRANCH  27  30
ENDBRANCH  26  27
ENDBRANCH  24  26
ENDBRANCH  23  24
ENDBRANCH  22  23
ENDBRANCH   4  22
TORSDOF 13
ENDMDL
MODEL 6
REMARK VINA RESULT:      -8.1      5.166      9.829
REMARK  Name = 
REMARK  13 active torsions:
REMARK  status: ('A' for Active; 'I' for Inactive)
REMARK    1  A    between atoms: C_2  and  C_3
REMARK    2  A    between atoms: C_3  and  C_4
REMARK    3  A    between atoms: N_14  and  C_15
REMARK    4  A    between atoms: C_18  and  C_19
REMARK    5  A    between atoms: C_19  and  C_20
REMARK    6  A    between atoms: C_20  and  N_21
REMARK    7  A    between atoms: N_21  and  C_22
REMARK    8  A    between atoms: C_22  and  C_23
REMARK    9  A    between atoms: C_23  and  O_24
REMARK   10  A    between atoms: C_23  and  C_25
REMARK   11  A    between atoms: C_25  and  O_26
REMARK   12  A    between atoms: O_26  and  C_27
REMARK   13  A    between atoms: C_30  and  O_31
REMARK                            x       y       z     vdW  Elec       q    Type
REMARK                         _______ _______ _______ _____ _____    ______ ____
ROOT
ATOM      1  C   UNL     1       0.704  10.437  19.305  0.00  0.00    +0.000 A 
ATOM      2  C   UNL     1       0.805   9.367  20.199  0.00  0.00    +0.000 A 
ATOM      3  C   UNL     1       1.524   8.220  19.876  0.00  0.00    +0.000 A 
ATOM      4  C   UNL     1       2.150   8.103  18.635  0.00  0.00    +0.000 A 
ATOM      5  C   UNL     1       2.101   9.194  17.757  0.00  0.00    +0.000 A 
ATOM      6  C   UNL     1       1.389  10.352  18.088  0.00  0.00    +0.000 A 
ENDROOT
BRANCH   1   9
ATOM      7  O   UNL     1       1.265  12.630  21.136  0.00  0.00    +0.000 OA
ATOM      8  C   UNL     1       0.214  12.561  20.501  0.00  0.00    +0.000 C 
ATOM      9  N   UNL     1      -0.092  11.576  19.568  0.00  0.00    +0.000 N 
ATOM     10  H   UNL     1      -0.894  11.725  18.963  0.00  0.00    +0.000 HD
BRANCH   8  11
ATOM     11  C   UNL     1      -0.857  13.625  20.708  0.00  0.00    +0.000 C 
BRANCH  11  12
ATOM     12  C   UNL     1      -1.942  13.299  21.712  0.00  0.00    +0.000 A 
ATOM     13  C   UNL     1      -1.662  12.729  22.958  0.00  0.00    +0.000 A 
ATOM     14  C   UNL     1      -2.701  12.428  23.846  0.00  0.00    +0.000 A 
ATOM     15  C   UNL     1      -4.037  12.679  23.513  0.00  0.00    +0.000 A 
ATOM     16  C   UNL     1      -5.085  12.409  24.409  0.00  0.00    +0.000 A 
ATOM     17  C   UNL     1      -6.407  12.680  24.059  0.00  0.00    +0.000 A 
ATOM     18  C   UNL     1      -6.707  13.211  22.805  0.00  0.00    +0.000 A 
ATOM     19  C   UNL     1      -5.678  13.471  21.901  0.00  0.00    +0.000 A 
ATOM     20  C   UNL     1      -4.338  13.217  22.233  0.00  0.00    +0.000 A 
ATOM     21  C   UNL     1      -3.287  13.497  21.350  0.00  0.00    +0.000 A 
ENDBRANCH  11  12
ENDBRANCH   8  11
ENDBRANCH   1   9
BRANCH   4  22
ATOM     22  C   UNL     1       2.866   6.825  18.271  0.00  0.00    +0.000 C 
BRANCH  22  23
ATOM     23  C   UNL     1       4.078   7.093  17.365  0.00  0.00    +0.000 C 
BRANCH  23  24
ATOM     24  N   UNL     1       4.818   5.865  17.104  0.00  0.00    +0.000 NA
ATOM     25  H   UNL     1       4.572   5.495  16.180  0.00  0.00    +0.000 HD
BRANCH  24  26
ATOM     26  C   UNL     1       6.262   6.106  17.153  0.00  0.00    +0.000 C 
BRANCH  26  27
ATOM     27  C   UNL     1       6.867   5.399  18.380  0.00  0.00    +0.000 C 
BRANCH  27  28
ATOM     28  O   UNL     1       7.602   4.235  17.978  0.00  0.00    +0.000 OA
ATOM     29  H   UNL     1       8.546   4.469  17.993  0.00  0.00    +0.000 HD
ENDBRANCH  27  28
BRANCH  27  30
ATOM     30  C   UNL     1       5.760   4.984  19.347  0.00  0.00    +0.000 C 
BRANCH  30  31
ATOM     31  O   UNL     1       5.403   3.623  19.082  0.00  0.00    +0.000 OA
BRANCH  31  32
ATOM     32  C   UNL     1       4.066   3.355  19.149  0.00  0.00    +0.000 A 
ATOM     33  C   UNL     1       3.569   2.486  18.174  0.00  0.00    +0.000 A 
ATOM     34  C   UNL     1       2.212   2.162  18.149  0.00  0.00    +0.000 A 
ATOM     35  C   UNL     1       1.369   2.690  19.120  0.00  0.00    +0.000 A 
ATOM     36  C   UNL     1       1.855   3.533  20.108  0.00  0.00    +0.000 A 
ATOM     37  C   UNL     1       3.209   3.864  20.125  0.00  0.00    +0.000 A 
BRANCH  35  38
ATOM     38  O   UNL     1       0.037   2.408  19.141  0.00  0.00    +0.000 OA
ATOM     39  H   UNL     1      -0.296   2.589  20.036  0.00  0.00    +0.000 HD
ENDBRANCH  35  38
ENDBRANCH  31  32
ENDBRANCH  30  31
ENDBRANCH  27  30
ENDBRANCH  26  27
ENDBRANCH  24  26
ENDBRANCH  23  24
ENDBRANCH  22  23
ENDBRANCH   4  22
TORSDOF 13
ENDMDL
MODEL 7
REMARK VINA RESULT:      -8.1      4.909     10.051
REMARK  Name = 
REMARK  13 active torsions:
REMARK  status: ('A' for Active; 'I' for Inactive)
REMARK    1  A    between atoms: C_2  and  C_3
REMARK    2  A    between atoms: C_3  and  C_4
REMARK    3  A    between atoms: N_14  and  C_15
REMARK    4  A    between atoms: C_18  and  C_19
REMARK    5  A    between atoms: C_19  and  C_20
REMARK    6  A    between atoms: C_20  and  N_21
REMARK    7  A    between atoms: N_21  and  C_22
REMARK    8  A    between atoms: C_22  and  C_23
REMARK    9  A    between atoms: C_23  and  O_24
REMARK   10  A    between atoms: C_23  and  C_25
REMARK   11  A    between atoms: C_25  and  O_26
REMARK   12  A    between atoms: O_26  and  C_27
REMARK   13  A    between atoms: C_30  and  O_31
REMARK                            x       y       z     vdW  Elec       q    Type
REMARK                         _______ _______ _______ _____ _____    ______ ____
ROOT
ATOM      1  C   UNL     1       0.813  10.045  19.491  0.00  0.00    +0.000 A 
ATOM      2  C   UNL     1       0.965   9.027  20.437  0.00  0.00    +0.000 A 
ATOM      3  C   UNL     1       1.692   7.875  20.149  0.00  0.00    +0.000 A 
ATOM      4  C   UNL     1       2.275   7.701  18.894  0.00  0.00    +0.000 A 
ATOM      5  C   UNL     1       2.175   8.742  17.961  0.00  0.00    +0.000 A 
ATOM      6  C   UNL     1       1.455   9.905  18.256  0.00  0.00    +0.000 A 
ENDROOT
BRANCH   1   9
ATOM      7  O   UNL     1      -1.979  10.437  18.768  0.00  0.00    +0.000 OA
ATOM      8  C   UNL     1      -1.310  11.323  19.298  0.00  0.00    +0.000 C 
ATOM      9  N   UNL     1       0.007  11.184  19.722  0.00  0.00    +0.000 N 
ATOM     10  H   UNL     1       0.394  11.906  20.320  0.00  0.00    +0.000 HD
BRANCH   8  11
ATOM     11  C   UNL     1      -1.939  12.689  19.543  0.00  0.00    +0.000 C 
BRANCH  11  12
ATOM     12  C   UNL     1      -3.063  12.738  20.556  0.00  0.00    +0.000 A 
ATOM     13  C   UNL     1      -2.829  12.754  21.934  0.00  0.00    +0.000 A 
ATOM     14  C   UNL     1      -3.903  12.781  22.833  0.00  0.00    +0.000 A 
ATOM     15  C   UNL     1      -5.227  12.785  22.382  0.00  0.00    +0.000 A 
ATOM     16  C   UNL     1      -6.312  12.843  23.274  0.00  0.00    +0.000 A 
ATOM     17  C   UNL     1      -7.622  12.859  22.799  0.00  0.00    +0.000 A 
ATOM     18  C   UNL     1      -7.874  12.803  21.429  0.00  0.00    +0.000 A 
ATOM     19  C   UNL     1      -6.808  12.732  20.533  0.00  0.00    +0.000 A 
ATOM     20  C   UNL     1      -5.479  12.725  20.984  0.00  0.00    +0.000 A 
ATOM     21  C   UNL     1      -4.393  12.682  20.100  0.00  0.00    +0.000 A 
ENDBRANCH  11  12
ENDBRANCH   8  11
ENDBRANCH   1   9
BRANCH   4  22
ATOM     22  C   UNL     1       3.000   6.416  18.572  0.00  0.00    +0.000 C 
BRANCH  22  23
ATOM     23  C   UNL     1       3.444   5.682  19.847  0.00  0.00    +0.000 C 
BRANCH  23  24
ATOM     24  N   UNL     1       3.125   4.263  19.771  0.00  0.00    +0.000 NA
ATOM     25  H   UNL     1       2.788   3.928  20.681  0.00  0.00    +0.000 HD
BRANCH  24  26
ATOM     26  C   UNL     1       2.096   4.013  18.759  0.00  0.00    +0.000 C 
BRANCH  26  27
ATOM     27  C   UNL     1       2.507   2.817  17.881  0.00  0.00    +0.000 C 
BRANCH  27  28
ATOM     28  O   UNL     1       1.842   1.622  18.316  0.00  0.00    +0.000 OA
ATOM     29  H   UNL     1       1.145   1.426  17.667  0.00  0.00    +0.000 HD
ENDBRANCH  27  28
BRANCH  27  30
ATOM     30  C   UNL     1       4.018   2.605  17.955  0.00  0.00    +0.000 C 
BRANCH  30  31
ATOM     31  O   UNL     1       4.613   3.111  16.755  0.00  0.00    +0.000 OA
BRANCH  31  32
ATOM     32  C   UNL     1       5.350   4.250  16.913  0.00  0.00    +0.000 A 
ATOM     33  C   UNL     1       5.025   5.309  16.061  0.00  0.00    +0.000 A 
ATOM     34  C   UNL     1       5.731   6.510  16.135  0.00  0.00    +0.000 A 
ATOM     35  C   UNL     1       6.739   6.650  17.083  0.00  0.00    +0.000 A 
ATOM     36  C   UNL     1       7.052   5.615  17.951  0.00  0.00    +0.000 A 
ATOM     37  C   UNL     1       6.353   4.412  17.869  0.00  0.00    +0.000 A 
BRANCH  35  38
ATOM     38  O   UNL     1       7.460   7.799  17.197  0.00  0.00    +0.000 OA
ATOM     39  H   UNL     1       7.933   7.943  16.362  0.00  0.00    +0.000 HD
ENDBRANCH  35  38
ENDBRANCH  31  32
ENDBRANCH  30  31
ENDBRANCH  27  30
ENDBRANCH  26  27
ENDBRANCH  24  26
ENDBRANCH  23  24
ENDBRANCH  22  23
ENDBRANCH   4  22
TORSDOF 13
ENDMDL
MODEL 8
REMARK VINA RESULT:      -8.0      5.637      9.548
REMARK  Name = 
REMARK  13 active torsions:
REMARK  status: ('A' for Active; 'I' for Inactive)
REMARK    1  A    between atoms: C_2  and  C_3
REMARK    2  A    between atoms: C_3  and  C_4
REMARK    3  A    between atoms: N_14  and  C_15
REMARK    4  A    between atoms: C_18  and  C_19
REMARK    5  A    between atoms: C_19  and  C_20
REMARK    6  A    between atoms: C_20  and  N_21
REMARK    7  A    between atoms: N_21  and  C_22
REMARK    8  A    between atoms: C_22  and  C_23
REMARK    9  A    between atoms: C_23  and  O_24
REMARK   10  A    between atoms: C_23  and  C_25
REMARK   11  A    between atoms: C_25  and  O_26
REMARK   12  A    between atoms: O_26  and  C_27
REMARK   13  A    between atoms: C_30  and  O_31
REMARK                            x       y       z     vdW  Elec       q    Type
REMARK                         _______ _______ _______ _____ _____    ______ ____
ROOT
ATOM      1  C   UNL     1       1.882   8.111  19.590  0.00  0.00    +0.000 A 
ATOM      2  C   UNL     1       1.632   8.827  18.415  0.00  0.00    +0.000 A 
ATOM      3  C   UNL     1       0.730   9.887  18.393  0.00  0.00    +0.000 A 
ATOM      4  C   UNL     1       0.034  10.250  19.547  0.00  0.00    +0.000 A 
ATOM      5  C   UNL     1       0.322   9.574  20.740  0.00  0.00    +0.000 A 
ATOM      6  C   UNL     1       1.239   8.517  20.765  0.00  0.00    +0.000 A 
ENDROOT
BRANCH   1   9
ATOM      7  O   UNL     1       1.191   5.396  20.380  0.00  0.00    +0.000 OA
ATOM      8  C   UNL     1       2.338   5.714  20.067  0.00  0.00    +0.000 C 
ATOM      9  N   UNL     1       2.723   6.975  19.623  0.00  0.00    +0.000 N 
ATOM     10  H   UNL     1       3.643   7.072  19.206  0.00  0.00    +0.000 HD
BRANCH   8  11
ATOM     11  C   UNL     1       3.449   4.674  20.138  0.00  0.00    +0.000 C 
BRANCH  11  12
ATOM     12  C   UNL     1       4.515   4.757  19.066  0.00  0.00    +0.000 A 
ATOM     13  C   UNL     1       5.823   5.165  19.342  0.00  0.00    +0.000 A 
ATOM     14  C   UNL     1       6.771   5.244  18.314  0.00  0.00    +0.000 A 
ATOM     15  C   UNL     1       6.436   4.926  16.993  0.00  0.00    +0.000 A 
ATOM     16  C   UNL     1       7.385   4.971  15.958  0.00  0.00    +0.000 A 
ATOM     17  C   UNL     1       7.031   4.638  14.652  0.00  0.00    +0.000 A 
ATOM     18  C   UNL     1       5.720   4.267  14.353  0.00  0.00    +0.000 A 
ATOM     19  C   UNL     1       4.764   4.231  15.367  0.00  0.00    +0.000 A 
ATOM     20  C   UNL     1       5.098   4.552  16.692  0.00  0.00    +0.000 A 
ATOM     21  C   UNL     1       4.159   4.494  17.731  0.00  0.00    +0.000 A 
ENDBRANCH  11  12
ENDBRANCH   8  11
ENDBRANCH   1   9
BRANCH   4  22
ATOM     22  C   UNL     1      -0.993  11.354  19.490  0.00  0.00    +0.000 C 
BRANCH  22  23
ATOM     23  C   UNL     1      -2.175  10.982  18.581  0.00  0.00    +0.000 C 
BRANCH  23  24
ATOM     24  N   UNL     1      -3.100  12.099  18.444  0.00  0.00    +0.000 NA
ATOM     25  H   UNL     1      -2.685  12.830  17.856  0.00  0.00    +0.000 HD
BRANCH  24  26
ATOM     26  C   UNL     1      -4.361  11.659  17.840  0.00  0.00    +0.000 C 
BRANCH  26  27
ATOM     27  C   UNL     1      -5.407  11.409  18.942  0.00  0.00    +0.000 C 
BRANCH  27  28
ATOM     28  O   UNL     1      -6.517  10.664  18.422  0.00  0.00    +0.000 OA
ATOM     29  H   UNL     1      -6.965  10.245  19.177  0.00  0.00    +0.000 HD
ENDBRANCH  27  28
BRANCH  27  30
ATOM     30  C   UNL     1      -5.912  12.738  19.501  0.00  0.00    +0.000 C 
BRANCH  30  31
ATOM     31  O   UNL     1      -4.841  13.379  20.203  0.00  0.00    +0.000 OA
BRANCH  31  32
ATOM     32  C   UNL     1      -4.825  13.162  21.551  0.00  0.00    +0.000 A 
ATOM     33  C   UNL     1      -3.609  12.727  22.084  0.00  0.00    +0.000 A 
ATOM     34  C   UNL     1      -3.496  12.463  23.450  0.00  0.00    +0.000 A 
ATOM     35  C   UNL     1      -4.597  12.665  24.275  0.00  0.00    +0.000 A 
ATOM     36  C   UNL     1      -5.802  13.121  23.761  0.00  0.00    +0.000 A 
ATOM     37  C   UNL     1      -5.916  13.374  22.396  0.00  0.00    +0.000 A 
BRANCH  35  38
ATOM     38  O   UNL     1      -4.543  12.422  25.614  0.00  0.00    +0.000 OA
ATOM     39  H   UNL     1      -3.749  11.891  25.792  0.00  0.00    +0.000 HD
ENDBRANCH  35  38
ENDBRANCH  31  32
ENDBRANCH  30  31
ENDBRANCH  27  30
ENDBRANCH  26  27
ENDBRANCH  24  26
ENDBRANCH  23  24
ENDBRANCH  22  23
ENDBRANCH   4  22
TORSDOF 13
ENDMDL
MODEL 9
REMARK VINA RESULT:      -8.0      5.388      9.644
REMARK  Name = 
REMARK  13 active torsions:
REMARK  status: ('A' for Active; 'I' for Inactive)
REMARK    1  A    between atoms: C_2  and  C_3
REMARK    2  A    between atoms: C_3  and  C_4
REMARK    3  A    between atoms: N_14  and  C_15
REMARK    4  A    between atoms: C_18  and  C_19
REMARK    5  A    between atoms: C_19  and  C_20
REMARK    6  A    between atoms: C_20  and  N_21
REMARK    7  A    between atoms: N_21  and  C_22
REMARK    8  A    between atoms: C_22  and  C_23
REMARK    9  A    between atoms: C_23  and  O_24
REMARK   10  A    between atoms: C_23  and  C_25
REMARK   11  A    between atoms: C_25  and  O_26
REMARK   12  A    between atoms: O_26  and  C_27
REMARK   13  A    between atoms: C_30  and  O_31
REMARK                            x       y       z     vdW  Elec       q    Type
REMARK                         _______ _______ _______ _____ _____    ______ ____
ROOT
ATOM      1  C   UNL     1       1.353   8.947  19.150  0.00  0.00    +0.000 A 
ATOM      2  C   UNL     1       2.177   8.507  18.110  0.00  0.00    +0.000 A 
ATOM      3  C   UNL     1       2.971   7.372  18.248  0.00  0.00    +0.000 A 
ATOM      4  C   UNL     1       2.978   6.652  19.443  0.00  0.00    +0.000 A 
ATOM      5  C   UNL     1       2.111   7.055  20.469  0.00  0.00    +0.000 A 
ATOM      6  C   UNL     1       1.304   8.188  20.325  0.00  0.00    +0.000 A 
ENDROOT
BRANCH   1   9
ATOM      7  O   UNL     1      -0.976   9.498  17.494  0.00  0.00    +0.000 OA
ATOM      8  C   UNL     1      -0.468  10.356  18.214  0.00  0.00    +0.000 C 
ATOM      9  N   UNL     1       0.606  10.144  19.073  0.00  0.00    +0.000 N 
ATOM     10  H   UNL     1       0.814  10.861  19.761  0.00  0.00    +0.000 HD
BRANCH   8  11
ATOM     11  C   UNL     1      -1.038  11.770  18.210  0.00  0.00    +0.000 C 
BRANCH  11  12
ATOM     12  C   UNL     1      -2.465  11.918  18.691  0.00  0.00    +0.000 A 
ATOM     13  C   UNL     1      -3.563  11.619  17.879  0.00  0.00    +0.000 A 
ATOM     14  C   UNL     1      -4.867  11.789  18.362  0.00  0.00    +0.000 A 
ATOM     15  C   UNL     1      -5.105  12.266  19.656  0.00  0.00    +0.000 A 
ATOM     16  C   UNL     1      -6.408  12.412  20.162  0.00  0.00    +0.000 A 
ATOM     17  C   UNL     1      -6.619  12.877  21.459  0.00  0.00    +0.000 A 
ATOM     18  C   UNL     1      -5.536  13.219  22.268  0.00  0.00    +0.000 A 
ATOM     19  C   UNL     1      -4.238  13.092  21.774  0.00  0.00    +0.000 A 
ATOM     20  C   UNL     1      -3.998  12.615  20.475  0.00  0.00    +0.000 A 
ATOM     21  C   UNL     1      -2.701  12.455  19.970  0.00  0.00    +0.000 A 
ENDBRANCH  11  12
ENDBRANCH   8  11
ENDBRANCH   1   9
BRANCH   4  22
ATOM     22  C   UNL     1       3.896   5.465  19.603  0.00  0.00    +0.000 C 
BRANCH  22  23
ATOM     23  C   UNL     1       5.356   5.834  19.292  0.00  0.00    +0.000 C 
BRANCH  23  24
ATOM     24  N   UNL     1       6.090   4.680  18.788  0.00  0.00    +0.000 NA
ATOM     25  H   UNL     1       5.442   4.007  18.365  0.00  0.00    +0.000 HD
BRANCH  24  26
ATOM     26  C   UNL     1       7.078   5.088  17.787  0.00  0.00    +0.000 C 
BRANCH  26  27
ATOM     27  C   UNL     1       6.707   4.492  16.416  0.00  0.00    +0.000 C 
BRANCH  27  28
ATOM     28  O   UNL     1       7.180   5.335  15.356  0.00  0.00    +0.000 OA
ATOM     29  H   UNL     1       6.723   5.062  14.542  0.00  0.00    +0.000 HD
ENDBRANCH  27  28
BRANCH  27  30
ATOM     30  C   UNL     1       5.191   4.343  16.300  0.00  0.00    +0.000 C 
BRANCH  30  31
ATOM     31  O   UNL     1       4.832   3.002  16.651  0.00  0.00    +0.000 OA
BRANCH  31  32
ATOM     32  C   UNL     1       3.672   2.884  17.362  0.00  0.00    +0.000 A 
ATOM     33  C   UNL     1       2.656   3.781  17.025  0.00  0.00    +0.000 A 
ATOM     34  C   UNL     1       1.438   3.750  17.705  0.00  0.00    +0.000 A 
ATOM     35  C   UNL     1       1.240   2.800  18.701  0.00  0.00    +0.000 A 
ATOM     36  C   UNL     1       2.232   1.887  19.026  0.00  0.00    +0.000 A 
ATOM     37  C   UNL     1       3.451   1.926  18.353  0.00  0.00    +0.000 A 
BRANCH  35  38
ATOM     38  O   UNL     1       0.072   2.726  19.397  0.00  0.00    +0.000 OA
ATOM     39  H   UNL     1      -0.641   3.059  18.827  0.00  0.00    +0.000 HD
ENDBRANCH  35  38
ENDBRANCH  31  32
ENDBRANCH  30  31
ENDBRANCH  27  30
ENDBRANCH  26  27
ENDBRANCH  24  26
ENDBRANCH  23  24
ENDBRANCH  22  23
ENDBRANCH   4  22
TORSDOF 13
ENDMDL
