MODEL 1
REMARK VINA RESULT:      -7.3      0.000      0.000
REMARK  Name = 
REMARK  5 active torsions:
REMARK  status: ('A' for Active; 'I' for Inactive)
REMARK    1  A    between atoms: C_1  and  C_2
REMARK    2  A    between atoms: C_4  and  C_5
REMARK    3  A    between atoms: C_4  and  C_6
REMARK    4  A    between atoms: C_8  and  S_9
REMARK    5  A    between atoms: N_10  and  C_11
REMARK                            x       y       z     vdW  Elec       q    Type
REMARK                         _______ _______ _______ _____ _____    ______ ____
ROOT
ATOM      1  C   UNL     1       4.200   1.745  17.933  0.00  0.00    +0.000 C 
ATOM      2  C   UNL     1       3.449   2.827  18.669  0.00  0.00    +0.000 C 
ATOM      3  C   UNL     1       2.403   2.437  19.418  0.00  0.00    +0.000 C 
ATOM      4  C   UNL     1       1.583   3.397  20.232  0.00  0.00    +0.000 C 
ATOM      5  C   UNL     1       0.091   3.093  20.027  0.00  0.00    +0.000 C 
ATOM      6  C   UNL     1       1.951   3.221  21.713  0.00  0.00    +0.000 C 
ATOM      7  N   UNL     1       1.766   4.797  19.829  0.00  0.00    +0.000 NA
ATOM      8  C   UNL     1       2.760   5.083  19.052  0.00  0.00    +0.000 C 
ATOM      9  N   UNL     1       3.760   4.208  18.585  0.00  0.00    +0.000 N 
ENDROOT
BRANCH   9  10
ATOM     10  C   UNL     1       5.092   4.685  18.230  0.00  0.00    +0.000 A 
ATOM     11  C   UNL     1       5.965   5.096  19.261  0.00  0.00    +0.000 A 
ATOM     12  C   UNL     1       7.216   5.652  19.004  0.00  0.00    +0.000 A 
ATOM     13  C   UNL     1       7.688   5.704  17.704  0.00  0.00    +0.000 A 
ATOM     14  C   UNL     1       6.919   5.211  16.649  0.00  0.00    +0.000 A 
ATOM     15  C   UNL     1       7.499   5.179  15.369  0.00  0.00    +0.000 A 
ATOM     16  C   UNL     1       6.800   4.685  14.275  0.00  0.00    +0.000 A 
ATOM     17  C   UNL     1       5.482   4.297  14.435  0.00  0.00    +0.000 A 
ATOM     18  C   UNL     1       4.876   4.379  15.695  0.00  0.00    +0.000 A 
ATOM     19  C   UNL     1       5.591   4.748  16.868  0.00  0.00    +0.000 A 
ENDBRANCH   9  10
BRANCH   8  20
ATOM     20  S   UNL     1       2.664   6.751  18.456  0.00  0.00    +0.000 S 
ATOM     21  H   UNL     1       1.770   7.122  19.383  0.00  0.00    +0.000 HD
ENDBRANCH   8  20
TORSDOF 2
ENDMDL
MODEL 2
REMARK VINA RESULT:      -6.5      1.634      2.259
REMARK  Name = 
REMARK  5 active torsions:
REMARK  status: ('A' for Active; 'I' for Inactive)
REMARK    1  A    between atoms: C_1  and  C_2
REMARK    2  A    between atoms: C_4  and  C_5
REMARK    3  A    between atoms: C_4  and  C_6
REMARK    4  A    between atoms: C_8  and  S_9
REMARK    5  A    between atoms: N_10  and  C_11
REMARK                            x       y       z     vdW  Elec       q    Type
REMARK                         _______ _______ _______ _____ _____    ______ ____
ROOT
ATOM      1  C   UNL     1       2.967   6.739  19.274  0.00  0.00    +0.000 C 
ATOM      2  C   UNL     1       2.916   5.234  19.370  0.00  0.00    +0.000 C 
ATOM      3  C   UNL     1       1.702   4.678  19.537  0.00  0.00    +0.000 C 
ATOM      4  C   UNL     1       1.493   3.193  19.616  0.00  0.00    +0.000 C 
ATOM      5  C   UNL     1       0.540   2.874  20.778  0.00  0.00    +0.000 C 
ATOM      6  C   UNL     1       0.876   2.715  18.293  0.00  0.00    +0.000 C 
ATOM      7  N   UNL     1       2.729   2.450  19.895  0.00  0.00    +0.000 NA
ATOM      8  C   UNL     1       3.855   3.074  19.775  0.00  0.00    +0.000 C 
ATOM      9  N   UNL     1       4.058   4.395  19.332  0.00  0.00    +0.000 N 
ENDROOT
BRANCH   9  10
ATOM     10  C   UNL     1       5.303   4.807  18.694  0.00  0.00    +0.000 A 
ATOM     11  C   UNL     1       6.328   5.358  19.494  0.00  0.00    +0.000 A 
ATOM     12  C   UNL     1       7.508   5.863  18.954  0.00  0.00    +0.000 A 
ATOM     13  C   UNL     1       7.756   5.724  17.600  0.00  0.00    +0.000 A 
ATOM     14  C   UNL     1       6.832   5.088  16.770  0.00  0.00    +0.000 A 
ATOM     15  C   UNL     1       7.191   4.868  15.429  0.00  0.00    +0.000 A 
ATOM     16  C   UNL     1       6.329   4.225  14.550  0.00  0.00    +0.000 A 
ATOM     17  C   UNL     1       5.063   3.871  14.983  0.00  0.00    +0.000 A 
ATOM     18  C   UNL     1       4.674   4.139  16.302  0.00  0.00    +0.000 A 
ATOM     19  C   UNL     1       5.567   4.669  17.273  0.00  0.00    +0.000 A 
ENDBRANCH   9  10
BRANCH   8  20
ATOM     20  S   UNL     1       5.204   2.112  20.410  0.00  0.00    +0.000 S 
ATOM     21  H   UNL     1       5.512   3.011  21.355  0.00  0.00    +0.000 HD
ENDBRANCH   8  20
TORSDOF 2
ENDMDL
MODEL 3
REMARK VINA RESULT:      -6.2      2.109      5.687
REMARK  Name = 
REMARK  5 active torsions:
REMARK  status: ('A' for Active; 'I' for Inactive)
REMARK    1  A    between atoms: C_1  and  C_2
REMARK    2  A    between atoms: C_4  and  C_5
REMARK    3  A    between atoms: C_4  and  C_6
REMARK    4  A    between atoms: C_8  and  S_9
REMARK    5  A    between atoms: N_10  and  C_11
REMARK                            x       y       z     vdW  Elec       q    Type
REMARK                         _______ _______ _______ _____ _____    ______ ____
ROOT
ATOM      1  C   UNL     1       3.103   2.783  16.651  0.00  0.00    +0.000 C 
ATOM      2  C   UNL     1       4.181   3.831  16.780  0.00  0.00    +0.000 C 
ATOM      3  C   UNL     1       4.820   4.185  15.651  0.00  0.00    +0.000 C 
ATOM      4  C   UNL     1       5.891   5.237  15.619  0.00  0.00    +0.000 C 
ATOM      5  C   UNL     1       7.075   4.734  14.780  0.00  0.00    +0.000 C 
ATOM      6  C   UNL     1       5.308   6.509  14.985  0.00  0.00    +0.000 C 
ATOM      7  N   UNL     1       6.440   5.541  16.947  0.00  0.00    +0.000 NA
ATOM      8  C   UNL     1       5.801   5.110  17.985  0.00  0.00    +0.000 C 
ATOM      9  N   UNL     1       4.571   4.424  18.007  0.00  0.00    +0.000 N 
ENDROOT
BRANCH   9  10
ATOM     10  C   UNL     1       3.675   4.492  19.157  0.00  0.00    +0.000 A 
ATOM     11  C   UNL     1       3.595   3.380  20.024  0.00  0.00    +0.000 A 
ATOM     12  C   UNL     1       2.698   3.325  21.087  0.00  0.00    +0.000 A 
ATOM     13  C   UNL     1       1.930   4.435  21.394  0.00  0.00    +0.000 A 
ATOM     14  C   UNL     1       2.044   5.606  20.644  0.00  0.00    +0.000 A 
ATOM     15  C   UNL     1       1.331   6.738  21.076  0.00  0.00    +0.000 A 
ATOM     16  C   UNL     1       1.409   7.943  20.389  0.00  0.00    +0.000 A 
ATOM     17  C   UNL     1       2.136   8.004  19.213  0.00  0.00    +0.000 A 
ATOM     18  C   UNL     1       2.803   6.865  18.742  0.00  0.00    +0.000 A 
ATOM     19  C   UNL     1       2.864   5.651  19.480  0.00  0.00    +0.000 A 
ENDBRANCH   9  10
BRANCH   8  20
ATOM     20  S   UNL     1       6.743   5.330  19.471  0.00  0.00    +0.000 S 
ATOM     21  H   UNL     1       7.848   4.774  18.955  0.00  0.00    +0.000 HD
ENDBRANCH   8  20
TORSDOF 2
ENDMDL
MODEL 4
REMARK VINA RESULT:      -5.8      8.552     10.467
REMARK  Name = 
REMARK  5 active torsions:
REMARK  status: ('A' for Active; 'I' for Inactive)
REMARK    1  A    between atoms: C_1  and  C_2
REMARK    2  A    between atoms: C_4  and  C_5
REMARK    3  A    between atoms: C_4  and  C_6
REMARK    4  A    between atoms: C_8  and  S_9
REMARK    5  A    between atoms: N_10  and  C_11
REMARK                            x       y       z     vdW  Elec       q    Type
REMARK                         _______ _______ _______ _____ _____    ______ ____
ROOT
ATOM      1  C   UNL     1       0.552  14.392  20.010  0.00  0.00    +0.000 C 
ATOM      2  C   UNL     1      -0.310  13.743  21.065  0.00  0.00    +0.000 C 
ATOM      3  C   UNL     1      -0.907  14.562  21.949  0.00  0.00    +0.000 C 
ATOM      4  C   UNL     1      -1.818  14.062  23.032  0.00  0.00    +0.000 C 
ATOM      5  C   UNL     1      -1.464  14.757  24.356  0.00  0.00    +0.000 C 
ATOM      6  C   UNL     1      -3.268  14.392  22.644  0.00  0.00    +0.000 C 
ATOM      7  N   UNL     1      -1.679  12.622  23.285  0.00  0.00    +0.000 NA
ATOM      8  C   UNL     1      -1.032  11.911  22.419  0.00  0.00    +0.000 C 
ATOM      9  N   UNL     1      -0.488  12.342  21.194  0.00  0.00    +0.000 N 
ENDROOT
BRANCH   9  10
ATOM     10  C   UNL     1      -0.312  11.430  20.070  0.00  0.00    +0.000 A 
ATOM     11  C   UNL     1       0.903  10.719  19.955  0.00  0.00    +0.000 A 
ATOM     12  C   UNL     1       1.191   9.902  18.864  0.00  0.00    +0.000 A 
ATOM     13  C   UNL     1       0.219   9.672  17.906  0.00  0.00    +0.000 A 
ATOM     14  C   UNL     1      -1.043  10.257  18.019  0.00  0.00    +0.000 A 
ATOM     15  C   UNL     1      -2.025   9.890  17.084  0.00  0.00    +0.000 A 
ATOM     16  C   UNL     1      -3.310  10.418  17.145  0.00  0.00    +0.000 A 
ATOM     17  C   UNL     1      -3.598  11.382  18.094  0.00  0.00    +0.000 A 
ATOM     18  C   UNL     1      -2.609  11.797  18.995  0.00  0.00    +0.000 A 
ATOM     19  C   UNL     1      -1.324  11.189  19.058  0.00  0.00    +0.000 A 
ENDBRANCH   9  10
BRANCH   8  20
ATOM     20  S   UNL     1      -0.731  10.269  23.018  0.00  0.00    +0.000 S 
ATOM     21  H   UNL     1      -1.426  10.461  24.147  0.00  0.00    +0.000 HD
ENDBRANCH   8  20
TORSDOF 2
ENDMDL
MODEL 5
REMARK VINA RESULT:      -5.6      8.037      9.477
REMARK  Name = 
REMARK  5 active torsions:
REMARK  status: ('A' for Active; 'I' for Inactive)
REMARK    1  A    between atoms: C_1  and  C_2
REMARK    2  A    between atoms: C_4  and  C_5
REMARK    3  A    between atoms: C_4  and  C_6
REMARK    4  A    between atoms: C_8  and  S_9
REMARK    5  A    between atoms: N_10  and  C_11
REMARK                            x       y       z     vdW  Elec       q    Type
REMARK                         _______ _______ _______ _____ _____    ______ ____
ROOT
ATOM      1  C   UNL     1       0.190   9.676  22.663  0.00  0.00    +0.000 C 
ATOM      2  C   UNL     1      -0.728  10.812  22.281  0.00  0.00    +0.000 C 
ATOM      3  C   UNL     1      -1.416  11.397  23.278  0.00  0.00    +0.000 C 
ATOM      4  C   UNL     1      -2.340  12.558  23.054  0.00  0.00    +0.000 C 
ATOM      5  C   UNL     1      -3.650  12.322  23.822  0.00  0.00    +0.000 C 
ATOM      6  C   UNL     1      -1.658  13.834  23.572  0.00  0.00    +0.000 C 
ATOM      7  N   UNL     1      -2.725  12.727  21.647  0.00  0.00    +0.000 NA
ATOM      8  C   UNL     1      -2.056  12.078  20.751  0.00  0.00    +0.000 C 
ATOM      9  N   UNL     1      -0.928  11.260  20.951  0.00  0.00    +0.000 N 
ENDROOT
BRANCH   9  10
ATOM     10  C   UNL     1       0.069  11.057  19.905  0.00  0.00    +0.000 A 
ATOM     11  C   UNL     1       0.065   9.840  19.189  0.00  0.00    +0.000 A 
ATOM     12  C   UNL     1       1.038   9.527  18.242  0.00  0.00    +0.000 A 
ATOM     13  C   UNL     1       1.982  10.476  17.891  0.00  0.00    +0.000 A 
ATOM     14  C   UNL     1       1.972  11.740  18.482  0.00  0.00    +0.000 A 
ATOM     15  C   UNL     1       2.877  12.700  17.998  0.00  0.00    +0.000 A 
ATOM     16  C   UNL     1       2.912  13.986  18.526  0.00  0.00    +0.000 A 
ATOM     17  C   UNL     1       2.099  14.296  19.601  0.00  0.00    +0.000 A 
ATOM     18  C   UNL     1       1.234  13.328  20.128  0.00  0.00    +0.000 A 
ATOM     19  C   UNL     1       1.066  12.046  19.536  0.00  0.00    +0.000 A 
ENDBRANCH   9  10
BRANCH   8  20
ATOM     20  S   UNL     1      -2.826  12.187  19.156  0.00  0.00    +0.000 S 
ATOM     21  H   UNL     1      -3.385  13.377  19.412  0.00  0.00    +0.000 HD
ENDBRANCH   8  20
TORSDOF 2
ENDMDL
MODEL 6
REMARK VINA RESULT:      -5.6      0.671      2.483
REMARK  Name = 
REMARK  5 active torsions:
REMARK  status: ('A' for Active; 'I' for Inactive)
REMARK    1  A    between atoms: C_1  and  C_2
REMARK    2  A    between atoms: C_4  and  C_5
REMARK    3  A    between atoms: C_4  and  C_6
REMARK    4  A    between atoms: C_8  and  S_9
REMARK    5  A    between atoms: N_10  and  C_11
REMARK                            x       y       z     vdW  Elec       q    Type
REMARK                         _______ _______ _______ _____ _____    ______ ____
ROOT
ATOM      1  C   UNL     1       3.718   1.462  17.437  0.00  0.00    +0.000 C 
ATOM      2  C   UNL     1       3.181   2.591  18.283  0.00  0.00    +0.000 C 
ATOM      3  C   UNL     1       2.408   2.250  19.330  0.00  0.00    +0.000 C 
ATOM      4  C   UNL     1       1.832   3.263  20.277  0.00  0.00    +0.000 C 
ATOM      5  C   UNL     1       0.354   2.933  20.538  0.00  0.00    +0.000 C 
ATOM      6  C   UNL     1       2.619   3.202  21.595  0.00  0.00    +0.000 C 
ATOM      7  N   UNL     1       1.850   4.630  19.741  0.00  0.00    +0.000 NA
ATOM      8  C   UNL     1       2.567   4.864  18.691  0.00  0.00    +0.000 C 
ATOM      9  N   UNL     1       3.414   3.964  18.016  0.00  0.00    +0.000 N 
ENDROOT
BRANCH   9  10
ATOM     10  C   UNL     1       4.571   4.422  17.255  0.00  0.00    +0.000 A 
ATOM     11  C   UNL     1       4.524   4.366  15.845  0.00  0.00    +0.000 A 
ATOM     12  C   UNL     1       5.617   4.694  15.047  0.00  0.00    +0.000 A 
ATOM     13  C   UNL     1       6.762   5.207  15.631  0.00  0.00    +0.000 A 
ATOM     14  C   UNL     1       6.832   5.393  17.013  0.00  0.00    +0.000 A 
ATOM     15  C   UNL     1       7.971   6.030  17.535  0.00  0.00    +0.000 A 
ATOM     16  C   UNL     1       8.102   6.266  18.898  0.00  0.00    +0.000 A 
ATOM     17  C   UNL     1       7.132   5.788  19.762  0.00  0.00    +0.000 A 
ATOM     18  C   UNL     1       6.021   5.100  19.256  0.00  0.00    +0.000 A 
ATOM     19  C   UNL     1       5.776   4.956  17.862  0.00  0.00    +0.000 A 
ENDBRANCH   9  10
BRANCH   8  20
ATOM     20  S   UNL     1       2.253   6.481  18.033  0.00  0.00    +0.000 S 
ATOM     21  H   UNL     1       1.769   6.951  19.191  0.00  0.00    +0.000 HD
ENDBRANCH   8  20
TORSDOF 2
ENDMDL
MODEL 7
REMARK VINA RESULT:      -5.5      1.672      3.264
REMARK  Name = 
REMARK  5 active torsions:
REMARK  status: ('A' for Active; 'I' for Inactive)
REMARK    1  A    between atoms: C_1  and  C_2
REMARK    2  A    between atoms: C_4  and  C_5
REMARK    3  A    between atoms: C_4  and  C_6
REMARK    4  A    between atoms: C_8  and  S_9
REMARK    5  A    between atoms: N_10  and  C_11
REMARK                            x       y       z     vdW  Elec       q    Type
REMARK                         _______ _______ _______ _____ _____    ______ ____
ROOT
ATOM      1  C   UNL     1       2.725   6.450  19.557  0.00  0.00    +0.000 C 
ATOM      2  C   UNL     1       2.629   4.947  19.641  0.00  0.00    +0.000 C 
ATOM      3  C   UNL     1       1.587   4.444  20.326  0.00  0.00    +0.000 C 
ATOM      4  C   UNL     1       1.343   2.969  20.466  0.00  0.00    +0.000 C 
ATOM      5  C   UNL     1       0.994   2.647  21.928  0.00  0.00    +0.000 C 
ATOM      6  C   UNL     1       0.170   2.578  19.554  0.00  0.00    +0.000 C 
ATOM      7  N   UNL     1       2.523   2.156  20.147  0.00  0.00    +0.000 NA
ATOM      8  C   UNL     1       3.513   2.729  19.544  0.00  0.00    +0.000 C 
ATOM      9  N   UNL     1       3.578   4.057  19.079  0.00  0.00    +0.000 N 
ENDROOT
BRANCH   9  10
ATOM     10  C   UNL     1       4.428   4.435  17.955  0.00  0.00    +0.000 A 
ATOM     11  C   UNL     1       3.988   4.153  16.643  0.00  0.00    +0.000 A 
ATOM     12  C   UNL     1       4.778   4.394  15.522  0.00  0.00    +0.000 A 
ATOM     13  C   UNL     1       5.993   5.041  15.667  0.00  0.00    +0.000 A 
ATOM     14  C   UNL     1       6.436   5.448  16.926  0.00  0.00    +0.000 A 
ATOM     15  C   UNL     1       7.616   6.208  16.996  0.00  0.00    +0.000 A 
ATOM     16  C   UNL     1       8.107   6.663  18.213  0.00  0.00    +0.000 A 
ATOM     17  C   UNL     1       7.467   6.290  19.382  0.00  0.00    +0.000 A 
ATOM     18  C   UNL     1       6.322   5.484  19.327  0.00  0.00    +0.000 A 
ATOM     19  C   UNL     1       5.706   5.109  18.100  0.00  0.00    +0.000 A 
ENDBRANCH   9  10
BRANCH   8  20
ATOM     20  S   UNL     1       4.941   1.678  19.488  0.00  0.00    +0.000 S 
ATOM     21  H   UNL     1       5.493   2.338  18.461  0.00  0.00    +0.000 HD
ENDBRANCH   8  20
TORSDOF 2
ENDMDL
MODEL 8
REMARK VINA RESULT:      -5.5      9.268     11.195
REMARK  Name = 
REMARK  5 active torsions:
REMARK  status: ('A' for Active; 'I' for Inactive)
REMARK    1  A    between atoms: C_1  and  C_2
REMARK    2  A    between atoms: C_4  and  C_5
REMARK    3  A    between atoms: C_4  and  C_6
REMARK    4  A    between atoms: C_8  and  S_9
REMARK    5  A    between atoms: N_10  and  C_11
REMARK                            x       y       z     vdW  Elec       q    Type
REMARK                         _______ _______ _______ _____ _____    ______ ____
ROOT
ATOM      1  C   UNL     1      -4.454  12.370  19.996  0.00  0.00    +0.000 C 
ATOM      2  C   UNL     1      -3.858  12.888  21.282  0.00  0.00    +0.000 C 
ATOM      3  C   UNL     1      -4.721  13.240  22.252  0.00  0.00    +0.000 C 
ATOM      4  C   UNL     1      -4.273  13.740  23.595  0.00  0.00    +0.000 C 
ATOM      5  C   UNL     1      -5.106  14.972  23.983  0.00  0.00    +0.000 C 
ATOM      6  C   UNL     1      -4.487  12.624  24.629  0.00  0.00    +0.000 C 
ATOM      7  N   UNL     1      -2.873  14.182  23.609  0.00  0.00    +0.000 NA
ATOM      8  C   UNL     1      -2.122  13.858  22.607  0.00  0.00    +0.000 C 
ATOM      9  N   UNL     1      -2.468  13.055  21.504  0.00  0.00    +0.000 N 
ENDROOT
BRANCH   9  10
ATOM     10  C   UNL     1      -1.467  12.290  20.767  0.00  0.00    +0.000 A 
ATOM     11  C   UNL     1      -1.140  12.687  19.452  0.00  0.00    +0.000 A 
ATOM     12  C   UNL     1      -0.267  11.959  18.647  0.00  0.00    +0.000 A 
ATOM     13  C   UNL     1       0.405  10.870  19.175  0.00  0.00    +0.000 A 
ATOM     14  C   UNL     1       0.211  10.492  20.505  0.00  0.00    +0.000 A 
ATOM     15  C   UNL     1       1.010   9.457  21.019  0.00  0.00    +0.000 A 
ATOM     16  C   UNL     1       0.885   9.040  22.339  0.00  0.00    +0.000 A 
ATOM     17  C   UNL     1      -0.101   9.598  23.132  0.00  0.00    +0.000 A 
ATOM     18  C   UNL     1      -0.942  10.591  22.612  0.00  0.00    +0.000 A 
ATOM     19  C   UNL     1      -0.763  11.145  21.314  0.00  0.00    +0.000 A 
ENDBRANCH   9  10
BRANCH   8  20
ATOM     20  S   UNL     1      -0.561  14.699  22.664  0.00  0.00    +0.000 S 
ATOM     21  H   UNL     1      -0.406  14.681  21.333  0.00  0.00    +0.000 HD
ENDBRANCH   8  20
TORSDOF 2
ENDMDL
MODEL 9
REMARK VINA RESULT:      -5.5     10.375     11.901
REMARK  Name = 
REMARK  5 active torsions:
REMARK  status: ('A' for Active; 'I' for Inactive)
REMARK    1  A    between atoms: C_1  and  C_2
REMARK    2  A    between atoms: C_4  and  C_5
REMARK    3  A    between atoms: C_4  and  C_6
REMARK    4  A    between atoms: C_8  and  S_9
REMARK    5  A    between atoms: N_10  and  C_11
REMARK                            x       y       z     vdW  Elec       q    Type
REMARK                         _______ _______ _______ _____ _____    ______ ____
ROOT
ATOM      1  C   UNL     1      11.134  16.091  21.567  0.00  0.00    +0.000 C 
ATOM      2  C   UNL     1      10.055  15.440  22.398  0.00  0.00    +0.000 C 
ATOM      3  C   UNL     1       9.832  15.960  23.618  0.00  0.00    +0.000 C 
ATOM      4  C   UNL     1       8.771  15.437  24.542  0.00  0.00    +0.000 C 
ATOM      5  C   UNL     1       9.351  15.299  25.959  0.00  0.00    +0.000 C 
ATOM      6  C   UNL     1       7.600  16.432  24.555  0.00  0.00    +0.000 C 
ATOM      7  N   UNL     1       8.292  14.099  24.173  0.00  0.00    +0.000 NA
ATOM      8  C   UNL     1       8.603  13.641  23.004  0.00  0.00    +0.000 C 
ATOM      9  N   UNL     1       9.306  14.310  21.983  0.00  0.00    +0.000 N 
ENDROOT
BRANCH   9  10
ATOM     10  C   UNL     1       9.113  13.980  20.575  0.00  0.00    +0.000 A 
ATOM     11  C   UNL     1       8.030  14.564  19.882  0.00  0.00    +0.000 A 
ATOM     12  C   UNL     1       7.718  14.231  18.566  0.00  0.00    +0.000 A 
ATOM     13  C   UNL     1       8.556  13.388  17.856  0.00  0.00    +0.000 A 
ATOM     14  C   UNL     1       9.705  12.865  18.449  0.00  0.00    +0.000 A 
ATOM     15  C   UNL     1      10.579  12.115  17.643  0.00  0.00    +0.000 A 
ATOM     16  C   UNL     1      11.752  11.578  18.161  0.00  0.00    +0.000 A 
ATOM     17  C   UNL     1      12.019  11.715  19.512  0.00  0.00    +0.000 A 
ATOM     18  C   UNL     1      11.124  12.411  20.336  0.00  0.00    +0.000 A 
ATOM     19  C   UNL     1       9.984  13.093  19.827  0.00  0.00    +0.000 A 
ENDBRANCH   9  10
BRANCH   8  20
ATOM     20  S   UNL     1       8.179  11.927  22.840  0.00  0.00    +0.000 S 
ATOM     21  H   UNL     1       7.821  11.804  24.125  0.00  0.00    +0.000 HD
ENDBRANCH   8  20
TORSDOF 2
ENDMDL
