MODEL 1
REMARK VINA RESULT:      -7.2      0.000      0.000
REMARK  Name = 
REMARK  6 active torsions:
REMARK  status: ('A' for Active; 'I' for Inactive)
REMARK    1  A    between atoms: C_1  and  C_2
REMARK    2  A    between atoms: C_2  and  C_3
REMARK    3  A    between atoms: C_6  and  N_7
REMARK    4  A    between atoms: N_15  and  C_16
REMARK    5  A    between atoms: C_16  and  C_17
REMARK    6  A    between atoms: C_20  and  C_21
REMARK                            x       y       z     vdW  Elec       q    Type
REMARK                         _______ _______ _______ _____ _____    ______ ____
ROOT
ATOM      1  N   UNL     1       7.631  15.881  19.715  0.00  0.00    +0.000 N 
ATOM      2  C   UNL     1       7.500  17.211  19.233  0.00  0.00    +0.000 C 
ATOM      3  O   UNL     1       6.474  17.888  19.332  0.00  0.00    +0.000 OA
ATOM      4  C   UNL     1       8.705  17.697  18.486  0.00  0.00    +0.000 C 
ATOM      5  S   UNL     1       9.582  16.212  17.904  0.00  0.00    +0.000 S 
ATOM      6  C   UNL     1       8.994  15.177  19.238  0.00  0.00    +0.000 C 
ATOM      7  C   UNL     1       8.356  13.797  19.124  0.00  0.00    +0.000 C 
ATOM      8  O   UNL     1       8.233  13.128  18.108  0.00  0.00    +0.000 OA
ATOM      9  N   UNL     1       8.439  13.239  20.487  0.00  0.00    +0.000 N 
ATOM     10  C   UNL     1       9.818  13.156  20.451  0.00  0.00    +0.000 A 
ATOM     11  C   UNL     1      10.432  11.912  20.427  0.00  0.00    +0.000 A 
ATOM     12  C   UNL     1      11.720  11.884  19.966  0.00  0.00    +0.000 A 
ATOM     13  C   UNL     1      12.333  13.098  19.597  0.00  0.00    +0.000 A 
ATOM     14  C   UNL     1      11.632  14.349  19.576  0.00  0.00    +0.000 A 
ATOM     15  C   UNL     1      10.290  14.408  19.954  0.00  0.00    +0.000 A 
ENDROOT
BRANCH   1  19
ATOM     16  C   UNL     1       3.506  15.121  18.866  0.00  0.00    +0.000 A 
ATOM     17  C   UNL     1       3.990  14.882  20.158  0.00  0.00    +0.000 A 
ATOM     18  C   UNL     1       5.378  14.893  20.429  0.00  0.00    +0.000 A 
ATOM     19  C   UNL     1       6.305  15.154  19.403  0.00  0.00    +0.000 A 
ATOM     20  C   UNL     1       5.814  15.082  18.092  0.00  0.00    +0.000 A 
ATOM     21  C   UNL     1       4.437  15.167  17.829  0.00  0.00    +0.000 A 
BRANCH  16  23
ATOM     22  C   UNL     1       1.174  14.097  18.781  0.00  0.00    +0.000 C 
ATOM     23  C   UNL     1       2.038  15.340  18.584  0.00  0.00    +0.000 C 
ENDBRANCH  16  23
ENDBRANCH   1  19
BRANCH   9  24
ATOM     24  C   UNL     1       8.233  14.029  21.817  0.00  0.00    +0.000 C 
BRANCH  24  25
ATOM     25  C   UNL     1       7.913  13.121  22.971  0.00  0.00    +0.000 A 
ATOM     26  C   UNL     1       6.762  12.323  22.934  0.00  0.00    +0.000 A 
ATOM     27  C   UNL     1       6.319  11.686  24.086  0.00  0.00    +0.000 A 
ATOM     28  C   UNL     1       7.042  11.816  25.275  0.00  0.00    +0.000 A 
ATOM     29  C   UNL     1       6.460  11.343  26.570  0.00  0.00    +0.000 C 
ATOM     30  C   UNL     1       8.261  12.501  25.267  0.00  0.00    +0.000 A 
ATOM     31  C   UNL     1       8.708  13.137  24.115  0.00  0.00    +0.000 A 
ENDBRANCH  24  25
ENDBRANCH   9  24
TORSDOF 4
ENDMDL
MODEL 2
REMARK VINA RESULT:      -7.0      8.901     12.747
REMARK  Name = 
REMARK  6 active torsions:
REMARK  status: ('A' for Active; 'I' for Inactive)
REMARK    1  A    between atoms: C_1  and  C_2
REMARK    2  A    between atoms: C_2  and  C_3
REMARK    3  A    between atoms: C_6  and  N_7
REMARK    4  A    between atoms: N_15  and  C_16
REMARK    5  A    between atoms: C_16  and  C_17
REMARK    6  A    between atoms: C_20  and  C_21
REMARK                            x       y       z     vdW  Elec       q    Type
REMARK                         _______ _______ _______ _____ _____    ______ ____
ROOT
ATOM      1  N   UNL     1      -1.858  13.491  22.240  0.00  0.00    +0.000 N 
ATOM      2  C   UNL     1      -0.665  14.107  22.705  0.00  0.00    +0.000 C 
ATOM      3  O   UNL     1       0.468  13.804  22.323  0.00  0.00    +0.000 OA
ATOM      4  C   UNL     1      -0.895  15.107  23.797  0.00  0.00    +0.000 C 
ATOM      5  S   UNL     1      -2.486  14.671  24.566  0.00  0.00    +0.000 S 
ATOM      6  C   UNL     1      -3.154  13.929  23.082  0.00  0.00    +0.000 C 
ATOM      7  C   UNL     1      -3.820  12.564  22.952  0.00  0.00    +0.000 C 
ATOM      8  O   UNL     1      -4.099  11.794  23.859  0.00  0.00    +0.000 OA
ATOM      9  N   UNL     1      -4.530  12.622  21.659  0.00  0.00    +0.000 N 
ATOM     10  C   UNL     1      -5.425  13.575  22.108  0.00  0.00    +0.000 A 
ATOM     11  C   UNL     1      -6.761  13.238  22.274  0.00  0.00    +0.000 A 
ATOM     12  C   UNL     1      -7.489  14.050  23.101  0.00  0.00    +0.000 A 
ATOM     13  C   UNL     1      -6.856  15.169  23.679  0.00  0.00    +0.000 A 
ATOM     14  C   UNL     1      -5.455  15.434  23.530  0.00  0.00    +0.000 A 
ATOM     15  C   UNL     1      -4.657  14.581  22.766  0.00  0.00    +0.000 A 
ENDROOT
BRANCH   1  19
ATOM     16  C   UNL     1       0.199   9.744  22.035  0.00  0.00    +0.000 A 
ATOM     17  C   UNL     1      -0.264  10.332  20.852  0.00  0.00    +0.000 A 
ATOM     18  C   UNL     1      -1.143  11.439  20.884  0.00  0.00    +0.000 A 
ATOM     19  C   UNL     1      -1.566  11.980  22.111  0.00  0.00    +0.000 A 
ATOM     20  C   UNL     1      -1.338  11.192  23.248  0.00  0.00    +0.000 A 
ATOM     21  C   UNL     1      -0.392  10.154  23.230  0.00  0.00    +0.000 A 
BRANCH  16  23
ATOM     22  C   UNL     1       1.526   8.026  20.700  0.00  0.00    +0.000 C 
ATOM     23  C   UNL     1       1.305   8.715  22.044  0.00  0.00    +0.000 C 
ENDBRANCH  16  23
ENDBRANCH   1  19
BRANCH   9  24
ATOM     24  C   UNL     1      -4.009  13.308  20.357  0.00  0.00    +0.000 C 
BRANCH  24  25
ATOM     25  C   UNL     1      -3.981  12.359  19.191  0.00  0.00    +0.000 A 
ATOM     26  C   UNL     1      -2.757  11.992  18.618  0.00  0.00    +0.000 A 
ATOM     27  C   UNL     1      -2.729  11.335  17.395  0.00  0.00    +0.000 A 
ATOM     28  C   UNL     1      -3.927  11.012  16.751  0.00  0.00    +0.000 A 
ATOM     29  C   UNL     1      -3.918  10.527  15.335  0.00  0.00    +0.000 C 
ATOM     30  C   UNL     1      -5.142  11.260  17.396  0.00  0.00    +0.000 A 
ATOM     31  C   UNL     1      -5.173  11.914  18.622  0.00  0.00    +0.000 A 
ENDBRANCH  24  25
ENDBRANCH   9  24
TORSDOF 4
ENDMDL
MODEL 3
REMARK VINA RESULT:      -6.5      7.540     11.252
REMARK  Name = 
REMARK  6 active torsions:
REMARK  status: ('A' for Active; 'I' for Inactive)
REMARK    1  A    between atoms: C_1  and  C_2
REMARK    2  A    between atoms: C_2  and  C_3
REMARK    3  A    between atoms: C_6  and  N_7
REMARK    4  A    between atoms: N_15  and  C_16
REMARK    5  A    between atoms: C_16  and  C_17
REMARK    6  A    between atoms: C_20  and  C_21
REMARK                            x       y       z     vdW  Elec       q    Type
REMARK                         _______ _______ _______ _____ _____    ______ ____
ROOT
ATOM      1  N   UNL     1      -0.564  13.657  20.091  0.00  0.00    +0.000 N 
ATOM      2  C   UNL     1       0.529  14.277  19.428  0.00  0.00    +0.000 C 
ATOM      3  O   UNL     1       0.958  13.934  18.324  0.00  0.00    +0.000 OA
ATOM      4  C   UNL     1       1.198  15.340  20.247  0.00  0.00    +0.000 C 
ATOM      5  S   UNL     1       0.805  14.974  21.986  0.00  0.00    +0.000 S 
ATOM      6  C   UNL     1      -0.743  14.163  21.605  0.00  0.00    +0.000 C 
ATOM      7  C   UNL     1      -1.221  12.805  22.106  0.00  0.00    +0.000 C 
ATOM      8  O   UNL     1      -0.669  12.090  22.929  0.00  0.00    +0.000 OA
ATOM      9  N   UNL     1      -2.673  12.804  21.839  0.00  0.00    +0.000 N 
ATOM     10  C   UNL     1      -2.921  13.795  22.770  0.00  0.00    +0.000 A 
ATOM     11  C   UNL     1      -3.624  13.491  23.927  0.00  0.00    +0.000 A 
ATOM     12  C   UNL     1      -3.468  14.360  24.973  0.00  0.00    +0.000 A 
ATOM     13  C   UNL     1      -2.656  15.498  24.793  0.00  0.00    +0.000 A 
ATOM     14  C   UNL     1      -1.896  15.730  23.599  0.00  0.00    +0.000 A 
ATOM     15  C   UNL     1      -1.957  14.823  22.540  0.00  0.00    +0.000 A 
ENDROOT
BRANCH   1  19
ATOM     16  C   UNL     1       0.586   9.874  18.453  0.00  0.00    +0.000 A 
ATOM     17  C   UNL     1      -0.688  10.381  18.168  0.00  0.00    +0.000 A 
ATOM     18  C   UNL     1      -1.200  11.500  18.864  0.00  0.00    +0.000 A 
ATOM     19  C   UNL     1      -0.432  12.137  19.856  0.00  0.00    +0.000 A 
ATOM     20  C   UNL     1       0.686  11.431  20.323  0.00  0.00    +0.000 A 
ATOM     21  C   UNL     1       1.242  10.380  19.575  0.00  0.00    +0.000 A 
BRANCH  16  23
ATOM     22  C   UNL     1       2.455   8.155  18.235  0.00  0.00    +0.000 C 
ATOM     23  C   UNL     1       1.252   8.832  17.585  0.00  0.00    +0.000 C 
ENDBRANCH  16  23
ENDBRANCH   1  19
BRANCH   9  24
ATOM     24  C   UNL     1      -3.376  13.408  20.583  0.00  0.00    +0.000 C 
BRANCH  24  25
ATOM     25  C   UNL     1      -4.561  12.591  20.151  0.00  0.00    +0.000 A 
ATOM     26  C   UNL     1      -5.650  12.427  21.016  0.00  0.00    +0.000 A 
ATOM     27  C   UNL     1      -6.622  11.474  20.741  0.00  0.00    +0.000 A 
ATOM     28  C   UNL     1      -6.529  10.701  19.580  0.00  0.00    +0.000 A 
ATOM     29  C   UNL     1      -7.422   9.516  19.386  0.00  0.00    +0.000 C 
ATOM     30  C   UNL     1      -5.514  10.968  18.656  0.00  0.00    +0.000 A 
ATOM     31  C   UNL     1      -4.543  11.924  18.927  0.00  0.00    +0.000 A 
ENDBRANCH  24  25
ENDBRANCH   9  24
TORSDOF 4
ENDMDL
MODEL 4
REMARK VINA RESULT:      -6.5      6.195     10.093
REMARK  Name = 
REMARK  6 active torsions:
REMARK  status: ('A' for Active; 'I' for Inactive)
REMARK    1  A    between atoms: C_1  and  C_2
REMARK    2  A    between atoms: C_2  and  C_3
REMARK    3  A    between atoms: C_6  and  N_7
REMARK    4  A    between atoms: N_15  and  C_16
REMARK    5  A    between atoms: C_16  and  C_17
REMARK    6  A    between atoms: C_20  and  C_21
REMARK                            x       y       z     vdW  Elec       q    Type
REMARK                         _______ _______ _______ _____ _____    ______ ____
ROOT
ATOM      1  N   UNL     1      -1.091  15.317  20.080  0.00  0.00    +0.000 N 
ATOM      2  C   UNL     1      -1.177  16.592  19.459  0.00  0.00    +0.000 C 
ATOM      3  O   UNL     1      -0.451  16.965  18.534  0.00  0.00    +0.000 OA
ATOM      4  C   UNL     1      -2.177  17.503  20.102  0.00  0.00    +0.000 C 
ATOM      5  S   UNL     1      -2.405  16.898  21.804  0.00  0.00    +0.000 S 
ATOM      6  C   UNL     1      -2.002  15.203  21.398  0.00  0.00    +0.000 C 
ATOM      7  C   UNL     1      -1.017  14.291  22.119  0.00  0.00    +0.000 C 
ATOM      8  O   UNL     1      -0.414  14.534  23.154  0.00  0.00    +0.000 OA
ATOM      9  N   UNL     1      -1.364  12.934  21.654  0.00  0.00    +0.000 N 
ATOM     10  C   UNL     1      -2.591  12.947  22.291  0.00  0.00    +0.000 A 
ATOM     11  C   UNL     1      -2.813  12.107  23.372  0.00  0.00    +0.000 A 
ATOM     12  C   UNL     1      -3.841  12.457  24.206  0.00  0.00    +0.000 A 
ATOM     13  C   UNL     1      -4.610  13.595  23.891  0.00  0.00    +0.000 A 
ATOM     14  C   UNL     1      -4.296  14.468  22.798  0.00  0.00    +0.000 A 
ATOM     15  C   UNL     1      -3.202  14.197  21.974  0.00  0.00    +0.000 A 
ENDROOT
BRANCH   1  19
ATOM     16  C   UNL     1       3.151  15.319  19.514  0.00  0.00    +0.000 A 
ATOM     17  C   UNL     1       2.390  14.283  18.956  0.00  0.00    +0.000 A 
ATOM     18  C   UNL     1       1.031  14.109  19.306  0.00  0.00    +0.000 A 
ATOM     19  C   UNL     1       0.409  14.981  20.218  0.00  0.00    +0.000 A 
ATOM     20  C   UNL     1       1.263  15.796  20.975  0.00  0.00    +0.000 A 
ATOM     21  C   UNL     1       2.585  16.037  20.567  0.00  0.00    +0.000 A 
BRANCH  16  23
ATOM     22  C   UNL     1       5.083  14.687  17.976  0.00  0.00    +0.000 C 
ATOM     23  C   UNL     1       4.527  15.672  19.001  0.00  0.00    +0.000 C 
ENDBRANCH  16  23
ENDBRANCH   1  19
BRANCH   9  24
ATOM     24  C   UNL     1      -1.795  12.542  20.206  0.00  0.00    +0.000 C 
BRANCH  24  25
ATOM     25  C   UNL     1      -1.019  11.367  19.682  0.00  0.00    +0.000 A 
ATOM     26  C   UNL     1      -0.008  10.793  20.464  0.00  0.00    +0.000 A 
ATOM     27  C   UNL     1       0.882   9.889  19.898  0.00  0.00    +0.000 A 
ATOM     28  C   UNL     1       0.747   9.528  18.555  0.00  0.00    +0.000 A 
ATOM     29  C   UNL     1       1.826   8.752  17.867  0.00  0.00    +0.000 C 
ATOM     30  C   UNL     1      -0.347  10.001  17.822  0.00  0.00    +0.000 A 
ATOM     31  C   UNL     1      -1.240  10.902  18.387  0.00  0.00    +0.000 A 
ENDBRANCH  24  25
ENDBRANCH   9  24
TORSDOF 4
ENDMDL
MODEL 5
REMARK VINA RESULT:      -6.4      1.034      1.225
REMARK  Name = 
REMARK  6 active torsions:
REMARK  status: ('A' for Active; 'I' for Inactive)
REMARK    1  A    between atoms: C_1  and  C_2
REMARK    2  A    between atoms: C_2  and  C_3
REMARK    3  A    between atoms: C_6  and  N_7
REMARK    4  A    between atoms: N_15  and  C_16
REMARK    5  A    between atoms: C_16  and  C_17
REMARK    6  A    between atoms: C_20  and  C_21
REMARK                            x       y       z     vdW  Elec       q    Type
REMARK                         _______ _______ _______ _____ _____    ______ ____
ROOT
ATOM      1  N   UNL     1       8.367  16.272  19.797  0.00  0.00    +0.000 N 
ATOM      2  C   UNL     1       8.424  17.602  19.299  0.00  0.00    +0.000 C 
ATOM      3  O   UNL     1       7.590  18.475  19.554  0.00  0.00    +0.000 OA
ATOM      4  C   UNL     1       9.549  17.832  18.337  0.00  0.00    +0.000 C 
ATOM      5  S   UNL     1       9.990  16.201  17.661  0.00  0.00    +0.000 S 
ATOM      6  C   UNL     1       9.453  15.305  19.113  0.00  0.00    +0.000 C 
ATOM      7  C   UNL     1       8.540  14.085  19.160  0.00  0.00    +0.000 C 
ATOM      8  O   UNL     1       8.105  13.457  18.205  0.00  0.00    +0.000 OA
ATOM      9  N   UNL     1       8.750  13.519  20.506  0.00  0.00    +0.000 N 
ATOM     10  C   UNL     1      10.055  13.155  20.231  0.00  0.00    +0.000 A 
ATOM     11  C   UNL     1      10.390  11.812  20.143  0.00  0.00    +0.000 A 
ATOM     12  C   UNL     1      11.544  11.522  19.465  0.00  0.00    +0.000 A 
ATOM     13  C   UNL     1      12.313  12.586  18.952  0.00  0.00    +0.000 A 
ATOM     14  C   UNL     1      11.887  13.953  19.011  0.00  0.00    +0.000 A 
ATOM     15  C   UNL     1      10.674  14.285  19.617  0.00  0.00    +0.000 A 
ENDROOT
BRANCH   1  19
ATOM     16  C   UNL     1       4.090  16.376  19.687  0.00  0.00    +0.000 A 
ATOM     17  C   UNL     1       4.733  16.059  20.891  0.00  0.00    +0.000 A 
ATOM     18  C   UNL     1       6.120  15.785  20.925  0.00  0.00    +0.000 A 
ATOM     19  C   UNL     1       6.888  15.833  19.748  0.00  0.00    +0.000 A 
ATOM     20  C   UNL     1       6.173  15.846  18.542  0.00  0.00    +0.000 A 
ATOM     21  C   UNL     1       4.817  16.212  18.508  0.00  0.00    +0.000 A 
BRANCH  16  23
ATOM     22  C   UNL     1       1.613  15.829  19.930  0.00  0.00    +0.000 C 
ATOM     23  C   UNL     1       2.671  16.891  19.644  0.00  0.00    +0.000 C 
ENDBRANCH  16  23
ENDBRANCH   1  19
BRANCH   9  24
ATOM     24  C   UNL     1       8.949  14.332  21.823  0.00  0.00    +0.000 C 
BRANCH  24  25
ATOM     25  C   UNL     1       8.249  13.696  22.992  0.00  0.00    +0.000 A 
ATOM     26  C   UNL     1       7.770  14.494  24.039  0.00  0.00    +0.000 A 
ATOM     27  C   UNL     1       7.363  13.909  25.231  0.00  0.00    +0.000 A 
ATOM     28  C   UNL     1       7.400  12.519  25.372  0.00  0.00    +0.000 A 
ATOM     29  C   UNL     1       7.198  11.889  26.714  0.00  0.00    +0.000 C 
ATOM     30  C   UNL     1       7.749  11.726  24.274  0.00  0.00    +0.000 A 
ATOM     31  C   UNL     1       8.154  12.308  23.080  0.00  0.00    +0.000 A 
ENDBRANCH  24  25
ENDBRANCH   9  24
TORSDOF 4
ENDMDL
MODEL 6
REMARK VINA RESULT:      -6.3      5.432      9.047
REMARK  Name = 
REMARK  6 active torsions:
REMARK  status: ('A' for Active; 'I' for Inactive)
REMARK    1  A    between atoms: C_1  and  C_2
REMARK    2  A    between atoms: C_2  and  C_3
REMARK    3  A    between atoms: C_6  and  N_7
REMARK    4  A    between atoms: N_15  and  C_16
REMARK    5  A    between atoms: C_16  and  C_17
REMARK    6  A    between atoms: C_20  and  C_21
REMARK                            x       y       z     vdW  Elec       q    Type
REMARK                         _______ _______ _______ _____ _____    ______ ____
ROOT
ATOM      1  N   UNL     1       0.262  14.841  19.494  0.00  0.00    +0.000 N 
ATOM      2  C   UNL     1       0.053  16.054  18.783  0.00  0.00    +0.000 C 
ATOM      3  O   UNL     1       0.828  16.506  17.936  0.00  0.00    +0.000 OA
ATOM      4  C   UNL     1      -1.163  16.807  19.231  0.00  0.00    +0.000 C 
ATOM      5  S   UNL     1      -1.518  16.248  20.926  0.00  0.00    +0.000 S 
ATOM      6  C   UNL     1      -0.790  14.631  20.690  0.00  0.00    +0.000 C 
ATOM      7  C   UNL     1       0.223  13.935  21.590  0.00  0.00    +0.000 C 
ATOM      8  O   UNL     1       0.630  14.324  22.675  0.00  0.00    +0.000 OA
ATOM      9  N   UNL     1       0.173  12.519  21.176  0.00  0.00    +0.000 N 
ATOM     10  C   UNL     1      -1.115  12.349  21.648  0.00  0.00    +0.000 A 
ATOM     11  C   UNL     1      -1.342  11.532  22.746  0.00  0.00    +0.000 A 
ATOM     12  C   UNL     1      -2.518  11.736  23.416  0.00  0.00    +0.000 A 
ATOM     13  C   UNL     1      -3.414  12.709  22.930  0.00  0.00    +0.000 A 
ATOM     14  C   UNL     1      -3.101  13.575  21.831  0.00  0.00    +0.000 A 
ATOM     15  C   UNL     1      -1.875  13.460  21.174  0.00  0.00    +0.000 A 
ENDROOT
BRANCH   1  19
ATOM     16  C   UNL     1       4.490  15.500  19.433  0.00  0.00    +0.000 A 
ATOM     17  C   UNL     1       3.979  14.304  18.912  0.00  0.00    +0.000 A 
ATOM     18  C   UNL     1       2.629  13.938  19.117  0.00  0.00    +0.000 A 
ATOM     19  C   UNL     1       1.764  14.776  19.844  0.00  0.00    +0.000 A 
ATOM     20  C   UNL     1       2.372  15.789  20.599  0.00  0.00    +0.000 A 
ATOM     21  C   UNL     1       3.684  16.208  20.323  0.00  0.00    +0.000 A 
BRANCH  16  23
ATOM     22  C   UNL     1       6.584  15.174  18.017  0.00  0.00    +0.000 C 
ATOM     23  C   UNL     1       5.852  16.029  19.048  0.00  0.00    +0.000 C 
ENDBRANCH  16  23
ENDBRANCH   1  19
BRANCH   9  24
ATOM     24  C   UNL     1       0.014  11.996  19.714  0.00  0.00    +0.000 C 
BRANCH  24  25
ATOM     25  C   UNL     1       0.851  10.774  19.456  0.00  0.00    +0.000 A 
ATOM     26  C   UNL     1       1.512  10.624  18.231  0.00  0.00    +0.000 A 
ATOM     27  C   UNL     1       2.065   9.399  17.882  0.00  0.00    +0.000 A 
ATOM     28  C   UNL     1       1.990   8.324  18.772  0.00  0.00    +0.000 A 
ATOM     29  C   UNL     1       2.361   6.944  18.325  0.00  0.00    +0.000 C 
ATOM     30  C   UNL     1       1.450   8.522  20.046  0.00  0.00    +0.000 A 
ATOM     31  C   UNL     1       0.899   9.748  20.399  0.00  0.00    +0.000 A 
ENDBRANCH  24  25
ENDBRANCH   9  24
TORSDOF 4
ENDMDL
MODEL 7
REMARK VINA RESULT:      -6.3      7.685     11.206
REMARK  Name = 
REMARK  6 active torsions:
REMARK  status: ('A' for Active; 'I' for Inactive)
REMARK    1  A    between atoms: C_1  and  C_2
REMARK    2  A    between atoms: C_2  and  C_3
REMARK    3  A    between atoms: C_6  and  N_7
REMARK    4  A    between atoms: N_15  and  C_16
REMARK    5  A    between atoms: C_16  and  C_17
REMARK    6  A    between atoms: C_20  and  C_21
REMARK                            x       y       z     vdW  Elec       q    Type
REMARK                         _______ _______ _______ _____ _____    ______ ____
ROOT
ATOM      1  N   UNL     1      -0.753  14.243  20.448  0.00  0.00    +0.000 N 
ATOM      2  C   UNL     1       0.267  14.804  19.633  0.00  0.00    +0.000 C 
ATOM      3  O   UNL     1       0.530  14.424  18.490  0.00  0.00    +0.000 OA
ATOM      4  C   UNL     1       1.083  15.849  20.332  0.00  0.00    +0.000 C 
ATOM      5  S   UNL     1       0.909  15.529  22.116  0.00  0.00    +0.000 S 
ATOM      6  C   UNL     1      -0.708  14.781  21.961  0.00  0.00    +0.000 C 
ATOM      7  C   UNL     1      -1.171  13.454  22.551  0.00  0.00    +0.000 C 
ATOM      8  O   UNL     1      -0.544  12.729  23.310  0.00  0.00    +0.000 OA
ATOM      9  N   UNL     1      -2.643  13.512  22.479  0.00  0.00    +0.000 N 
ATOM     10  C   UNL     1      -2.724  14.528  23.412  0.00  0.00    +0.000 A 
ATOM     11  C   UNL     1      -3.279  14.274  24.658  0.00  0.00    +0.000 A 
ATOM     12  C   UNL     1      -2.949  15.152  25.655  0.00  0.00    +0.000 A 
ATOM     13  C   UNL     1      -2.123  16.250  25.344  0.00  0.00    +0.000 A 
ATOM     14  C   UNL     1      -1.519  16.429  24.055  0.00  0.00    +0.000 A 
ATOM     15  C   UNL     1      -1.758  15.509  23.034  0.00  0.00    +0.000 A 
ENDROOT
BRANCH   1  19
ATOM     16  C   UNL     1      -0.003  10.388  18.748  0.00  0.00    +0.000 A 
ATOM     17  C   UNL     1      -1.285  10.942  18.640  0.00  0.00    +0.000 A 
ATOM     18  C   UNL     1      -1.645  12.094  19.377  0.00  0.00    +0.000 A 
ATOM     19  C   UNL     1      -0.716  12.715  20.232  0.00  0.00    +0.000 A 
ATOM     20  C   UNL     1       0.429  11.971  20.547  0.00  0.00    +0.000 A 
ATOM     21  C   UNL     1       0.829  10.885  19.750  0.00  0.00    +0.000 A 
BRANCH  16  23
ATOM     22  C   UNL     1       1.975   8.996  17.947  0.00  0.00    +0.000 C 
ATOM     23  C   UNL     1       0.486   9.304  17.816  0.00  0.00    +0.000 C 
ENDBRANCH  16  23
ENDBRANCH   1  19
BRANCH   9  24
ATOM     24  C   UNL     1      -3.482  14.125  21.313  0.00  0.00    +0.000 C 
BRANCH  24  25
ATOM     25  C   UNL     1      -4.784  13.401  21.111  0.00  0.00    +0.000 A 
ATOM     26  C   UNL     1      -5.616  13.141  22.207  0.00  0.00    +0.000 A 
ATOM     27  C   UNL     1      -6.679  12.256  22.081  0.00  0.00    +0.000 A 
ATOM     28  C   UNL     1      -6.937  11.651  20.847  0.00  0.00    +0.000 A 
ATOM     29  C   UNL     1      -7.916  10.523  20.748  0.00  0.00    +0.000 C 
ATOM     30  C   UNL     1      -6.185  12.023  19.728  0.00  0.00    +0.000 A 
ATOM     31  C   UNL     1      -5.123  12.911  19.852  0.00  0.00    +0.000 A 
ENDBRANCH  24  25
ENDBRANCH   9  24
TORSDOF 4
ENDMDL
MODEL 8
REMARK VINA RESULT:      -6.2      8.059     10.737
REMARK  Name = 
REMARK  6 active torsions:
REMARK  status: ('A' for Active; 'I' for Inactive)
REMARK    1  A    between atoms: C_1  and  C_2
REMARK    2  A    between atoms: C_2  and  C_3
REMARK    3  A    between atoms: C_6  and  N_7
REMARK    4  A    between atoms: N_15  and  C_16
REMARK    5  A    between atoms: C_16  and  C_17
REMARK    6  A    between atoms: C_20  and  C_21
REMARK                            x       y       z     vdW  Elec       q    Type
REMARK                         _______ _______ _______ _____ _____    ______ ____
ROOT
ATOM      1  N   UNL     1      -3.632  14.672  23.139  0.00  0.00    +0.000 N 
ATOM      2  C   UNL     1      -4.780  15.115  23.850  0.00  0.00    +0.000 C 
ATOM      3  O   UNL     1      -5.872  14.541  23.833  0.00  0.00    +0.000 OA
ATOM      4  C   UNL     1      -4.579  16.421  24.557  0.00  0.00    +0.000 C 
ATOM      5  S   UNL     1      -3.208  17.261  23.705  0.00  0.00    +0.000 S 
ATOM      6  C   UNL     1      -2.433  15.741  23.167  0.00  0.00    +0.000 C 
ATOM      7  C   UNL     1      -1.960  15.393  21.760  0.00  0.00    +0.000 C 
ATOM      8  O   UNL     1      -1.941  16.134  20.788  0.00  0.00    +0.000 OA
ATOM      9  N   UNL     1      -1.058  14.241  21.949  0.00  0.00    +0.000 N 
ATOM     10  C   UNL     1      -0.114  14.993  22.621  0.00  0.00    +0.000 A 
ATOM     11  C   UNL     1       1.116  15.241  22.030  0.00  0.00    +0.000 A 
ATOM     12  C   UNL     1       1.818  16.309  22.520  0.00  0.00    +0.000 A 
ATOM     13  C   UNL     1       1.273  17.040  23.595  0.00  0.00    +0.000 A 
ATOM     14  C   UNL     1      -0.035  16.785  24.126  0.00  0.00    +0.000 A 
ATOM     15  C   UNL     1      -0.820  15.760  23.596  0.00  0.00    +0.000 A 
ENDROOT
BRANCH   1  19
ATOM     16  C   UNL     1      -6.119  13.183  19.990  0.00  0.00    +0.000 A 
ATOM     17  C   UNL     1      -5.218  12.312  20.617  0.00  0.00    +0.000 A 
ATOM     18  C   UNL     1      -4.221  12.801  21.492  0.00  0.00    +0.000 A 
ATOM     19  C   UNL     1      -4.117  14.179  21.759  0.00  0.00    +0.000 A 
ATOM     20  C   UNL     1      -4.817  15.032  20.895  0.00  0.00    +0.000 A 
ATOM     21  C   UNL     1      -5.870  14.551  20.099  0.00  0.00    +0.000 A 
BRANCH  16  23
ATOM     22  C   UNL     1      -6.998  11.730  18.091  0.00  0.00    +0.000 C 
ATOM     23  C   UNL     1      -7.328  12.684  19.235  0.00  0.00    +0.000 C 
ENDBRANCH  16  23
ENDBRANCH   1  19
BRANCH   9  24
ATOM     24  C   UNL     1      -1.265  13.069  22.960  0.00  0.00    +0.000 C 
BRANCH  24  25
ATOM     25  C   UNL     1      -0.852  11.744  22.382  0.00  0.00    +0.000 A 
ATOM     26  C   UNL     1      -1.029  10.571  23.127  0.00  0.00    +0.000 A 
ATOM     27  C   UNL     1      -0.421   9.390  22.722  0.00  0.00    +0.000 A 
ATOM     28  C   UNL     1       0.342   9.366  21.550  0.00  0.00    +0.000 A 
ATOM     29  C   UNL     1       1.195   8.180  21.227  0.00  0.00    +0.000 C 
ATOM     30  C   UNL     1       0.398  10.507  20.743  0.00  0.00    +0.000 A 
ATOM     31  C   UNL     1      -0.213  11.689  21.145  0.00  0.00    +0.000 A 
ENDBRANCH  24  25
ENDBRANCH   9  24
TORSDOF 4
ENDMDL
MODEL 9
REMARK VINA RESULT:      -6.2      9.179     11.821
REMARK  Name = 
REMARK  6 active torsions:
REMARK  status: ('A' for Active; 'I' for Inactive)
REMARK    1  A    between atoms: C_1  and  C_2
REMARK    2  A    between atoms: C_2  and  C_3
REMARK    3  A    between atoms: C_6  and  N_7
REMARK    4  A    between atoms: N_15  and  C_16
REMARK    5  A    between atoms: C_16  and  C_17
REMARK    6  A    between atoms: C_20  and  C_21
REMARK                            x       y       z     vdW  Elec       q    Type
REMARK                         _______ _______ _______ _____ _____    ______ ____
ROOT
ATOM      1  N   UNL     1      -4.960  13.007  22.379  0.00  0.00    +0.000 N 
ATOM      2  C   UNL     1      -6.368  12.860  22.508  0.00  0.00    +0.000 C 
ATOM      3  O   UNL     1      -7.057  12.121  21.801  0.00  0.00    +0.000 OA
ATOM      4  C   UNL     1      -6.972  13.774  23.531  0.00  0.00    +0.000 C 
ATOM      5  S   UNL     1      -5.815  15.165  23.726  0.00  0.00    +0.000 S 
ATOM      6  C   UNL     1      -4.375  14.205  23.275  0.00  0.00    +0.000 C 
ATOM      7  C   UNL     1      -3.302  14.573  22.257  0.00  0.00    +0.000 C 
ATOM      8  O   UNL     1      -3.195  15.631  21.654  0.00  0.00    +0.000 OA
ATOM      9  N   UNL     1      -2.176  13.670  22.566  0.00  0.00    +0.000 N 
ATOM     10  C   UNL     1      -1.932  14.269  23.787  0.00  0.00    +0.000 A 
ATOM     11  C   UNL     1      -0.766  14.997  23.975  0.00  0.00    +0.000 A 
ATOM     12  C   UNL     1      -0.777  15.897  25.007  0.00  0.00    +0.000 A 
ATOM     13  C   UNL     1      -1.929  15.988  25.813  0.00  0.00    +0.000 A 
ATOM     14  C   UNL     1      -3.133  15.261  25.534  0.00  0.00    +0.000 A 
ATOM     15  C   UNL     1      -3.195  14.398  24.439  0.00  0.00    +0.000 A 
ENDROOT
BRANCH   1  19
ATOM     16  C   UNL     1      -4.993  12.085  18.200  0.00  0.00    +0.000 A 
ATOM     17  C   UNL     1      -3.935  11.621  18.991  0.00  0.00    +0.000 A 
ATOM     18  C   UNL     1      -3.755  12.089  20.314  0.00  0.00    +0.000 A 
ATOM     19  C   UNL     1      -4.645  13.027  20.867  0.00  0.00    +0.000 A 
ATOM     20  C   UNL     1      -5.490  13.688  19.964  0.00  0.00    +0.000 A 
ATOM     21  C   UNL     1      -5.734  13.162  18.685  0.00  0.00    +0.000 A 
BRANCH  16  23
ATOM     22  C   UNL     1      -4.145  10.935  16.090  0.00  0.00    +0.000 C 
ATOM     23  C   UNL     1      -5.348  11.448  16.876  0.00  0.00    +0.000 C 
ENDBRANCH  16  23
ENDBRANCH   1  19
BRANCH   9  24
ATOM     24  C   UNL     1      -2.290  12.174  22.997  0.00  0.00    +0.000 C 
BRANCH  24  25
ATOM     25  C   UNL     1      -1.114  11.361  22.534  0.00  0.00    +0.000 A 
ATOM     26  C   UNL     1      -0.421  11.730  21.374  0.00  0.00    +0.000 A 
ATOM     27  C   UNL     1       0.488  10.854  20.795  0.00  0.00    +0.000 A 
ATOM     28  C   UNL     1       0.735   9.615  21.393  0.00  0.00    +0.000 A 
ATOM     29  C   UNL     1       1.519   8.568  20.666  0.00  0.00    +0.000 C 
ATOM     30  C   UNL     1       0.142   9.314  22.623  0.00  0.00    +0.000 A 
ATOM     31  C   UNL     1      -0.765  10.190  23.205  0.00  0.00    +0.000 A 
ENDBRANCH  24  25
ENDBRANCH   9  24
TORSDOF 4
ENDMDL
