MODEL 1
REMARK VINA RESULT:      -7.8      0.000      0.000
REMARK  Name = 
REMARK  11 active torsions:
REMARK  status: ('A' for Active; 'I' for Inactive)
REMARK    1  A    between atoms: C_1  and  O_2
REMARK    2  A    between atoms: O_2  and  C_3
REMARK    3  A    between atoms: C_6  and  C_7
REMARK    4  A    between atoms: N_8  and  N_9
REMARK    5  A    between atoms: N_12  and  C_13
REMARK    6  A    between atoms: C_16  and  O_17
REMARK    7  A    between atoms: O_17  and  C_18
REMARK    8  A    between atoms: C_29  and  O_30
REMARK    9  A    between atoms: O_30  and  C_31
REMARK   10  A    between atoms: C_32  and  O_33
REMARK   11  A    between atoms: O_33  and  C_34
REMARK                            x       y       z     vdW  Elec       q    Type
REMARK                         _______ _______ _______ _____ _____    ______ ____
ROOT
ATOM      1  N   UNL     1       1.311   9.798  18.025  0.00  0.00    +0.000 N 
ATOM      2  C   UNL     1       0.290  10.267  18.850  0.00  0.00    +0.000 C 
ATOM      3  O   UNL     1       0.052   9.752  19.943  0.00  0.00    +0.000 OA
ATOM      4  N   UNL     1      -0.428  11.323  18.304  0.00  0.00    +0.000 N 
ATOM      5  H   UNL     1       1.624  10.286  17.198  0.00  0.00    +0.000 HD
ATOM      6  H   UNL     1      -0.347  11.465  17.309  0.00  0.00    +0.000 HD
ENDROOT
BRANCH   4   7
ATOM      7  C   UNL     1      -1.479  12.005  18.970  0.00  0.00    +0.000 A 
ATOM      8  C   UNL     1      -2.830  11.688  18.788  0.00  0.00    +0.000 A 
ATOM      9  C   UNL     1      -3.839  12.401  19.443  0.00  0.00    +0.000 A 
ATOM     10  C   UNL     1      -3.512  13.437  20.313  0.00  0.00    +0.000 A 
ATOM     11  C   UNL     1      -2.169  13.784  20.486  0.00  0.00    +0.000 A 
ATOM     12  C   UNL     1      -1.158  13.050  19.844  0.00  0.00    +0.000 A 
BRANCH  10  13
ATOM     13  O   UNL     1      -4.577  14.091  20.888  0.00  0.00    +0.000 OA
BRANCH  13  14
ATOM     14  C   UNL     1      -5.479  13.384  21.651  0.00  0.00    +0.000 A 
ATOM     15  C   UNL     1      -6.772  13.060  21.227  0.00  0.00    +0.000 A 
ATOM     16  C   UNL     1      -7.590  12.316  22.065  0.00  0.00    +0.000 A 
ATOM     17  N   UNL     1      -7.275  11.897  23.310  0.00  0.00    +0.000 NA
ATOM     18  C   UNL     1      -6.053  12.300  23.701  0.00  0.00    +0.000 A 
ATOM     19  N   UNL     1      -5.514  12.042  24.931  0.00  0.00    +0.000 N 
ATOM     20  C   UNL     1      -4.265  12.601  25.020  0.00  0.00    +0.000 A 
ATOM     21  C   UNL     1      -3.997  13.219  23.815  0.00  0.00    +0.000 A 
ATOM     22  C   UNL     1      -5.125  13.028  22.966  0.00  0.00    +0.000 A 
ATOM     23  H   UNL     1      -5.994  11.521  25.651  0.00  0.00    +0.000 HD
ENDBRANCH  13  14
ENDBRANCH  10  13
ENDBRANCH   4   7
BRANCH   1  25
ATOM     24  C   UNL     1       2.440   7.812  17.720  0.00  0.00    +0.000 C 
ATOM     25  N   UNL     1       2.030   8.747  18.511  0.00  0.00    +0.000 NA
BRANCH  24  29
ATOM     26  C   UNL     1       4.378   4.351  19.343  0.00  0.00    +0.000 A 
ATOM     27  C   UNL     1       3.167   4.818  19.868  0.00  0.00    +0.000 A 
ATOM     28  C   UNL     1       2.558   5.949  19.339  0.00  0.00    +0.000 A 
ATOM     29  C   UNL     1       3.179   6.663  18.311  0.00  0.00    +0.000 A 
ATOM     30  C   UNL     1       4.439   6.268  17.818  0.00  0.00    +0.000 A 
ATOM     31  C   UNL     1       5.051   5.095  18.342  0.00  0.00    +0.000 A 
BRANCH  26  33
ATOM     32  C   UNL     1       4.162   2.010  19.705  0.00  0.00    +0.000 C 
ATOM     33  O   UNL     1       4.940   3.200  19.833  0.00  0.00    +0.000 OA
ENDBRANCH  26  33
BRANCH  30  34
ATOM     34  O   UNL     1       4.921   7.093  16.828  0.00  0.00    +0.000 OA
ATOM     35  C   UNL     1       5.072   6.604  15.504  0.00  0.00    +0.000 C 
ENDBRANCH  30  34
BRANCH  31  36
ATOM     36  O   UNL     1       6.285   4.785  17.829  0.00  0.00    +0.000 OA
ATOM     37  C   UNL     1       7.468   5.396  18.318  0.00  0.00    +0.000 C 
ENDBRANCH  31  36
ENDBRANCH  24  29
ENDBRANCH   1  25
TORSDOF 8
ENDMDL
MODEL 2
REMARK VINA RESULT:      -7.7      1.338      2.183
REMARK  Name = 
REMARK  11 active torsions:
REMARK  status: ('A' for Active; 'I' for Inactive)
REMARK    1  A    between atoms: C_1  and  O_2
REMARK    2  A    between atoms: O_2  and  C_3
REMARK    3  A    between atoms: C_6  and  C_7
REMARK    4  A    between atoms: N_8  and  N_9
REMARK    5  A    between atoms: N_12  and  C_13
REMARK    6  A    between atoms: C_16  and  O_17
REMARK    7  A    between atoms: O_17  and  C_18
REMARK    8  A    between atoms: C_29  and  O_30
REMARK    9  A    between atoms: O_30  and  C_31
REMARK   10  A    between atoms: C_32  and  O_33
REMARK   11  A    between atoms: O_33  and  C_34
REMARK                            x       y       z     vdW  Elec       q    Type
REMARK                         _______ _______ _______ _____ _____    ______ ____
ROOT
ATOM      1  N   UNL     1       1.840   9.701  17.657  0.00  0.00    +0.000 N 
ATOM      2  C   UNL     1       0.884  10.128  18.578  0.00  0.00    +0.000 C 
ATOM      3  O   UNL     1       0.292   9.334  19.310  0.00  0.00    +0.000 OA
ATOM      4  N   UNL     1       0.657  11.497  18.553  0.00  0.00    +0.000 N 
ATOM      5  H   UNL     1       2.443  10.333  17.150  0.00  0.00    +0.000 HD
ATOM      6  H   UNL     1       0.967  11.997  17.734  0.00  0.00    +0.000 HD
ENDROOT
BRANCH   4   7
ATOM      7  C   UNL     1      -0.228  12.177  19.429  0.00  0.00    +0.000 A 
ATOM      8  C   UNL     1      -1.541  12.511  19.077  0.00  0.00    +0.000 A 
ATOM      9  C   UNL     1      -2.376  13.206  19.960  0.00  0.00    +0.000 A 
ATOM     10  C   UNL     1      -1.916  13.563  21.223  0.00  0.00    +0.000 A 
ATOM     11  C   UNL     1      -0.599  13.260  21.580  0.00  0.00    +0.000 A 
ATOM     12  C   UNL     1       0.228  12.542  20.701  0.00  0.00    +0.000 A 
BRANCH  10  13
ATOM     13  O   UNL     1      -2.805  14.263  22.005  0.00  0.00    +0.000 OA
BRANCH  13  14
ATOM     14  C   UNL     1      -3.689  13.581  22.811  0.00  0.00    +0.000 A 
ATOM     15  C   UNL     1      -3.388  13.155  24.109  0.00  0.00    +0.000 A 
ATOM     16  C   UNL     1      -4.366  12.502  24.847  0.00  0.00    +0.000 A 
ATOM     17  N   UNL     1      -5.604  12.184  24.413  0.00  0.00    +0.000 NA
ATOM     18  C   UNL     1      -5.817  12.546  23.135  0.00  0.00    +0.000 A 
ATOM     19  N   UNL     1      -6.974  12.302  22.448  0.00  0.00    +0.000 N 
ATOM     20  C   UNL     1      -6.866  12.781  21.168  0.00  0.00    +0.000 A 
ATOM     21  C   UNL     1      -5.617  13.355  21.040  0.00  0.00    +0.000 A 
ATOM     22  C   UNL     1      -4.943  13.217  22.287  0.00  0.00    +0.000 A 
ATOM     23  H   UNL     1      -7.770  11.828  22.849  0.00  0.00    +0.000 HD
ENDBRANCH  13  14
ENDBRANCH  10  13
ENDBRANCH   4   7
BRANCH   1  25
ATOM     24  C   UNL     1       3.254   7.900  17.915  0.00  0.00    +0.000 C 
ATOM     25  N   UNL     1       2.081   8.360  17.631  0.00  0.00    +0.000 NA
BRANCH  24  29
ATOM     26  C   UNL     1       3.681   3.654  17.505  0.00  0.00    +0.000 A 
ATOM     27  C   UNL     1       2.599   4.212  18.199  0.00  0.00    +0.000 A 
ATOM     28  C   UNL     1       2.482   5.589  18.333  0.00  0.00    +0.000 A 
ATOM     29  C   UNL     1       3.475   6.431  17.824  0.00  0.00    +0.000 A 
ATOM     30  C   UNL     1       4.618   5.898  17.196  0.00  0.00    +0.000 A 
ATOM     31  C   UNL     1       4.727   4.488  17.035  0.00  0.00    +0.000 A 
BRANCH  26  33
ATOM     32  C   UNL     1       3.574   1.493  18.493  0.00  0.00    +0.000 C 
ATOM     33  O   UNL     1       3.756   2.297  17.327  0.00  0.00    +0.000 OA
ENDBRANCH  26  33
BRANCH  30  34
ATOM     34  O   UNL     1       5.509   6.859  16.775  0.00  0.00    +0.000 OA
ATOM     35  C   UNL     1       6.751   7.022  17.442  0.00  0.00    +0.000 C 
ENDBRANCH  30  34
BRANCH  31  36
ATOM     36  O   UNL     1       5.876   4.042  16.433  0.00  0.00    +0.000 OA
ATOM     37  C   UNL     1       5.981   3.931  15.022  0.00  0.00    +0.000 C 
ENDBRANCH  31  36
ENDBRANCH  24  29
ENDBRANCH   1  25
TORSDOF 8
ENDMDL
MODEL 3
REMARK VINA RESULT:      -7.6      2.489     12.548
REMARK  Name = 
REMARK  11 active torsions:
REMARK  status: ('A' for Active; 'I' for Inactive)
REMARK    1  A    between atoms: C_1  and  O_2
REMARK    2  A    between atoms: O_2  and  C_3
REMARK    3  A    between atoms: C_6  and  C_7
REMARK    4  A    between atoms: N_8  and  N_9
REMARK    5  A    between atoms: N_12  and  C_13
REMARK    6  A    between atoms: C_16  and  O_17
REMARK    7  A    between atoms: O_17  and  C_18
REMARK    8  A    between atoms: C_29  and  O_30
REMARK    9  A    between atoms: O_30  and  C_31
REMARK   10  A    between atoms: C_32  and  O_33
REMARK   11  A    between atoms: O_33  and  C_34
REMARK                            x       y       z     vdW  Elec       q    Type
REMARK                         _______ _______ _______ _____ _____    ______ ____
ROOT
ATOM      1  N   UNL     1      -0.326  11.308  20.779  0.00  0.00    +0.000 N 
ATOM      2  C   UNL     1      -0.028  10.149  20.065  0.00  0.00    +0.000 C 
ATOM      3  O   UNL     1      -0.862   9.599  19.345  0.00  0.00    +0.000 OA
ATOM      4  N   UNL     1       1.261   9.678  20.277  0.00  0.00    +0.000 N 
ATOM      5  H   UNL     1       0.372  11.860  21.257  0.00  0.00    +0.000 HD
ATOM      6  H   UNL     1       1.746  10.024  21.092  0.00  0.00    +0.000 HD
ENDROOT
BRANCH   4   7
ATOM      7  C   UNL     1       1.818   8.547  19.626  0.00  0.00    +0.000 A 
ATOM      8  C   UNL     1       1.870   7.278  20.214  0.00  0.00    +0.000 A 
ATOM      9  C   UNL     1       2.451   6.193  19.549  0.00  0.00    +0.000 A 
ATOM     10  C   UNL     1       2.974   6.354  18.270  0.00  0.00    +0.000 A 
ATOM     11  C   UNL     1       2.953   7.620  17.679  0.00  0.00    +0.000 A 
ATOM     12  C   UNL     1       2.348   8.702  18.340  0.00  0.00    +0.000 A 
BRANCH  10  13
ATOM     13  O   UNL     1       3.543   5.232  17.714  0.00  0.00    +0.000 OA
BRANCH  13  14
ATOM     14  C   UNL     1       4.912   5.089  17.714  0.00  0.00    +0.000 A 
ATOM     15  C   UNL     1       5.699   5.136  18.869  0.00  0.00    +0.000 A 
ATOM     16  C   UNL     1       7.070   4.948  18.759  0.00  0.00    +0.000 A 
ATOM     17  N   UNL     1       7.753   4.764  17.609  0.00  0.00    +0.000 NA
ATOM     18  C   UNL     1       6.962   4.805  16.522  0.00  0.00    +0.000 A 
ATOM     19  N   UNL     1       7.414   4.687  15.236  0.00  0.00    +0.000 N 
ATOM     20  C   UNL     1       6.363   4.785  14.362  0.00  0.00    +0.000 A 
ATOM     21  C   UNL     1       5.213   4.958  15.106  0.00  0.00    +0.000 A 
ATOM     22  C   UNL     1       5.583   4.966  16.482  0.00  0.00    +0.000 A 
ATOM     23  H   UNL     1       8.386   4.555  14.998  0.00  0.00    +0.000 HD
ENDBRANCH  13  14
ENDBRANCH  10  13
ENDBRANCH   4   7
BRANCH   1  25
ATOM     24  C   UNL     1      -2.281  12.173  21.641  0.00  0.00    +0.000 C 
ATOM     25  N   UNL     1      -1.589  11.795  20.618  0.00  0.00    +0.000 NA
BRANCH  24  29
ATOM     26  C   UNL     1      -6.342  13.319  20.889  0.00  0.00    +0.000 A 
ATOM     27  C   UNL     1      -5.459  13.040  19.837  0.00  0.00    +0.000 A 
ATOM     28  C   UNL     1      -4.143  12.682  20.098  0.00  0.00    +0.000 A 
ATOM     29  C   UNL     1      -3.672  12.651  21.414  0.00  0.00    +0.000 A 
ATOM     30  C   UNL     1      -4.511  13.008  22.488  0.00  0.00    +0.000 A 
ATOM     31  C   UNL     1      -5.867  13.350  22.224  0.00  0.00    +0.000 A 
BRANCH  26  33
ATOM     32  C   UNL     1      -7.917  14.906  20.078  0.00  0.00    +0.000 C 
ATOM     33  O   UNL     1      -7.654  13.613  20.623  0.00  0.00    +0.000 OA
ENDBRANCH  26  33
BRANCH  30  34
ATOM     34  O   UNL     1      -3.886  12.949  23.712  0.00  0.00    +0.000 OA
ATOM     35  C   UNL     1      -3.509  14.144  24.379  0.00  0.00    +0.000 C 
ENDBRANCH  30  34
BRANCH  31  36
ATOM     36  O   UNL     1      -6.617  13.706  23.316  0.00  0.00    +0.000 OA
ATOM     37  C   UNL     1      -7.504  12.791  23.938  0.00  0.00    +0.000 C 
ENDBRANCH  31  36
ENDBRANCH  24  29
ENDBRANCH   1  25
TORSDOF 8
ENDMDL
MODEL 4
REMARK VINA RESULT:      -7.5      2.595     11.997
REMARK  Name = 
REMARK  11 active torsions:
REMARK  status: ('A' for Active; 'I' for Inactive)
REMARK    1  A    between atoms: C_1  and  O_2
REMARK    2  A    between atoms: O_2  and  C_3
REMARK    3  A    between atoms: C_6  and  C_7
REMARK    4  A    between atoms: N_8  and  N_9
REMARK    5  A    between atoms: N_12  and  C_13
REMARK    6  A    between atoms: C_16  and  O_17
REMARK    7  A    between atoms: O_17  and  C_18
REMARK    8  A    between atoms: C_29  and  O_30
REMARK    9  A    between atoms: O_30  and  C_31
REMARK   10  A    between atoms: C_32  and  O_33
REMARK   11  A    between atoms: O_33  and  C_34
REMARK                            x       y       z     vdW  Elec       q    Type
REMARK                         _______ _______ _______ _____ _____    ______ ____
ROOT
ATOM      1  N   UNL     1       0.207   9.792  22.373  0.00  0.00    +0.000 N 
ATOM      2  C   UNL     1       0.351   8.854  21.352  0.00  0.00    +0.000 C 
ATOM      3  O   UNL     1      -0.579   8.575  20.593  0.00  0.00    +0.000 OA
ATOM      4  N   UNL     1       1.607   8.264  21.308  0.00  0.00    +0.000 N 
ATOM      5  H   UNL     1       0.983  10.147  22.913  0.00  0.00    +0.000 HD
ATOM      6  H   UNL     1       2.178   8.343  22.136  0.00  0.00    +0.000 HD
ENDROOT
BRANCH   4   7
ATOM      7  C   UNL     1       2.014   7.320  20.330  0.00  0.00    +0.000 A 
ATOM      8  C   UNL     1       2.019   5.939  20.557  0.00  0.00    +0.000 A 
ATOM      9  C   UNL     1       2.453   5.042  19.576  0.00  0.00    +0.000 A 
ATOM     10  C   UNL     1       2.873   5.512  18.335  0.00  0.00    +0.000 A 
ATOM     11  C   UNL     1       2.899   6.889  18.100  0.00  0.00    +0.000 A 
ATOM     12  C   UNL     1       2.440   7.785  19.080  0.00  0.00    +0.000 A 
BRANCH  10  13
ATOM     13  O   UNL     1       3.302   4.551  17.449  0.00  0.00    +0.000 OA
BRANCH  13  14
ATOM     14  C   UNL     1       4.596   4.583  16.981  0.00  0.00    +0.000 A 
ATOM     15  C   UNL     1       4.954   4.291  15.661  0.00  0.00    +0.000 A 
ATOM     16  C   UNL     1       6.287   4.384  15.288  0.00  0.00    +0.000 A 
ATOM     17  N   UNL     1       7.317   4.692  16.105  0.00  0.00    +0.000 NA
ATOM     18  C   UNL     1       6.932   4.888  17.378  0.00  0.00    +0.000 A 
ATOM     19  N   UNL     1       7.787   5.171  18.407  0.00  0.00    +0.000 N 
ATOM     20  C   UNL     1       7.083   5.297  19.577  0.00  0.00    +0.000 A 
ATOM     21  C   UNL     1       5.748   5.101  19.286  0.00  0.00    +0.000 A 
ATOM     22  C   UNL     1       5.640   4.845  17.888  0.00  0.00    +0.000 A 
ATOM     23  H   UNL     1       8.786   5.261  18.291  0.00  0.00    +0.000 HD
ENDBRANCH  13  14
ENDBRANCH  10  13
ENDBRANCH   4   7
BRANCH   1  25
ATOM     24  C   UNL     1      -1.144  11.658  22.310  0.00  0.00    +0.000 C 
ATOM     25  N   UNL     1      -1.018  10.383  22.468  0.00  0.00    +0.000 NA
BRANCH  24  29
ATOM     26  C   UNL     1      -4.939  13.542  22.956  0.00  0.00    +0.000 A 
ATOM     27  C   UNL     1      -4.331  12.772  23.955  0.00  0.00    +0.000 A 
ATOM     28  C   UNL     1      -3.107  12.158  23.726  0.00  0.00    +0.000 A 
ATOM     29  C   UNL     1      -2.496  12.258  22.472  0.00  0.00    +0.000 A 
ATOM     30  C   UNL     1      -3.122  12.954  21.419  0.00  0.00    +0.000 A 
ATOM     31  C   UNL     1      -4.365  13.605  21.662  0.00  0.00    +0.000 A 
BRANCH  26  33
ATOM     32  C   UNL     1      -7.066  13.493  24.020  0.00  0.00    +0.000 C 
ATOM     33  O   UNL     1      -6.118  14.192  23.213  0.00  0.00    +0.000 OA
ENDBRANCH  26  33
BRANCH  30  34
ATOM     34  O   UNL     1      -2.401  12.935  20.248  0.00  0.00    +0.000 OA
ATOM     35  C   UNL     1      -2.741  12.022  19.215  0.00  0.00    +0.000 C 
ENDBRANCH  30  34
BRANCH  31  36
ATOM     36  O   UNL     1      -4.923  14.245  20.585  0.00  0.00    +0.000 OA
ATOM     37  C   UNL     1      -5.941  13.637  19.806  0.00  0.00    +0.000 C 
ENDBRANCH  31  36
ENDBRANCH  24  29
ENDBRANCH   1  25
TORSDOF 8
ENDMDL
MODEL 5
REMARK VINA RESULT:      -7.4      2.610     12.384
REMARK  Name = 
REMARK  11 active torsions:
REMARK  status: ('A' for Active; 'I' for Inactive)
REMARK    1  A    between atoms: C_1  and  O_2
REMARK    2  A    between atoms: O_2  and  C_3
REMARK    3  A    between atoms: C_6  and  C_7
REMARK    4  A    between atoms: N_8  and  N_9
REMARK    5  A    between atoms: N_12  and  C_13
REMARK    6  A    between atoms: C_16  and  O_17
REMARK    7  A    between atoms: O_17  and  C_18
REMARK    8  A    between atoms: C_29  and  O_30
REMARK    9  A    between atoms: O_30  and  C_31
REMARK   10  A    between atoms: C_32  and  O_33
REMARK   11  A    between atoms: O_33  and  C_34
REMARK                            x       y       z     vdW  Elec       q    Type
REMARK                         _______ _______ _______ _____ _____    ______ ____
ROOT
ATOM      1  N   UNL     1      -0.371  11.915  20.081  0.00  0.00    +0.000 N 
ATOM      2  C   UNL     1      -0.027  10.571  19.941  0.00  0.00    +0.000 C 
ATOM      3  O   UNL     1      -0.760   9.670  20.350  0.00  0.00    +0.000 OA
ATOM      4  N   UNL     1       1.208  10.370  19.340  0.00  0.00    +0.000 N 
ATOM      5  H   UNL     1       0.132  12.666  19.630  0.00  0.00    +0.000 HD
ATOM      6  H   UNL     1       1.839  11.157  19.317  0.00  0.00    +0.000 HD
ENDROOT
BRANCH   4   7
ATOM      7  C   UNL     1       1.755   9.096  19.041  0.00  0.00    +0.000 A 
ATOM      8  C   UNL     1       1.807   8.051  19.970  0.00  0.00    +0.000 A 
ATOM      9  C   UNL     1       2.378   6.816  19.645  0.00  0.00    +0.000 A 
ATOM     10  C   UNL     1       2.890   6.596  18.370  0.00  0.00    +0.000 A 
ATOM     11  C   UNL     1       2.869   7.637  17.438  0.00  0.00    +0.000 A 
ATOM     12  C   UNL     1       2.275   8.868  17.761  0.00  0.00    +0.000 A 
BRANCH  10  13
ATOM     13  O   UNL     1       3.450   5.357  18.159  0.00  0.00    +0.000 OA
BRANCH  13  14
ATOM     14  C   UNL     1       4.818   5.208  18.209  0.00  0.00    +0.000 A 
ATOM     15  C   UNL     1       5.577   5.383  19.370  0.00  0.00    +0.000 A 
ATOM     16  C   UNL     1       6.949   5.177  19.315  0.00  0.00    +0.000 A 
ATOM     17  N   UNL     1       7.658   4.859  18.211  0.00  0.00    +0.000 NA
ATOM     18  C   UNL     1       6.893   4.779  17.107  0.00  0.00    +0.000 A 
ATOM     19  N   UNL     1       7.374   4.513  15.855  0.00  0.00    +0.000 N 
ATOM     20  C   UNL     1       6.345   4.516  14.949  0.00  0.00    +0.000 A 
ATOM     21  C   UNL     1       5.179   4.779  15.641  0.00  0.00    +0.000 A 
ATOM     22  C   UNL     1       5.516   4.942  17.016  0.00  0.00    +0.000 A 
ATOM     23  H   UNL     1       8.351   4.350  15.657  0.00  0.00    +0.000 HD
ENDBRANCH  13  14
ENDBRANCH  10  13
ENDBRANCH   4   7
BRANCH   1  25
ATOM     24  C   UNL     1      -1.830  13.331  21.166  0.00  0.00    +0.000 C 
ATOM     25  N   UNL     1      -1.567  12.162  20.685  0.00  0.00    +0.000 NA
BRANCH  24  29
ATOM     26  C   UNL     1      -5.561  13.669  23.248  0.00  0.00    +0.000 A 
ATOM     27  C   UNL     1      -5.412  12.798  22.161  0.00  0.00    +0.000 A 
ATOM     28  C   UNL     1      -4.200  12.710  21.489  0.00  0.00    +0.000 A 
ATOM     29  C   UNL     1      -3.132  13.532  21.859  0.00  0.00    +0.000 A 
ATOM     30  C   UNL     1      -3.275  14.479  22.892  0.00  0.00    +0.000 A 
ATOM     31  C   UNL     1      -4.509  14.552  23.598  0.00  0.00    +0.000 A 
BRANCH  26  33
ATOM     32  C   UNL     1      -7.728  12.741  23.567  0.00  0.00    +0.000 C 
ATOM     33  O   UNL     1      -6.743  13.705  23.941  0.00  0.00    +0.000 OA
ENDBRANCH  26  33
BRANCH  30  34
ATOM     34  O   UNL     1      -2.140  15.223  23.112  0.00  0.00    +0.000 OA
ATOM     35  C   UNL     1      -1.292  14.925  24.211  0.00  0.00    +0.000 C 
ENDBRANCH  30  34
BRANCH  31  36
ATOM     36  O   UNL     1      -4.582  15.510  24.577  0.00  0.00    +0.000 OA
ATOM     37  C   UNL     1      -5.088  16.808  24.309  0.00  0.00    +0.000 C 
ENDBRANCH  31  36
ENDBRANCH  24  29
ENDBRANCH   1  25
TORSDOF 8
ENDMDL
MODEL 6
REMARK VINA RESULT:      -7.3      2.999     12.562
REMARK  Name = 
REMARK  11 active torsions:
REMARK  status: ('A' for Active; 'I' for Inactive)
REMARK    1  A    between atoms: C_1  and  O_2
REMARK    2  A    between atoms: O_2  and  C_3
REMARK    3  A    between atoms: C_6  and  C_7
REMARK    4  A    between atoms: N_8  and  N_9
REMARK    5  A    between atoms: N_12  and  C_13
REMARK    6  A    between atoms: C_16  and  O_17
REMARK    7  A    between atoms: O_17  and  C_18
REMARK    8  A    between atoms: C_29  and  O_30
REMARK    9  A    between atoms: O_30  and  C_31
REMARK   10  A    between atoms: C_32  and  O_33
REMARK   11  A    between atoms: O_33  and  C_34
REMARK                            x       y       z     vdW  Elec       q    Type
REMARK                         _______ _______ _______ _____ _____    ______ ____
ROOT
ATOM      1  N   UNL     1      -0.382   9.865  22.742  0.00  0.00    +0.000 N 
ATOM      2  C   UNL     1       0.353   9.506  21.613  0.00  0.00    +0.000 C 
ATOM      3  O   UNL     1       0.684  10.336  20.765  0.00  0.00    +0.000 OA
ATOM      4  N   UNL     1       0.629   8.148  21.535  0.00  0.00    +0.000 N 
ATOM      5  H   UNL     1      -0.541   9.242  23.521  0.00  0.00    +0.000 HD
ATOM      6  H   UNL     1       0.071   7.534  22.108  0.00  0.00    +0.000 HD
ENDROOT
BRANCH   4   7
ATOM      7  C   UNL     1       1.404   7.547  20.509  0.00  0.00    +0.000 A 
ATOM      8  C   UNL     1       1.931   8.266  19.431  0.00  0.00    +0.000 A 
ATOM      9  C   UNL     1       2.669   7.632  18.425  0.00  0.00    +0.000 A 
ATOM     10  C   UNL     1       2.911   6.264  18.492  0.00  0.00    +0.000 A 
ATOM     11  C   UNL     1       2.370   5.526  19.549  0.00  0.00    +0.000 A 
ATOM     12  C   UNL     1       1.650   6.170  20.568  0.00  0.00    +0.000 A 
BRANCH  10  13
ATOM     13  O   UNL     1       3.626   5.733  17.443  0.00  0.00    +0.000 OA
BRANCH  13  14
ATOM     14  C   UNL     1       4.941   5.369  17.628  0.00  0.00    +0.000 A 
ATOM     15  C   UNL     1       5.548   5.258  18.883  0.00  0.00    +0.000 A 
ATOM     16  C   UNL     1       6.873   4.852  18.957  0.00  0.00    +0.000 A 
ATOM     17  N   UNL     1       7.679   4.589  17.906  0.00  0.00    +0.000 NA
ATOM     18  C   UNL     1       7.072   4.785  16.722  0.00  0.00    +0.000 A 
ATOM     19  N   UNL     1       7.682   4.627  15.508  0.00  0.00    +0.000 N 
ATOM     20  C   UNL     1       6.798   4.917  14.501  0.00  0.00    +0.000 A 
ATOM     21  C   UNL     1       5.595   5.257  15.085  0.00  0.00    +0.000 A 
ATOM     22  C   UNL     1       5.756   5.170  16.498  0.00  0.00    +0.000 A 
ATOM     23  H   UNL     1       8.646   4.345  15.402  0.00  0.00    +0.000 HD
ENDBRANCH  13  14
ENDBRANCH  10  13
ENDBRANCH   4   7
BRANCH   1  25
ATOM     24  C   UNL     1      -1.856  11.552  23.281  0.00  0.00    +0.000 C 
ATOM     25  N   UNL     1      -0.695  11.187  22.851  0.00  0.00    +0.000 NA
BRANCH  24  29
ATOM     26  C   UNL     1      -2.627  15.768  23.203  0.00  0.00    +0.000 A 
ATOM     27  C   UNL     1      -1.320  15.270  23.279  0.00  0.00    +0.000 A 
ATOM     28  C   UNL     1      -1.088  13.901  23.317  0.00  0.00    +0.000 A 
ATOM     29  C   UNL     1      -2.163  13.008  23.334  0.00  0.00    +0.000 A 
ATOM     30  C   UNL     1      -3.491  13.479  23.344  0.00  0.00    +0.000 A 
ATOM     31  C   UNL     1      -3.729  14.881  23.280  0.00  0.00    +0.000 A 
BRANCH  26  33
ATOM     32  C   UNL     1      -2.361  17.755  21.923  0.00  0.00    +0.000 C 
ATOM     33  O   UNL     1      -2.842  17.119  23.107  0.00  0.00    +0.000 OA
ENDBRANCH  26  33
BRANCH  30  34
ATOM     34  O   UNL     1      -4.427  12.472  23.388  0.00  0.00    +0.000 OA
ATOM     35  C   UNL     1      -5.153  12.224  24.582  0.00  0.00    +0.000 C 
ENDBRANCH  30  34
BRANCH  31  36
ATOM     36  O   UNL     1      -5.046  15.265  23.315  0.00  0.00    +0.000 OA
ATOM     37  C   UNL     1      -5.792  15.467  22.125  0.00  0.00    +0.000 C 
ENDBRANCH  31  36
ENDBRANCH  24  29
ENDBRANCH   1  25
TORSDOF 8
ENDMDL
MODEL 7
REMARK VINA RESULT:      -7.2      2.101      3.428
REMARK  Name = 
REMARK  11 active torsions:
REMARK  status: ('A' for Active; 'I' for Inactive)
REMARK    1  A    between atoms: C_1  and  O_2
REMARK    2  A    between atoms: O_2  and  C_3
REMARK    3  A    between atoms: C_6  and  C_7
REMARK    4  A    between atoms: N_8  and  N_9
REMARK    5  A    between atoms: N_12  and  C_13
REMARK    6  A    between atoms: C_16  and  O_17
REMARK    7  A    between atoms: O_17  and  C_18
REMARK    8  A    between atoms: C_29  and  O_30
REMARK    9  A    between atoms: O_30  and  C_31
REMARK   10  A    between atoms: C_32  and  O_33
REMARK   11  A    between atoms: O_33  and  C_34
REMARK                            x       y       z     vdW  Elec       q    Type
REMARK                         _______ _______ _______ _____ _____    ______ ____
ROOT
ATOM      1  N   UNL     1       1.656   7.973  21.257  0.00  0.00    +0.000 N 
ATOM      2  C   UNL     1       0.844   9.047  20.898  0.00  0.00    +0.000 C 
ATOM      3  O   UNL     1       0.719   9.400  19.724  0.00  0.00    +0.000 OA
ATOM      4  N   UNL     1       0.240   9.676  21.978  0.00  0.00    +0.000 N 
ATOM      5  H   UNL     1       1.665   7.570  22.184  0.00  0.00    +0.000 HD
ATOM      6  H   UNL     1       0.635   9.501  22.889  0.00  0.00    +0.000 HD
ENDROOT
BRANCH   4   7
ATOM      7  C   UNL     1      -0.671  10.759  21.866  0.00  0.00    +0.000 A 
ATOM      8  C   UNL     1      -0.883  11.457  20.672  0.00  0.00    +0.000 A 
ATOM      9  C   UNL     1      -1.771  12.536  20.608  0.00  0.00    +0.000 A 
ATOM     10  C   UNL     1      -2.482  12.925  21.740  0.00  0.00    +0.000 A 
ATOM     11  C   UNL     1      -2.263  12.255  22.946  0.00  0.00    +0.000 A 
ATOM     12  C   UNL     1      -1.388  11.157  23.000  0.00  0.00    +0.000 A 
BRANCH  10  13
ATOM     13  O   UNL     1      -3.311  14.011  21.578  0.00  0.00    +0.000 OA
BRANCH  13  14
ATOM     14  C   UNL     1      -4.585  13.981  22.099  0.00  0.00    +0.000 A 
ATOM     15  C   UNL     1      -4.966  14.658  23.262  0.00  0.00    +0.000 A 
ATOM     16  C   UNL     1      -6.286  14.585  23.682  0.00  0.00    +0.000 A 
ATOM     17  N   UNL     1      -7.266  13.867  23.092  0.00  0.00    +0.000 NA
ATOM     18  C   UNL     1      -6.831  13.173  22.025  0.00  0.00    +0.000 A 
ATOM     19  N   UNL     1      -7.615  12.337  21.278  0.00  0.00    +0.000 N 
ATOM     20  C   UNL     1      -6.871  11.772  20.275  0.00  0.00    +0.000 A 
ATOM     21  C   UNL     1      -5.587  12.267  20.377  0.00  0.00    +0.000 A 
ATOM     22  C   UNL     1      -5.551  13.164  21.483  0.00  0.00    +0.000 A 
ATOM     23  H   UNL     1      -8.593  12.175  21.468  0.00  0.00    +0.000 HD
ENDBRANCH  13  14
ENDBRANCH  10  13
ENDBRANCH   4   7
BRANCH   1  25
ATOM     24  C   UNL     1       2.017   6.104  19.958  0.00  0.00    +0.000 C 
ATOM     25  N   UNL     1       2.288   7.337  20.231  0.00  0.00    +0.000 NA
BRANCH  24  29
ATOM     26  C   UNL     1       4.405   4.285  16.899  0.00  0.00    +0.000 A 
ATOM     27  C   UNL     1       4.342   5.678  17.040  0.00  0.00    +0.000 A 
ATOM     28  C   UNL     1       3.553   6.251  18.028  0.00  0.00    +0.000 A 
ATOM     29  C   UNL     1       2.771   5.443  18.858  0.00  0.00    +0.000 A 
ATOM     30  C   UNL     1       2.747   4.045  18.687  0.00  0.00    +0.000 A 
ATOM     31  C   UNL     1       3.574   3.454  17.691  0.00  0.00    +0.000 A 
BRANCH  26  33
ATOM     32  C   UNL     1       5.476   4.506  14.786  0.00  0.00    +0.000 C 
ATOM     33  O   UNL     1       5.233   3.728  15.958  0.00  0.00    +0.000 OA
ENDBRANCH  26  33
BRANCH  30  34
ATOM     34  O   UNL     1       1.907   3.402  19.567  0.00  0.00    +0.000 OA
ATOM     35  C   UNL     1       0.720   2.782  19.097  0.00  0.00    +0.000 C 
ENDBRANCH  30  34
BRANCH  31  36
ATOM     36  O   UNL     1       3.482   2.091  17.569  0.00  0.00    +0.000 OA
ATOM     37  C   UNL     1       3.983   1.221  18.571  0.00  0.00    +0.000 C 
ENDBRANCH  31  36
ENDBRANCH  24  29
ENDBRANCH   1  25
TORSDOF 8
ENDMDL
MODEL 8
REMARK VINA RESULT:      -7.2      2.253      3.316
REMARK  Name = 
REMARK  11 active torsions:
REMARK  status: ('A' for Active; 'I' for Inactive)
REMARK    1  A    between atoms: C_1  and  O_2
REMARK    2  A    between atoms: O_2  and  C_3
REMARK    3  A    between atoms: C_6  and  C_7
REMARK    4  A    between atoms: N_8  and  N_9
REMARK    5  A    between atoms: N_12  and  C_13
REMARK    6  A    between atoms: C_16  and  O_17
REMARK    7  A    between atoms: O_17  and  C_18
REMARK    8  A    between atoms: C_29  and  O_30
REMARK    9  A    between atoms: O_30  and  C_31
REMARK   10  A    between atoms: C_32  and  O_33
REMARK   11  A    between atoms: O_33  and  C_34
REMARK                            x       y       z     vdW  Elec       q    Type
REMARK                         _______ _______ _______ _____ _____    ______ ____
ROOT
ATOM      1  N   UNL     1       1.336   9.927  18.451  0.00  0.00    +0.000 N 
ATOM      2  C   UNL     1       0.671  10.106  19.664  0.00  0.00    +0.000 C 
ATOM      3  O   UNL     1       0.952   9.438  20.659  0.00  0.00    +0.000 OA
ATOM      4  N   UNL     1      -0.332  11.064  19.615  0.00  0.00    +0.000 N 
ATOM      5  H   UNL     1       1.232  10.553  17.664  0.00  0.00    +0.000 HD
ATOM      6  H   UNL     1      -0.669  11.328  18.701  0.00  0.00    +0.000 HD
ENDROOT
BRANCH   4   7
ATOM      7  C   UNL     1      -1.113  11.462  20.731  0.00  0.00    +0.000 A 
ATOM      8  C   UNL     1      -0.809  11.092  22.046  0.00  0.00    +0.000 A 
ATOM      9  C   UNL     1      -1.618  11.483  23.117  0.00  0.00    +0.000 A 
ATOM     10  C   UNL     1      -2.742  12.272  22.894  0.00  0.00    +0.000 A 
ATOM     11  C   UNL     1      -3.074  12.630  21.584  0.00  0.00    +0.000 A 
ATOM     12  C   UNL     1      -2.246  12.255  20.514  0.00  0.00    +0.000 A 
BRANCH  10  13
ATOM     13  O   UNL     1      -3.483  12.583  24.010  0.00  0.00    +0.000 OA
BRANCH  13  14
ATOM     14  C   UNL     1      -4.046  13.834  24.130  0.00  0.00    +0.000 A 
ATOM     15  C   UNL     1      -5.333  14.154  23.685  0.00  0.00    +0.000 A 
ATOM     16  C   UNL     1      -5.815  15.440  23.884  0.00  0.00    +0.000 A 
ATOM     17  N   UNL     1      -5.131  16.463  24.440  0.00  0.00    +0.000 NA
ATOM     18  C   UNL     1      -3.874  16.126  24.779  0.00  0.00    +0.000 A 
ATOM     19  N   UNL     1      -2.964  16.991  25.322  0.00  0.00    +0.000 N 
ATOM     20  C   UNL     1      -1.776  16.343  25.538  0.00  0.00    +0.000 A 
ATOM     21  C   UNL     1      -1.934  15.032  25.135  0.00  0.00    +0.000 A 
ATOM     22  C   UNL     1      -3.267  14.882  24.656  0.00  0.00    +0.000 A 
ATOM     23  H   UNL     1      -3.166  17.961  25.516  0.00  0.00    +0.000 HD
ENDBRANCH  13  14
ENDBRANCH  10  13
ENDBRANCH   4   7
BRANCH   1  25
ATOM     24  C   UNL     1       2.105   7.822  17.916  0.00  0.00    +0.000 C 
ATOM     25  N   UNL     1       2.316   8.981  18.445  0.00  0.00    +0.000 NA
BRANCH  24  29
ATOM     26  C   UNL     1       5.390   5.085  18.206  0.00  0.00    +0.000 A 
ATOM     27  C   UNL     1       5.443   6.195  17.354  0.00  0.00    +0.000 A 
ATOM     28  C   UNL     1       4.365   7.065  17.262  0.00  0.00    +0.000 A 
ATOM     29  C   UNL     1       3.194   6.809  17.980  0.00  0.00    +0.000 A 
ATOM     30  C   UNL     1       3.077   5.655  18.780  0.00  0.00    +0.000 A 
ATOM     31  C   UNL     1       4.191   4.776  18.895  0.00  0.00    +0.000 A 
BRANCH  26  33
ATOM     32  C   UNL     1       7.742   4.824  17.959  0.00  0.00    +0.000 C 
ATOM     33  O   UNL     1       6.482   4.265  18.333  0.00  0.00    +0.000 OA
ENDBRANCH  26  33
BRANCH  30  34
ATOM     34  O   UNL     1       1.853   5.540  19.397  0.00  0.00    +0.000 OA
ATOM     35  C   UNL     1       1.744   5.707  20.803  0.00  0.00    +0.000 C 
ENDBRANCH  30  34
BRANCH  31  36
ATOM     36  O   UNL     1       3.996   3.664  19.674  0.00  0.00    +0.000 OA
ATOM     37  C   UNL     1       3.539   2.440  19.121  0.00  0.00    +0.000 C 
ENDBRANCH  31  36
ENDBRANCH  24  29
ENDBRANCH   1  25
TORSDOF 8
ENDMDL
MODEL 9
REMARK VINA RESULT:      -7.2      1.441      2.846
REMARK  Name = 
REMARK  11 active torsions:
REMARK  status: ('A' for Active; 'I' for Inactive)
REMARK    1  A    between atoms: C_1  and  O_2
REMARK    2  A    between atoms: O_2  and  C_3
REMARK    3  A    between atoms: C_6  and  C_7
REMARK    4  A    between atoms: N_8  and  N_9
REMARK    5  A    between atoms: N_12  and  C_13
REMARK    6  A    between atoms: C_16  and  O_17
REMARK    7  A    between atoms: O_17  and  C_18
REMARK    8  A    between atoms: C_29  and  O_30
REMARK    9  A    between atoms: O_30  and  C_31
REMARK   10  A    between atoms: C_32  and  O_33
REMARK   11  A    between atoms: O_33  and  C_34
REMARK                            x       y       z     vdW  Elec       q    Type
REMARK                         _______ _______ _______ _____ _____    ______ ____
ROOT
ATOM      1  N   UNL     1       1.316   9.723  17.552  0.00  0.00    +0.000 N 
ATOM      2  C   UNL     1       0.879  10.276  18.756  0.00  0.00    +0.000 C 
ATOM      3  O   UNL     1       1.392   9.968  19.832  0.00  0.00    +0.000 OA
ATOM      4  N   UNL     1      -0.185  11.155  18.613  0.00  0.00    +0.000 N 
ATOM      5  H   UNL     1       1.019  10.061  16.647  0.00  0.00    +0.000 HD
ATOM      6  H   UNL     1      -0.706  11.107  17.751  0.00  0.00    +0.000 HD
ENDROOT
BRANCH   4   7
ATOM      7  C   UNL     1      -0.770  11.883  19.681  0.00  0.00    +0.000 A 
ATOM      8  C   UNL     1      -1.036  11.318  20.934  0.00  0.00    +0.000 A 
ATOM      9  C   UNL     1      -1.638  12.061  21.954  0.00  0.00    +0.000 A 
ATOM     10  C   UNL     1      -1.969  13.396  21.745  0.00  0.00    +0.000 A 
ATOM     11  C   UNL     1      -1.735  13.969  20.492  0.00  0.00    +0.000 A 
ATOM     12  C   UNL     1      -1.109  13.226  19.478  0.00  0.00    +0.000 A 
BRANCH  10  13
ATOM     13  O   UNL     1      -2.578  14.032  22.803  0.00  0.00    +0.000 OA
BRANCH  13  14
ATOM     14  C   UNL     1      -3.810  13.601  23.240  0.00  0.00    +0.000 A 
ATOM     15  C   UNL     1      -3.994  12.750  24.334  0.00  0.00    +0.000 A 
ATOM     16  C   UNL     1      -5.284  12.402  24.710  0.00  0.00    +0.000 A 
ATOM     17  N   UNL     1      -6.418  12.776  24.079  0.00  0.00    +0.000 NA
ATOM     18  C   UNL     1      -6.185  13.528  22.989  0.00  0.00    +0.000 A 
ATOM     19  N   UNL     1      -7.161  13.999  22.155  0.00  0.00    +0.000 N 
ATOM     20  C   UNL     1      -6.594  14.717  21.134  0.00  0.00    +0.000 A 
ATOM     21  C   UNL     1      -5.228  14.714  21.327  0.00  0.00    +0.000 A 
ATOM     22  C   UNL     1      -4.956  13.965  22.508  0.00  0.00    +0.000 A 
ATOM     23  H   UNL     1      -8.145  13.821  22.293  0.00  0.00    +0.000 HD
ENDBRANCH  13  14
ENDBRANCH  10  13
ENDBRANCH   4   7
BRANCH   1  25
ATOM     24  C   UNL     1       2.115   7.581  17.839  0.00  0.00    +0.000 C 
ATOM     25  N   UNL     1       2.346   8.837  17.645  0.00  0.00    +0.000 NA
BRANCH  24  29
ATOM     26  C   UNL     1       5.593   5.132  18.365  0.00  0.00    +0.000 A 
ATOM     27  C   UNL     1       5.610   6.245  17.514  0.00  0.00    +0.000 A 
ATOM     28  C   UNL     1       4.471   7.020  17.345  0.00  0.00    +0.000 A 
ATOM     29  C   UNL     1       3.279   6.664  17.982  0.00  0.00    +0.000 A 
ATOM     30  C   UNL     1       3.206   5.503  18.776  0.00  0.00    +0.000 A 
ATOM     31  C   UNL     1       4.379   4.721  18.971  0.00  0.00    +0.000 A 
BRANCH  26  33
ATOM     32  C   UNL     1       7.757   4.537  17.578  0.00  0.00    +0.000 C 
ATOM     33  O   UNL     1       6.739   4.408  18.570  0.00  0.00    +0.000 OA
ENDBRANCH  26  33
BRANCH  30  34
ATOM     34  O   UNL     1       1.956   5.283  19.308  0.00  0.00    +0.000 OA
ATOM     35  C   UNL     1       1.738   5.431  20.703  0.00  0.00    +0.000 C 
ENDBRANCH  30  34
BRANCH  31  36
ATOM     36  O   UNL     1       4.226   3.595  19.739  0.00  0.00    +0.000 OA
ATOM     37  C   UNL     1       3.891   2.343  19.162  0.00  0.00    +0.000 C 
ENDBRANCH  31  36
ENDBRANCH  24  29
ENDBRANCH   1  25
TORSDOF 8
ENDMDL
