MODEL 1
REMARK VINA RESULT:      -7.9      0.000      0.000
REMARK  Name = 
REMARK  4 active torsions:
REMARK  status: ('A' for Active; 'I' for Inactive)
REMARK    1  A    between atoms: C_2  and  C_5
REMARK    2  A    between atoms: N_3  and  O_4
REMARK    3  A    between atoms: C_8  and  C_9
REMARK    4  A    between atoms: C_9  and  N_10
REMARK                            x       y       z     vdW  Elec       q    Type
REMARK                         _______ _______ _______ _____ _____    ______ ____
ROOT
ATOM      1  C   UNL     1       3.087   4.281  18.003  0.00  0.00    +0.000 C 
ENDROOT
BRANCH   1   2
ATOM      2  N   UNL     1       4.575   4.137  17.694  0.00  0.00    +0.000 N 
ATOM      3  C   UNL     1       5.292   4.057  18.925  0.00  0.00    +0.000 C 
ATOM      4  O   UNL     1       5.298   3.024  19.594  0.00  0.00    +0.000 OA
ATOM      5  C   UNL     1       5.940   5.355  19.494  0.00  0.00    +0.000 C 
ATOM      6  C   UNL     1       6.543   5.838  18.254  0.00  0.00    +0.000 C 
ATOM      7  C   UNL     1       7.168   6.392  17.082  0.00  0.00    +0.000 C 
ATOM      8  C   UNL     1       6.495   5.416  16.047  0.00  0.00    +0.000 A 
ATOM      9  C   UNL     1       7.218   5.451  14.821  0.00  0.00    +0.000 A 
ATOM     10  C   UNL     1       6.788   4.714  13.749  0.00  0.00    +0.000 A 
ATOM     11 CL   UNL     1       7.747   4.670  12.314  0.00  0.00    +0.000 Cl
ATOM     12  C   UNL     1       5.596   3.997  13.863  0.00  0.00    +0.000 A 
ATOM     13  C   UNL     1       4.839   3.936  15.090  0.00  0.00    +0.000 A 
ATOM     14  C   UNL     1       5.263   4.574  16.276  0.00  0.00    +0.000 A 
ENDBRANCH   1   2
BRANCH   1  18
ATOM     15  C   UNL     1       1.580   7.986  20.279  0.00  0.00    +0.000 A 
ATOM     16  C   UNL     1       1.534   6.703  20.842  0.00  0.00    +0.000 A 
ATOM     17  C   UNL     1       1.984   5.527  20.127  0.00  0.00    +0.000 A 
ATOM     18  C   UNL     1       2.499   5.570  18.800  0.00  0.00    +0.000 A 
ATOM     19  C   UNL     1       2.560   6.876  18.269  0.00  0.00    +0.000 A 
ATOM     20  C   UNL     1       2.120   8.052  18.985  0.00  0.00    +0.000 A 
BRANCH  15  22
ATOM     21  O   UNL     1       0.953  10.302  20.549  0.00  0.00    +0.000 OA
ATOM     22  C   UNL     1       1.086   9.192  21.078  0.00  0.00    +0.000 C 
ATOM     23  N   UNL     1       0.800   9.009  22.423  0.00  0.00    +0.000 N 
ATOM     24  H   UNL     1       0.992   8.175  22.963  0.00  0.00    +0.000 HD
BRANCH  23  25
ATOM     25  O   UNL     1       0.418  10.137  23.192  0.00  0.00    +0.000 OA
ATOM     26  H   UNL     1      -0.060  10.703  22.551  0.00  0.00    +0.000 HD
ENDBRANCH  23  25
ENDBRANCH  15  22
ENDBRANCH   1  18
TORSDOF 4
ENDMDL
MODEL 2
REMARK VINA RESULT:      -7.5      1.427      1.983
REMARK  Name = 
REMARK  4 active torsions:
REMARK  status: ('A' for Active; 'I' for Inactive)
REMARK    1  A    between atoms: C_2  and  C_5
REMARK    2  A    between atoms: N_3  and  O_4
REMARK    3  A    between atoms: C_8  and  C_9
REMARK    4  A    between atoms: C_9  and  N_10
REMARK                            x       y       z     vdW  Elec       q    Type
REMARK                         _______ _______ _______ _____ _____    ______ ____
ROOT
ATOM      1  C   UNL     1       3.214   4.704  18.259  0.00  0.00    +0.000 C 
ENDROOT
BRANCH   1   2
ATOM      2  N   UNL     1       4.646   4.363  17.853  0.00  0.00    +0.000 N 
ATOM      3  C   UNL     1       5.432   4.210  19.033  0.00  0.00    +0.000 C 
ATOM      4  O   UNL     1       5.352   3.195  19.726  0.00  0.00    +0.000 OA
ATOM      5  C   UNL     1       6.281   5.421  19.525  0.00  0.00    +0.000 C 
ATOM      6  C   UNL     1       6.851   5.801  18.235  0.00  0.00    +0.000 C 
ATOM      7  C   UNL     1       7.458   6.251  17.009  0.00  0.00    +0.000 C 
ATOM      8  C   UNL     1       6.593   5.354  16.047  0.00  0.00    +0.000 A 
ATOM      9  C   UNL     1       7.225   5.275  14.774  0.00  0.00    +0.000 A 
ATOM     10  C   UNL     1       6.629   4.583  13.753  0.00  0.00    +0.000 A 
ATOM     11 CL   UNL     1       7.471   4.391  12.258  0.00  0.00    +0.000 Cl
ATOM     12  C   UNL     1       5.366   4.030  13.966  0.00  0.00    +0.000 A 
ATOM     13  C   UNL     1       4.696   4.088  15.243  0.00  0.00    +0.000 A 
ATOM     14  C   UNL     1       5.282   4.683  16.381  0.00  0.00    +0.000 A 
ENDBRANCH   1   2
BRANCH   1  18
ATOM     15  C   UNL     1       1.699   8.998  18.925  0.00  0.00    +0.000 A 
ATOM     16  C   UNL     1       2.163   8.563  17.676  0.00  0.00    +0.000 A 
ATOM     17  C   UNL     1       2.664   7.222  17.460  0.00  0.00    +0.000 A 
ATOM     18  C   UNL     1       2.734   6.240  18.489  0.00  0.00    +0.000 A 
ATOM     19  C   UNL     1       2.234   6.696  19.727  0.00  0.00    +0.000 A 
ATOM     20  C   UNL     1       1.726   8.032  19.942  0.00  0.00    +0.000 A 
BRANCH  15  22
ATOM     21  O   UNL     1       0.500  10.751  20.075  0.00  0.00    +0.000 OA
ATOM     22  C   UNL     1       1.186  10.429  19.097  0.00  0.00    +0.000 C 
ATOM     23  N   UNL     1       1.504  11.357  18.116  0.00  0.00    +0.000 N 
ATOM     24  H   UNL     1       1.952  11.156  17.231  0.00  0.00    +0.000 HD
BRANCH  23  25
ATOM     25  O   UNL     1       0.967  12.665  18.224  0.00  0.00    +0.000 OA
ATOM     26  H   UNL     1       1.589  13.120  18.830  0.00  0.00    +0.000 HD
ENDBRANCH  23  25
ENDBRANCH  15  22
ENDBRANCH   1  18
TORSDOF 4
ENDMDL
MODEL 3
REMARK VINA RESULT:      -7.4      2.578      3.972
REMARK  Name = 
REMARK  4 active torsions:
REMARK  status: ('A' for Active; 'I' for Inactive)
REMARK    1  A    between atoms: C_2  and  C_5
REMARK    2  A    between atoms: N_3  and  O_4
REMARK    3  A    between atoms: C_8  and  C_9
REMARK    4  A    between atoms: C_9  and  N_10
REMARK                            x       y       z     vdW  Elec       q    Type
REMARK                         _______ _______ _______ _____ _____    ______ ____
ROOT
ATOM      1  C   UNL     1       2.192   6.205  20.853  0.00  0.00    +0.000 C 
ENDROOT
BRANCH   1   2
ATOM      2  N   UNL     1       2.308   5.032  19.882  0.00  0.00    +0.000 N 
ATOM      3  C   UNL     1       1.500   3.959  20.362  0.00  0.00    +0.000 C 
ATOM      4  O   UNL     1       0.275   3.979  20.242  0.00  0.00    +0.000 OA
ATOM      5  C   UNL     1       2.181   2.827  21.190  0.00  0.00    +0.000 C 
ATOM      6  C   UNL     1       3.344   2.623  20.329  0.00  0.00    +0.000 C 
ATOM      7  C   UNL     1       4.521   2.354  19.545  0.00  0.00    +0.000 C 
ATOM      8  C   UNL     1       4.380   3.596  18.587  0.00  0.00    +0.000 A 
ATOM      9  C   UNL     1       5.186   3.398  17.431  0.00  0.00    +0.000 A 
ATOM     10  C   UNL     1       5.262   4.373  16.471  0.00  0.00    +0.000 A 
ATOM     11 CL   UNL     1       6.140   4.062  15.018  0.00  0.00    +0.000 Cl
ATOM     12  C   UNL     1       4.599   5.581  16.689  0.00  0.00    +0.000 A 
ATOM     13  C   UNL     1       3.771   5.816  17.848  0.00  0.00    +0.000 A 
ATOM     14  C   UNL     1       3.547   4.830  18.833  0.00  0.00    +0.000 A 
ENDBRANCH   1   2
BRANCH   1  18
ATOM     15  C   UNL     1       0.654  10.314  19.462  0.00  0.00    +0.000 A 
ATOM     16  C   UNL     1       1.386   9.472  18.613  0.00  0.00    +0.000 A 
ATOM     17  C   UNL     1       1.894   8.187  19.046  0.00  0.00    +0.000 A 
ATOM     18  C   UNL     1       1.704   7.676  20.362  0.00  0.00    +0.000 A 
ATOM     19  C   UNL     1       0.941   8.531  21.185  0.00  0.00    +0.000 A 
ATOM     20  C   UNL     1       0.425   9.809  20.751  0.00  0.00    +0.000 A 
BRANCH  15  22
ATOM     21  O   UNL     1       0.393  12.712  19.559  0.00  0.00    +0.000 OA
ATOM     22  C   UNL     1       0.146  11.663  18.952  0.00  0.00    +0.000 C 
ATOM     23  N   UNL     1      -0.613  11.676  17.791  0.00  0.00    +0.000 N 
ATOM     24  H   UNL     1      -0.963  10.863  17.301  0.00  0.00    +0.000 HD
BRANCH  23  25
ATOM     25  O   UNL     1      -1.156  12.911  17.353  0.00  0.00    +0.000 OA
ATOM     26  H   UNL     1      -1.470  13.331  18.181  0.00  0.00    +0.000 HD
ENDBRANCH  23  25
ENDBRANCH  15  22
ENDBRANCH   1  18
TORSDOF 4
ENDMDL
MODEL 4
REMARK VINA RESULT:      -7.2      2.359      3.283
REMARK  Name = 
REMARK  4 active torsions:
REMARK  status: ('A' for Active; 'I' for Inactive)
REMARK    1  A    between atoms: C_2  and  C_5
REMARK    2  A    between atoms: N_3  and  O_4
REMARK    3  A    between atoms: C_8  and  C_9
REMARK    4  A    between atoms: C_9  and  N_10
REMARK                            x       y       z     vdW  Elec       q    Type
REMARK                         _______ _______ _______ _____ _____    ______ ____
ROOT
ATOM      1  C   UNL     1       2.736   5.994  19.176  0.00  0.00    +0.000 C 
ENDROOT
BRANCH   1   2
ATOM      2  N   UNL     1       2.905   5.147  17.918  0.00  0.00    +0.000 N 
ATOM      3  C   UNL     1       1.908   4.127  17.915  0.00  0.00    +0.000 C 
ATOM      4  O   UNL     1       0.738   4.380  17.626  0.00  0.00    +0.000 OA
ATOM      5  C   UNL     1       2.289   2.711  18.441  0.00  0.00    +0.000 C 
ATOM      6  C   UNL     1       3.565   2.576  17.742  0.00  0.00    +0.000 C 
ATOM      7  C   UNL     1       4.834   2.355  17.098  0.00  0.00    +0.000 C 
ATOM      8  C   UNL     1       5.015   3.825  16.564  0.00  0.00    +0.000 A 
ATOM      9  C   UNL     1       6.001   3.839  15.536  0.00  0.00    +0.000 A 
ATOM     10  C   UNL     1       6.365   5.022  14.950  0.00  0.00    +0.000 A 
ATOM     11 CL   UNL     1       7.465   5.003  13.620  0.00  0.00    +0.000 Cl
ATOM     12  C   UNL     1       5.810   6.208  15.432  0.00  0.00    +0.000 A 
ATOM     13  C   UNL     1       4.807   6.232  16.470  0.00  0.00    +0.000 A 
ATOM     14  C   UNL     1       4.292   5.055  17.055  0.00  0.00    +0.000 A 
ENDBRANCH   1   2
BRANCH   1  18
ATOM     15  C   UNL     1       1.019  10.261  19.018  0.00  0.00    +0.000 A 
ATOM     16  C   UNL     1       1.001   9.500  20.195  0.00  0.00    +0.000 A 
ATOM     17  C   UNL     1       1.518   8.149  20.251  0.00  0.00    +0.000 A 
ATOM     18  C   UNL     1       2.075   7.479  19.125  0.00  0.00    +0.000 A 
ATOM     19  C   UNL     1       2.106   8.277  17.962  0.00  0.00    +0.000 A 
ATOM     20  C   UNL     1       1.600   9.630  17.907  0.00  0.00    +0.000 A 
BRANCH  15  22
ATOM     21  O   UNL     1       0.698  12.471  19.936  0.00  0.00    +0.000 OA
ATOM     22  C   UNL     1       0.454  11.683  19.015  0.00  0.00    +0.000 C 
ATOM     23  N   UNL     1      -0.351  12.061  17.951  0.00  0.00    +0.000 N 
ATOM     24  H   UNL     1      -0.699  11.451  17.222  0.00  0.00    +0.000 HD
BRANCH  23  25
ATOM     25  O   UNL     1      -0.944  13.349  17.978  0.00  0.00    +0.000 OA
ATOM     26  H   UNL     1      -0.901  13.603  18.923  0.00  0.00    +0.000 HD
ENDBRANCH  23  25
ENDBRANCH  15  22
ENDBRANCH   1  18
TORSDOF 4
ENDMDL
MODEL 5
REMARK VINA RESULT:      -7.0      4.196      8.664
REMARK  Name = 
REMARK  4 active torsions:
REMARK  status: ('A' for Active; 'I' for Inactive)
REMARK    1  A    between atoms: C_2  and  C_5
REMARK    2  A    between atoms: N_3  and  O_4
REMARK    3  A    between atoms: C_8  and  C_9
REMARK    4  A    between atoms: C_9  and  N_10
REMARK                            x       y       z     vdW  Elec       q    Type
REMARK                         _______ _______ _______ _____ _____    ______ ____
ROOT
ATOM      1  C   UNL     1       0.773   8.349  20.394  0.00  0.00    +0.000 C 
ENDROOT
BRANCH   1   2
ATOM      2  N   UNL     1       0.839   9.736  21.030  0.00  0.00    +0.000 N 
ATOM      3  C   UNL     1       0.988   9.586  22.440  0.00  0.00    +0.000 C 
ATOM      4  O   UNL     1       2.069   9.271  22.938  0.00  0.00    +0.000 OA
ATOM      5  C   UNL     1      -0.285   9.670  23.337  0.00  0.00    +0.000 C 
ATOM      6  C   UNL     1      -0.883  10.852  22.723  0.00  0.00    +0.000 C 
ATOM      7  C   UNL     1      -1.550  12.008  22.179  0.00  0.00    +0.000 C 
ATOM      8  C   UNL     1      -0.632  12.156  20.909  0.00  0.00    +0.000 A 
ATOM      9  C   UNL     1      -0.788  13.460  20.359  0.00  0.00    +0.000 A 
ATOM     10  C   UNL     1      -0.122  13.807  19.214  0.00  0.00    +0.000 A 
ATOM     11 CL   UNL     1      -0.223  15.431  18.636  0.00  0.00    +0.000 Cl
ATOM     12  C   UNL     1       0.645  12.838  18.564  0.00  0.00    +0.000 A 
ATOM     13  C   UNL     1       0.828  11.508  19.093  0.00  0.00    +0.000 A 
ATOM     14  C   UNL     1       0.269  11.096  20.322  0.00  0.00    +0.000 A 
ENDBRANCH   1   2
BRANCH   1  18
ATOM     15  C   UNL     1       4.066   6.697  17.636  0.00  0.00    +0.000 A 
ATOM     16  C   UNL     1       3.684   6.034  18.811  0.00  0.00    +0.000 A 
ATOM     17  C   UNL     1       2.666   6.556  19.698  0.00  0.00    +0.000 A 
ATOM     18  C   UNL     1       1.976   7.779  19.460  0.00  0.00    +0.000 A 
ATOM     19  C   UNL     1       2.360   8.410  18.258  0.00  0.00    +0.000 A 
ATOM     20  C   UNL     1       3.370   7.885  17.367  0.00  0.00    +0.000 A 
BRANCH  15  22
ATOM     21  O   UNL     1       4.946   5.078  16.076  0.00  0.00    +0.000 OA
ATOM     22  C   UNL     1       5.152   6.102  16.738  0.00  0.00    +0.000 C 
ATOM     23  N   UNL     1       6.383   6.739  16.697  0.00  0.00    +0.000 N 
ATOM     24  H   UNL     1       6.678   7.503  17.291  0.00  0.00    +0.000 HD
BRANCH  23  25
ATOM     25  O   UNL     1       7.422   6.151  15.931  0.00  0.00    +0.000 OA
ATOM     26  H   UNL     1       8.141   6.816  15.968  0.00  0.00    +0.000 HD
ENDBRANCH  23  25
ENDBRANCH  15  22
ENDBRANCH   1  18
TORSDOF 4
ENDMDL
MODEL 6
REMARK VINA RESULT:      -7.0      4.333      8.716
REMARK  Name = 
REMARK  4 active torsions:
REMARK  status: ('A' for Active; 'I' for Inactive)
REMARK    1  A    between atoms: C_2  and  C_5
REMARK    2  A    between atoms: N_3  and  O_4
REMARK    3  A    between atoms: C_8  and  C_9
REMARK    4  A    between atoms: C_9  and  N_10
REMARK                            x       y       z     vdW  Elec       q    Type
REMARK                         _______ _______ _______ _____ _____    ______ ____
ROOT
ATOM      1  C   UNL     1       0.711   9.486  20.730  0.00  0.00    +0.000 C 
ENDROOT
BRANCH   1   2
ATOM      2  N   UNL     1       0.137  10.708  20.018  0.00  0.00    +0.000 N 
ATOM      3  C   UNL     1       0.576  11.882  20.697  0.00  0.00    +0.000 C 
ATOM      4  O   UNL     1       1.725  12.304  20.565  0.00  0.00    +0.000 OA
ATOM      5  C   UNL     1      -0.377  12.537  21.743  0.00  0.00    +0.000 C 
ATOM      6  C   UNL     1      -1.604  12.490  20.952  0.00  0.00    +0.000 C 
ATOM      7  C   UNL     1      -2.861  12.482  20.249  0.00  0.00    +0.000 C 
ATOM      8  C   UNL     1      -2.389  11.566  19.059  0.00  0.00    +0.000 A 
ATOM      9  C   UNL     1      -3.302  11.690  17.973  0.00  0.00    +0.000 A 
ATOM     10  C   UNL     1      -3.123  10.945  16.837  0.00  0.00    +0.000 A 
ATOM     11 CL   UNL     1      -4.164  11.203  15.485  0.00  0.00    +0.000 Cl
ATOM     12  C   UNL     1      -2.080  10.017  16.800  0.00  0.00    +0.000 A 
ATOM     13  C   UNL     1      -1.135   9.866  17.880  0.00  0.00    +0.000 A 
ATOM     14  C   UNL     1      -1.176  10.667  19.042  0.00  0.00    +0.000 A 
ENDBRANCH   1   2
BRANCH   1  18
ATOM     15  C   UNL     1       3.138   6.344  18.403  0.00  0.00    +0.000 A 
ATOM     16  C   UNL     1       2.638   6.089  19.688  0.00  0.00    +0.000 A 
ATOM     17  C   UNL     1       1.894   7.078  20.438  0.00  0.00    +0.000 A 
ATOM     18  C   UNL     1       1.613   8.384  19.945  0.00  0.00    +0.000 A 
ATOM     19  C   UNL     1       2.102   8.602  18.640  0.00  0.00    +0.000 A 
ATOM     20  C   UNL     1       2.838   7.613  17.886  0.00  0.00    +0.000 A 
BRANCH  15  22
ATOM     21  O   UNL     1       4.579   5.531  16.644  0.00  0.00    +0.000 OA
ATOM     22  C   UNL     1       3.923   5.263  17.658  0.00  0.00    +0.000 C 
ATOM     23  N   UNL     1       3.870   3.966  18.146  0.00  0.00    +0.000 N 
ATOM     24  H   UNL     1       3.269   3.635  18.890  0.00  0.00    +0.000 HD
BRANCH  23  25
ATOM     25  O   UNL     1       4.529   2.943  17.418  0.00  0.00    +0.000 OA
ATOM     26  H   UNL     1       5.470   3.049  17.670  0.00  0.00    +0.000 HD
ENDBRANCH  23  25
ENDBRANCH  15  22
ENDBRANCH   1  18
TORSDOF 4
ENDMDL
MODEL 7
REMARK VINA RESULT:      -6.9      3.169      4.869
REMARK  Name = 
REMARK  4 active torsions:
REMARK  status: ('A' for Active; 'I' for Inactive)
REMARK    1  A    between atoms: C_2  and  C_5
REMARK    2  A    between atoms: N_3  and  O_4
REMARK    3  A    between atoms: C_8  and  C_9
REMARK    4  A    between atoms: C_9  and  N_10
REMARK                            x       y       z     vdW  Elec       q    Type
REMARK                         _______ _______ _______ _____ _____    ______ ____
ROOT
ATOM      1  C   UNL     1       3.083   7.718  17.558  0.00  0.00    +0.000 C 
ENDROOT
BRANCH   1   2
ATOM      2  N   UNL     1       3.751   6.457  18.100  0.00  0.00    +0.000 N 
ATOM      3  C   UNL     1       4.978   6.252  17.402  0.00  0.00    +0.000 C 
ATOM      4  O   UNL     1       5.976   6.928  17.653  0.00  0.00    +0.000 OA
ATOM      5  C   UNL     1       4.993   5.263  16.197  0.00  0.00    +0.000 C 
ATOM      6  C   UNL     1       4.244   4.176  16.822  0.00  0.00    +0.000 C 
ATOM      7  C   UNL     1       3.513   3.055  17.354  0.00  0.00    +0.000 C 
ATOM      8  C   UNL     1       3.008   3.779  18.657  0.00  0.00    +0.000 A 
ATOM      9  C   UNL     1       2.574   2.807  19.602  0.00  0.00    +0.000 A 
ATOM     10  C   UNL     1       2.045   3.204  20.802  0.00  0.00    +0.000 A 
ATOM     11 CL   UNL     1       1.645   2.012  21.985  0.00  0.00    +0.000 Cl
ATOM     12  C   UNL     1       1.873   4.568  21.041  0.00  0.00    +0.000 A 
ATOM     13  C   UNL     1       2.303   5.581  20.107  0.00  0.00    +0.000 A 
ATOM     14  C   UNL     1       2.957   5.268  18.896  0.00  0.00    +0.000 A 
ENDBRANCH   1   2
BRANCH   1  18
ATOM     15  C   UNL     1       0.136  10.243  20.032  0.00  0.00    +0.000 A 
ATOM     16  C   UNL     1       0.942   9.258  20.621  0.00  0.00    +0.000 A 
ATOM     17  C   UNL     1       1.856   8.443  19.849  0.00  0.00    +0.000 A 
ATOM     18  C   UNL     1       2.009   8.562  18.438  0.00  0.00    +0.000 A 
ATOM     19  C   UNL     1       1.207   9.579  17.877  0.00  0.00    +0.000 A 
ATOM     20  C   UNL     1       0.301  10.400  18.647  0.00  0.00    +0.000 A 
BRANCH  15  22
ATOM     21  O   UNL     1      -1.679  11.795  20.384  0.00  0.00    +0.000 OA
ATOM     22  C   UNL     1      -0.816  11.072  20.895  0.00  0.00    +0.000 C 
ATOM     23  N   UNL     1      -0.676  10.998  22.273  0.00  0.00    +0.000 N 
ATOM     24  H   UNL     1       0.072  10.533  22.771  0.00  0.00    +0.000 HD
BRANCH  23  25
ATOM     25  O   UNL     1      -1.499  11.823  23.081  0.00  0.00    +0.000 OA
ATOM     26  H   UNL     1      -2.337  11.320  23.145  0.00  0.00    +0.000 HD
ENDBRANCH  23  25
ENDBRANCH  15  22
ENDBRANCH   1  18
TORSDOF 4
ENDMDL
MODEL 8
REMARK VINA RESULT:      -6.9      2.692      3.946
REMARK  Name = 
REMARK  4 active torsions:
REMARK  status: ('A' for Active; 'I' for Inactive)
REMARK    1  A    between atoms: C_2  and  C_5
REMARK    2  A    between atoms: N_3  and  O_4
REMARK    3  A    between atoms: C_8  and  C_9
REMARK    4  A    between atoms: C_9  and  N_10
REMARK                            x       y       z     vdW  Elec       q    Type
REMARK                         _______ _______ _______ _____ _____    ______ ____
ROOT
ATOM      1  C   UNL     1       2.253   6.864  20.565  0.00  0.00    +0.000 C 
ENDROOT
BRANCH   1   2
ATOM      2  N   UNL     1       2.373   5.604  19.712  0.00  0.00    +0.000 N 
ATOM      3  C   UNL     1       1.569   4.579  20.292  0.00  0.00    +0.000 C 
ATOM      4  O   UNL     1       0.344   4.583  20.171  0.00  0.00    +0.000 OA
ATOM      5  C   UNL     1       2.254   3.534  21.224  0.00  0.00    +0.000 C 
ATOM      6  C   UNL     1       3.417   3.252  20.387  0.00  0.00    +0.000 C 
ATOM      7  C   UNL     1       4.596   2.913  19.633  0.00  0.00    +0.000 C 
ATOM      8  C   UNL     1       4.451   4.056  18.561  0.00  0.00    +0.000 A 
ATOM      9  C   UNL     1       5.258   3.751  17.428  0.00  0.00    +0.000 A 
ATOM     10  C   UNL     1       5.331   4.630  16.380  0.00  0.00    +0.000 A 
ATOM     11 CL   UNL     1       6.211   4.184  14.963  0.00  0.00    +0.000 Cl
ATOM     12  C   UNL     1       4.664   5.852  16.481  0.00  0.00    +0.000 A 
ATOM     13  C   UNL     1       3.835   6.194  17.612  0.00  0.00    +0.000 A 
ATOM     14  C   UNL     1       3.614   5.306  18.687  0.00  0.00    +0.000 A 
ENDBRANCH   1   2
BRANCH   1  18
ATOM     15  C   UNL     1       0.134  10.670  19.081  0.00  0.00    +0.000 A 
ATOM     16  C   UNL     1      -0.051  10.179  20.382  0.00  0.00    +0.000 A 
ATOM     17  C   UNL     1       0.592   8.971  20.852  0.00  0.00    +0.000 A 
ATOM     18  C   UNL     1       1.454   8.179  20.041  0.00  0.00    +0.000 A 
ATOM     19  C   UNL     1       1.644   8.710  18.748  0.00  0.00    +0.000 A 
ATOM     20  C   UNL     1       1.010   9.922  18.280  0.00  0.00    +0.000 A 
BRANCH  15  22
ATOM     21  O   UNL     1      -1.641  11.907  18.009  0.00  0.00    +0.000 OA
ATOM     22  C   UNL     1      -0.576  11.949  18.636  0.00  0.00    +0.000 C 
ATOM     23  N   UNL     1       0.017  13.164  18.947  0.00  0.00    +0.000 N 
ATOM     24  H   UNL     1       0.938  13.291  19.347  0.00  0.00    +0.000 HD
BRANCH  23  25
ATOM     25  O   UNL     1      -0.590  14.354  18.470  0.00  0.00    +0.000 OA
ATOM     26  H   UNL     1       0.096  14.748  17.893  0.00  0.00    +0.000 HD
ENDBRANCH  23  25
ENDBRANCH  15  22
ENDBRANCH   1  18
TORSDOF 4
ENDMDL
MODEL 9
REMARK VINA RESULT:      -6.9      4.258      8.775
REMARK  Name = 
REMARK  4 active torsions:
REMARK  status: ('A' for Active; 'I' for Inactive)
REMARK    1  A    between atoms: C_2  and  C_5
REMARK    2  A    between atoms: N_3  and  O_4
REMARK    3  A    between atoms: C_8  and  C_9
REMARK    4  A    between atoms: C_9  and  N_10
REMARK                            x       y       z     vdW  Elec       q    Type
REMARK                         _______ _______ _______ _____ _____    ______ ____
ROOT
ATOM      1  C   UNL     1       0.939   9.786  20.942  0.00  0.00    +0.000 C 
ENDROOT
BRANCH   1   2
ATOM      2  N   UNL     1       0.308  10.949  20.181  0.00  0.00    +0.000 N 
ATOM      3  C   UNL     1       0.706  12.171  20.798  0.00  0.00    +0.000 C 
ATOM      4  O   UNL     1       1.835  12.632  20.630  0.00  0.00    +0.000 OA
ATOM      5  C   UNL     1      -0.260  12.837  21.824  0.00  0.00    +0.000 C 
ATOM      6  C   UNL     1      -1.493  12.702  21.053  0.00  0.00    +0.000 C 
ATOM      7  C   UNL     1      -2.757  12.610  20.369  0.00  0.00    +0.000 C 
ATOM      8  C   UNL     1      -2.262  11.658  19.217  0.00  0.00    +0.000 A 
ATOM      9  C   UNL     1      -3.192  11.693  18.139  0.00  0.00    +0.000 A 
ATOM     10  C   UNL     1      -2.996  10.902  17.037  0.00  0.00    +0.000 A 
ATOM     11 CL   UNL     1      -4.063  11.053  15.689  0.00  0.00    +0.000 Cl
ATOM     12  C   UNL     1      -1.918  10.016  17.031  0.00  0.00    +0.000 A 
ATOM     13  C   UNL     1      -0.954   9.956  18.103  0.00  0.00    +0.000 A 
ATOM     14  C   UNL     1      -1.014  10.809  19.226  0.00  0.00    +0.000 A 
ENDBRANCH   1   2
BRANCH   1  18
ATOM     15  C   UNL     1       2.558   5.999  18.889  0.00  0.00    +0.000 A 
ATOM     16  C   UNL     1       2.596   7.253  18.263  0.00  0.00    +0.000 A 
ATOM     17  C   UNL     1       2.069   8.447  18.890  0.00  0.00    +0.000 A 
ATOM     18  C   UNL     1       1.466   8.450  20.180  0.00  0.00    +0.000 A 
ATOM     19  C   UNL     1       1.466   7.181  20.797  0.00  0.00    +0.000 A 
ATOM     20  C   UNL     1       2.000   5.990  20.176  0.00  0.00    +0.000 A 
BRANCH  15  22
ATOM     21  O   UNL     1       2.382   3.955  17.616  0.00  0.00    +0.000 OA
ATOM     22  C   UNL     1       3.125   4.770  18.177  0.00  0.00    +0.000 C 
ATOM     23  N   UNL     1       4.500   4.588  18.188  0.00  0.00    +0.000 N 
ATOM     24  H   UNL     1       5.167   5.132  18.719  0.00  0.00    +0.000 HD
BRANCH  23  25
ATOM     25  O   UNL     1       5.030   3.411  17.601  0.00  0.00    +0.000 OA
ATOM     26  H   UNL     1       5.746   3.744  17.021  0.00  0.00    +0.000 HD
ENDBRANCH  23  25
ENDBRANCH  15  22
ENDBRANCH   1  18
TORSDOF 4
ENDMDL
