MODEL 1
REMARK VINA RESULT:      -6.7      0.000      0.000
REMARK  Name = 
REMARK  6 active torsions:
REMARK  status: ('A' for Active; 'I' for Inactive)
REMARK    1  A    between atoms: C_1  and  C_2
REMARK    2  A    between atoms: C_2  and  O_3
REMARK    3  A    between atoms: O_3  and  C_4
REMARK    4  A    between atoms: C_9  and  C_10
REMARK    5  A    between atoms: C_11  and  C_12
REMARK    6  A    between atoms: C_16  and  C_17
REMARK                            x       y       z     vdW  Elec       q    Type
REMARK                         _______ _______ _______ _____ _____    ______ ____
ROOT
ATOM      1  C   UNL     1       3.908   3.860  19.379  0.00  0.00    +0.000 C 
ATOM      2  O   UNL     1       5.007   3.330  19.457  0.00  0.00    +0.000 OA
ATOM      3  N   UNL     1       3.646   4.945  18.616  0.00  0.00    +0.000 N 
ATOM      4  C   UNL     1       4.542   5.797  17.859  0.00  0.00    +0.000 C 
ATOM      5  C   UNL     1       3.399   6.779  17.905  0.00  0.00    +0.000 C 
ATOM      6  C   UNL     1       3.273   8.084  17.655  0.00  0.00    +0.000 C 
ATOM      7  C   UNL     1       2.444   5.727  18.415  0.00  0.00    +0.000 C 
ENDROOT
BRANCH   6   8
ATOM      8  C   UNL     1       1.975   8.844  17.871  0.00  0.00    +0.000 C 
ATOM      9  C   UNL     1       0.861   9.495  18.057  0.00  0.00    +0.000 C 
BRANCH   9  10
ATOM     10  C   UNL     1      -0.366  10.198  18.257  0.00  0.00    +0.000 A 
ATOM     11  C   UNL     1      -0.541  11.031  19.353  0.00  0.00    +0.000 A 
ATOM     12  C   UNL     1      -1.759  11.687  19.483  0.00  0.00    +0.000 A 
ATOM     13  C   UNL     1      -2.749  11.485  18.525  0.00  0.00    +0.000 A 
ATOM     14  C   UNL     1      -2.492  10.625  17.460  0.00  0.00    +0.000 A 
ATOM     15  C   UNL     1      -3.528  10.372  16.408  0.00  0.00    +0.000 C 
ATOM     16  N   UNL     1      -1.308   9.980  17.314  0.00  0.00    +0.000 NA
ENDBRANCH   9  10
ENDBRANCH   6   8
BRANCH   1  17
ATOM     17  O   UNL     1       2.781   3.417  19.997  0.00  0.00    +0.000 OA
BRANCH  17  19
ATOM     18  C   UNL     1       0.842   2.493  18.965  0.00  0.00    +0.000 C 
ATOM     19  C   UNL     1       2.236   2.197  19.483  0.00  0.00    +0.000 C 
ENDBRANCH  17  19
ENDBRANCH   1  17
TORSDOF 4
ENDMDL
MODEL 2
REMARK VINA RESULT:      -6.6      0.694      1.607
REMARK  Name = 
REMARK  6 active torsions:
REMARK  status: ('A' for Active; 'I' for Inactive)
REMARK    1  A    between atoms: C_1  and  C_2
REMARK    2  A    between atoms: C_2  and  O_3
REMARK    3  A    between atoms: O_3  and  C_4
REMARK    4  A    between atoms: C_9  and  C_10
REMARK    5  A    between atoms: C_11  and  C_12
REMARK    6  A    between atoms: C_16  and  C_17
REMARK                            x       y       z     vdW  Elec       q    Type
REMARK                         _______ _______ _______ _____ _____    ______ ____
ROOT
ATOM      1  C   UNL     1       3.881   3.844  19.317  0.00  0.00    +0.000 C 
ATOM      2  O   UNL     1       4.989   3.338  19.433  0.00  0.00    +0.000 OA
ATOM      3  N   UNL     1       3.628   4.944  18.573  0.00  0.00    +0.000 N 
ATOM      4  C   UNL     1       4.536   5.838  17.884  0.00  0.00    +0.000 C 
ATOM      5  C   UNL     1       3.368   6.791  17.903  0.00  0.00    +0.000 C 
ATOM      6  C   UNL     1       3.220   8.099  17.683  0.00  0.00    +0.000 C 
ATOM      7  C   UNL     1       2.417   5.701  18.337  0.00  0.00    +0.000 C 
ENDROOT
BRANCH   6   8
ATOM      8  C   UNL     1       1.894   8.821  17.859  0.00  0.00    +0.000 C 
ATOM      9  C   UNL     1       0.757   9.440  18.009  0.00  0.00    +0.000 C 
BRANCH   9  10
ATOM     10  C   UNL     1      -0.482  10.131  18.174  0.00  0.00    +0.000 A 
ATOM     11  C   UNL     1      -1.538   9.921  17.299  0.00  0.00    +0.000 A 
ATOM     12  C   UNL     1      -2.717  10.623  17.522  0.00  0.00    +0.000 A 
ATOM     13  C   UNL     1      -2.794  11.505  18.596  0.00  0.00    +0.000 A 
ATOM     14  C   UNL     1      -1.682  11.661  19.421  0.00  0.00    +0.000 A 
ATOM     15  C   UNL     1      -1.716  12.602  20.586  0.00  0.00    +0.000 C 
ATOM     16  N   UNL     1      -0.526  10.981  19.223  0.00  0.00    +0.000 NA
ENDBRANCH   9  10
ENDBRANCH   6   8
BRANCH   1  17
ATOM     17  O   UNL     1       2.738   3.356  19.869  0.00  0.00    +0.000 OA
BRANCH  17  19
ATOM     18  C   UNL     1       0.811   2.388  18.853  0.00  0.00    +0.000 C 
ATOM     19  C   UNL     1       2.243   2.144  19.288  0.00  0.00    +0.000 C 
ENDBRANCH  17  19
ENDBRANCH   1  17
TORSDOF 4
ENDMDL
MODEL 3
REMARK VINA RESULT:      -6.6      3.451      7.857
REMARK  Name = 
REMARK  6 active torsions:
REMARK  status: ('A' for Active; 'I' for Inactive)
REMARK    1  A    between atoms: C_1  and  C_2
REMARK    2  A    between atoms: C_2  and  O_3
REMARK    3  A    between atoms: O_3  and  C_4
REMARK    4  A    between atoms: C_9  and  C_10
REMARK    5  A    between atoms: C_11  and  C_12
REMARK    6  A    between atoms: C_16  and  C_17
REMARK                            x       y       z     vdW  Elec       q    Type
REMARK                         _______ _______ _______ _____ _____    ______ ____
ROOT
ATOM      1  C   UNL     1      -0.746  11.826  18.508  0.00  0.00    +0.000 C 
ATOM      2  O   UNL     1      -0.737  12.963  18.058  0.00  0.00    +0.000 OA
ATOM      3  N   UNL     1       0.349  11.037  18.590  0.00  0.00    +0.000 N 
ATOM      4  C   UNL     1       1.691  11.242  18.081  0.00  0.00    +0.000 C 
ATOM      5  C   UNL     1       1.818   9.750  18.253  0.00  0.00    +0.000 C 
ATOM      6  C   UNL     1       2.683   8.827  17.828  0.00  0.00    +0.000 C 
ATOM      7  C   UNL     1       0.538   9.678  19.050  0.00  0.00    +0.000 C 
ENDROOT
BRANCH   6   8
ATOM      8  C   UNL     1       2.506   7.342  18.101  0.00  0.00    +0.000 C 
ATOM      9  C   UNL     1       2.356   6.069  18.335  0.00  0.00    +0.000 C 
BRANCH   9  10
ATOM     10  C   UNL     1       2.195   4.671  18.579  0.00  0.00    +0.000 A 
ATOM     11  C   UNL     1       2.356   3.745  17.558  0.00  0.00    +0.000 A 
ATOM     12  C   UNL     1       2.190   2.400  17.867  0.00  0.00    +0.000 A 
ATOM     13  C   UNL     1       1.868   2.034  19.171  0.00  0.00    +0.000 A 
ATOM     14  C   UNL     1       1.718   3.030  20.133  0.00  0.00    +0.000 A 
ATOM     15  C   UNL     1       1.366   2.685  21.548  0.00  0.00    +0.000 C 
ATOM     16  N   UNL     1       1.880   4.346  19.852  0.00  0.00    +0.000 NA
ENDBRANCH   9  10
ENDBRANCH   6   8
BRANCH   1  17
ATOM     17  O   UNL     1      -1.834  11.203  19.035  0.00  0.00    +0.000 OA
BRANCH  17  19
ATOM     18  C   UNL     1      -3.202   9.888  17.593  0.00  0.00    +0.000 C 
ATOM     19  C   UNL     1      -3.019  11.250  18.233  0.00  0.00    +0.000 C 
ENDBRANCH  17  19
ENDBRANCH   1  17
TORSDOF 4
ENDMDL
MODEL 4
REMARK VINA RESULT:      -6.5      3.720      7.970
REMARK  Name = 
REMARK  6 active torsions:
REMARK  status: ('A' for Active; 'I' for Inactive)
REMARK    1  A    between atoms: C_1  and  C_2
REMARK    2  A    between atoms: C_2  and  O_3
REMARK    3  A    between atoms: O_3  and  C_4
REMARK    4  A    between atoms: C_9  and  C_10
REMARK    5  A    between atoms: C_11  and  C_12
REMARK    6  A    between atoms: C_16  and  C_17
REMARK                            x       y       z     vdW  Elec       q    Type
REMARK                         _______ _______ _______ _____ _____    ______ ____
ROOT
ATOM      1  C   UNL     1      -0.428  11.706  20.281  0.00  0.00    +0.000 C 
ATOM      2  O   UNL     1      -0.662  12.859  19.947  0.00  0.00    +0.000 OA
ATOM      3  N   UNL     1       0.557  10.951  19.745  0.00  0.00    +0.000 N 
ATOM      4  C   UNL     1       1.437  11.217  18.625  0.00  0.00    +0.000 C 
ATOM      5  C   UNL     1       1.647   9.723  18.634  0.00  0.00    +0.000 C 
ATOM      6  C   UNL     1       2.171   8.845  17.778  0.00  0.00    +0.000 C 
ATOM      7  C   UNL     1       0.968   9.582  19.975  0.00  0.00    +0.000 C 
ENDROOT
BRANCH   6   8
ATOM      8  C   UNL     1       2.175   7.346  18.031  0.00  0.00    +0.000 C 
ATOM      9  C   UNL     1       2.177   6.061  18.249  0.00  0.00    +0.000 C 
BRANCH   9  10
ATOM     10  C   UNL     1       2.176   4.655  18.501  0.00  0.00    +0.000 A 
ATOM     11  C   UNL     1       2.447   3.748  17.487  0.00  0.00    +0.000 A 
ATOM     12  C   UNL     1       2.434   2.395  17.804  0.00  0.00    +0.000 A 
ATOM     13  C   UNL     1       2.148   2.002  19.109  0.00  0.00    +0.000 A 
ATOM     14  C   UNL     1       1.880   2.980  20.064  0.00  0.00    +0.000 A 
ATOM     15  C   UNL     1       1.562   2.606  21.479  0.00  0.00    +0.000 C 
ATOM     16  N   UNL     1       1.893   4.305  19.775  0.00  0.00    +0.000 NA
ENDBRANCH   9  10
ENDBRANCH   6   8
BRANCH   1  17
ATOM     17  O   UNL     1      -1.078  11.031  21.266  0.00  0.00    +0.000 OA
BRANCH  17  19
ATOM     18  C   UNL     1      -2.291  11.943  23.104  0.00  0.00    +0.000 C 
ATOM     19  C   UNL     1      -0.917  11.562  22.586  0.00  0.00    +0.000 C 
ENDBRANCH  17  19
ENDBRANCH   1  17
TORSDOF 4
ENDMDL
MODEL 5
REMARK VINA RESULT:      -6.4      1.392      1.757
REMARK  Name = 
REMARK  6 active torsions:
REMARK  status: ('A' for Active; 'I' for Inactive)
REMARK    1  A    between atoms: C_1  and  C_2
REMARK    2  A    between atoms: C_2  and  O_3
REMARK    3  A    between atoms: O_3  and  C_4
REMARK    4  A    between atoms: C_9  and  C_10
REMARK    5  A    between atoms: C_11  and  C_12
REMARK    6  A    between atoms: C_16  and  C_17
REMARK                            x       y       z     vdW  Elec       q    Type
REMARK                         _______ _______ _______ _____ _____    ______ ____
ROOT
ATOM      1  C   UNL     1       2.714   2.604  18.783  0.00  0.00    +0.000 C 
ATOM      2  O   UNL     1       3.540   1.705  18.862  0.00  0.00    +0.000 OA
ATOM      3  N   UNL     1       2.938   3.783  18.161  0.00  0.00    +0.000 N 
ATOM      4  C   UNL     1       4.156   4.325  17.592  0.00  0.00    +0.000 C 
ATOM      5  C   UNL     1       3.435   5.645  17.696  0.00  0.00    +0.000 C 
ATOM      6  C   UNL     1       3.804   6.925  17.620  0.00  0.00    +0.000 C 
ATOM      7  C   UNL     1       2.119   4.964  17.989  0.00  0.00    +0.000 C 
ENDROOT
BRANCH   6   8
ATOM      8  C   UNL     1       2.841   8.077  17.851  0.00  0.00    +0.000 C 
ATOM      9  C   UNL     1       2.015   9.066  18.049  0.00  0.00    +0.000 C 
BRANCH   9  10
ATOM     10  C   UNL     1       1.099  10.142  18.259  0.00  0.00    +0.000 A 
ATOM     11  C   UNL     1       1.546  11.388  18.673  0.00  0.00    +0.000 A 
ATOM     12  C   UNL     1       0.601  12.391  18.853  0.00  0.00    +0.000 A 
ATOM     13  C   UNL     1      -0.743  12.113  18.619  0.00  0.00    +0.000 A 
ATOM     14  C   UNL     1      -1.105  10.831  18.212  0.00  0.00    +0.000 A 
ATOM     15  C   UNL     1      -2.539  10.483  17.953  0.00  0.00    +0.000 C 
ATOM     16  N   UNL     1      -0.197   9.841  18.026  0.00  0.00    +0.000 NA
ENDBRANCH   9  10
ENDBRANCH   6   8
BRANCH   1  17
ATOM     17  O   UNL     1       1.441   2.538  19.257  0.00  0.00    +0.000 OA
BRANCH  17  19
ATOM     18  C   UNL     1       1.899   3.570  21.357  0.00  0.00    +0.000 C 
ATOM     19  C   UNL     1       1.320   2.347  20.671  0.00  0.00    +0.000 C 
ENDBRANCH  17  19
ENDBRANCH   1  17
TORSDOF 4
ENDMDL
MODEL 6
REMARK VINA RESULT:      -6.4      5.264      7.845
REMARK  Name = 
REMARK  6 active torsions:
REMARK  status: ('A' for Active; 'I' for Inactive)
REMARK    1  A    between atoms: C_1  and  C_2
REMARK    2  A    between atoms: C_2  and  O_3
REMARK    3  A    between atoms: O_3  and  C_4
REMARK    4  A    between atoms: C_9  and  C_10
REMARK    5  A    between atoms: C_11  and  C_12
REMARK    6  A    between atoms: C_16  and  C_17
REMARK                            x       y       z     vdW  Elec       q    Type
REMARK                         _______ _______ _______ _____ _____    ______ ____
ROOT
ATOM      1  C   UNL     1       3.028   5.491  17.852  0.00  0.00    +0.000 C 
ATOM      2  O   UNL     1       2.600   4.369  17.620  0.00  0.00    +0.000 OA
ATOM      3  N   UNL     1       4.206   5.961  17.385  0.00  0.00    +0.000 N 
ATOM      4  C   UNL     1       5.266   5.283  16.665  0.00  0.00    +0.000 C 
ATOM      5  C   UNL     1       6.109   6.449  17.115  0.00  0.00    +0.000 C 
ATOM      6  C   UNL     1       7.419   6.697  17.160  0.00  0.00    +0.000 C 
ATOM      7  C   UNL     1       4.893   7.222  17.568  0.00  0.00    +0.000 C 
ENDROOT
BRANCH   6   8
ATOM      8  C   UNL     1       7.998   7.969  17.759  0.00  0.00    +0.000 C 
ATOM      9  C   UNL     1       8.494   9.059  18.272  0.00  0.00    +0.000 C 
BRANCH   9  10
ATOM     10  C   UNL     1       9.041  10.259  18.821  0.00  0.00    +0.000 A 
ATOM     11  C   UNL     1       9.187  10.415  20.191  0.00  0.00    +0.000 A 
ATOM     12  C   UNL     1       9.731  11.606  20.656  0.00  0.00    +0.000 A 
ATOM     13  C   UNL     1      10.100  12.590  19.744  0.00  0.00    +0.000 A 
ATOM     14  C   UNL     1       9.912  12.354  18.384  0.00  0.00    +0.000 A 
ATOM     15  C   UNL     1      10.290  13.384  17.365  0.00  0.00    +0.000 C 
ATOM     16  N   UNL     1       9.388  11.196  17.911  0.00  0.00    +0.000 NA
ENDBRANCH   9  10
ENDBRANCH   6   8
BRANCH   1  17
ATOM     17  O   UNL     1       2.372   6.446  18.564  0.00  0.00    +0.000 OA
BRANCH  17  19
ATOM     18  C   UNL     1       1.740   7.451  20.631  0.00  0.00    +0.000 C 
ATOM     19  C   UNL     1       2.229   6.180  19.964  0.00  0.00    +0.000 C 
ENDBRANCH  17  19
ENDBRANCH   1  17
TORSDOF 4
ENDMDL
MODEL 7
REMARK VINA RESULT:      -6.3      5.025      7.303
REMARK  Name = 
REMARK  6 active torsions:
REMARK  status: ('A' for Active; 'I' for Inactive)
REMARK    1  A    between atoms: C_1  and  C_2
REMARK    2  A    between atoms: C_2  and  O_3
REMARK    3  A    between atoms: O_3  and  C_4
REMARK    4  A    between atoms: C_9  and  C_10
REMARK    5  A    between atoms: C_11  and  C_12
REMARK    6  A    between atoms: C_16  and  C_17
REMARK                            x       y       z     vdW  Elec       q    Type
REMARK                         _______ _______ _______ _____ _____    ______ ____
ROOT
ATOM      1  C   UNL     1       3.377   4.407  18.317  0.00  0.00    +0.000 C 
ATOM      2  O   UNL     1       3.072   3.257  18.034  0.00  0.00    +0.000 OA
ATOM      3  N   UNL     1       4.315   5.123  17.658  0.00  0.00    +0.000 N 
ATOM      4  C   UNL     1       5.243   4.720  16.620  0.00  0.00    +0.000 C 
ATOM      5  C   UNL     1       5.993   5.964  17.022  0.00  0.00    +0.000 C 
ATOM      6  C   UNL     1       7.221   6.435  16.792  0.00  0.00    +0.000 C 
ATOM      7  C   UNL     1       4.835   6.460  17.853  0.00  0.00    +0.000 C 
ENDROOT
BRANCH   6   8
ATOM      8  C   UNL     1       7.742   7.720  17.414  0.00  0.00    +0.000 C 
ATOM      9  C   UNL     1       8.189   8.823  17.946  0.00  0.00    +0.000 C 
BRANCH   9  10
ATOM     10  C   UNL     1       8.688  10.032  18.519  0.00  0.00    +0.000 A 
ATOM     11  C   UNL     1       9.364  10.022  19.730  0.00  0.00    +0.000 A 
ATOM     12  C   UNL     1       9.826  11.235  20.227  0.00  0.00    +0.000 A 
ATOM     13  C   UNL     1       9.594  12.402  19.505  0.00  0.00    +0.000 A 
ATOM     14  C   UNL     1       8.900  12.322  18.300  0.00  0.00    +0.000 A 
ATOM     15  C   UNL     1       8.622  13.551  17.489  0.00  0.00    +0.000 C 
ATOM     16  N   UNL     1       8.445  11.148  17.796  0.00  0.00    +0.000 NA
ENDBRANCH   9  10
ENDBRANCH   6   8
BRANCH   1  17
ATOM     17  O   UNL     1       2.792   5.153  19.292  0.00  0.00    +0.000 OA
BRANCH  17  19
ATOM     18  C   UNL     1       2.078   4.079  21.297  0.00  0.00    +0.000 C 
ATOM     19  C   UNL     1       1.652   4.558  19.922  0.00  0.00    +0.000 C 
ENDBRANCH  17  19
ENDBRANCH   1  17
TORSDOF 4
ENDMDL
MODEL 8
REMARK VINA RESULT:      -6.3      1.880      2.708
REMARK  Name = 
REMARK  6 active torsions:
REMARK  status: ('A' for Active; 'I' for Inactive)
REMARK    1  A    between atoms: C_1  and  C_2
REMARK    2  A    between atoms: C_2  and  O_3
REMARK    3  A    between atoms: O_3  and  C_4
REMARK    4  A    between atoms: C_9  and  C_10
REMARK    5  A    between atoms: C_11  and  C_12
REMARK    6  A    between atoms: C_16  and  C_17
REMARK                            x       y       z     vdW  Elec       q    Type
REMARK                         _______ _______ _______ _____ _____    ______ ____
ROOT
ATOM      1  C   UNL     1       3.190   2.161  18.613  0.00  0.00    +0.000 C 
ATOM      2  O   UNL     1       4.015   1.259  18.651  0.00  0.00    +0.000 OA
ATOM      3  N   UNL     1       3.385   3.335  17.973  0.00  0.00    +0.000 N 
ATOM      4  C   UNL     1       4.572   3.868  17.333  0.00  0.00    +0.000 C 
ATOM      5  C   UNL     1       3.863   5.192  17.469  0.00  0.00    +0.000 C 
ATOM      6  C   UNL     1       4.234   6.469  17.365  0.00  0.00    +0.000 C 
ATOM      7  C   UNL     1       2.563   4.519  17.840  0.00  0.00    +0.000 C 
ENDROOT
BRANCH   6   8
ATOM      8  C   UNL     1       3.291   7.628  17.643  0.00  0.00    +0.000 C 
ATOM      9  C   UNL     1       2.481   8.622  17.881  0.00  0.00    +0.000 C 
BRANCH   9  10
ATOM     10  C   UNL     1       1.584   9.703  18.135  0.00  0.00    +0.000 A 
ATOM     11  C   UNL     1       0.210   9.515  18.096  0.00  0.00    +0.000 A 
ATOM     12  C   UNL     1      -0.605  10.610  18.359  0.00  0.00    +0.000 A 
ATOM     13  C   UNL     1      -0.022  11.841  18.643  0.00  0.00    +0.000 A 
ATOM     14  C   UNL     1       1.367  11.943  18.655  0.00  0.00    +0.000 A 
ATOM     15  C   UNL     1       2.040  13.249  18.950  0.00  0.00    +0.000 C 
ATOM     16  N   UNL     1       2.178  10.885  18.406  0.00  0.00    +0.000 NA
ENDBRANCH   9  10
ENDBRANCH   6   8
BRANCH   1  17
ATOM     17  O   UNL     1       1.946   2.104  19.158  0.00  0.00    +0.000 OA
BRANCH  17  19
ATOM     18  C   UNL     1       1.171   3.421  20.987  0.00  0.00    +0.000 C 
ATOM     19  C   UNL     1       1.897   2.151  20.588  0.00  0.00    +0.000 C 
ENDBRANCH  17  19
ENDBRANCH   1  17
TORSDOF 4
ENDMDL
MODEL 9
REMARK VINA RESULT:      -6.3      1.456      2.135
REMARK  Name = 
REMARK  6 active torsions:
REMARK  status: ('A' for Active; 'I' for Inactive)
REMARK    1  A    between atoms: C_1  and  C_2
REMARK    2  A    between atoms: C_2  and  O_3
REMARK    3  A    between atoms: O_3  and  C_4
REMARK    4  A    between atoms: C_9  and  C_10
REMARK    5  A    between atoms: C_11  and  C_12
REMARK    6  A    between atoms: C_16  and  C_17
REMARK                            x       y       z     vdW  Elec       q    Type
REMARK                         _______ _______ _______ _____ _____    ______ ____
ROOT
ATOM      1  C   UNL     1       2.943   2.833  19.007  0.00  0.00    +0.000 C 
ATOM      2  O   UNL     1       3.871   2.049  19.154  0.00  0.00    +0.000 OA
ATOM      3  N   UNL     1       3.048   4.014  18.359  0.00  0.00    +0.000 N 
ATOM      4  C   UNL     1       4.215   4.692  17.831  0.00  0.00    +0.000 C 
ATOM      5  C   UNL     1       3.328   5.911  17.857  0.00  0.00    +0.000 C 
ATOM      6  C   UNL     1       3.537   7.225  17.757  0.00  0.00    +0.000 C 
ATOM      7  C   UNL     1       2.096   5.076  18.110  0.00  0.00    +0.000 C 
ENDROOT
BRANCH   6   8
ATOM      8  C   UNL     1       2.425   8.251  17.905  0.00  0.00    +0.000 C 
ATOM      9  C   UNL     1       1.471   9.131  18.032  0.00  0.00    +0.000 C 
BRANCH   9  10
ATOM     10  C   UNL     1       0.417  10.084  18.167  0.00  0.00    +0.000 A 
ATOM     11  C   UNL     1      -0.870   9.792  17.739  0.00  0.00    +0.000 A 
ATOM     12  C   UNL     1      -1.848  10.765  17.906  0.00  0.00    +0.000 A 
ATOM     13  C   UNL     1      -1.507  11.984  18.484  0.00  0.00    +0.000 A 
ATOM     14  C   UNL     1      -0.188  12.197  18.879  0.00  0.00    +0.000 A 
ATOM     15  C   UNL     1       0.228  13.495  19.501  0.00  0.00    +0.000 C 
ATOM     16  N   UNL     1       0.779  11.258  18.729  0.00  0.00    +0.000 NA
ENDBRANCH   9  10
ENDBRANCH   6   8
BRANCH   1  17
ATOM     17  O   UNL     1       1.666   2.618  19.423  0.00  0.00    +0.000 OA
BRANCH  17  19
ATOM     18  C   UNL     1       1.620   2.488  21.803  0.00  0.00    +0.000 C 
ATOM     19  C   UNL     1       1.271   3.338  20.596  0.00  0.00    +0.000 C 
ENDBRANCH  17  19
ENDBRANCH   1  17
TORSDOF 4
ENDMDL
