MODEL 1
REMARK VINA RESULT:      -8.7      0.000      0.000
REMARK  Name = 
REMARK  1 active torsions:
REMARK  status: ('A' for Active; 'I' for Inactive)
REMARK    1  A    between atoms: C_4  and  C_5
REMARK                            x       y       z     vdW  Elec       q    Type
REMARK                         _______ _______ _______ _____ _____    ______ ____
ROOT
ATOM      1  O   UNL     1       3.849   2.287  21.298  0.00  0.00    +0.000 OA
ATOM      2  C   UNL     1       3.355   2.602  20.215  0.00  0.00    +0.000 C 
ATOM      3  C   UNL     1       1.838   2.507  20.006  0.00  0.00    +0.000 C 
ATOM      4  C   UNL     1       1.451   3.483  18.876  0.00  0.00    +0.000 C 
ATOM      5  C   UNL     1       2.138   2.851  17.653  0.00  0.00    +0.000 C 
ATOM      6  C   UNL     1       3.617   3.115  17.711  0.00  0.00    +0.000 C 
ATOM      7  N   UNL     1       4.095   3.337  16.546  0.00  0.00    +0.000 NA
ATOM      8  C   UNL     1       5.347   3.828  16.219  0.00  0.00    +0.000 A 
ATOM      9  C   UNL     1       5.525   3.890  14.822  0.00  0.00    +0.000 A 
ATOM     10  C   UNL     1       6.592   4.561  14.247  0.00  0.00    +0.000 A 
ATOM     11  C   UNL     1       7.524   5.157  15.082  0.00  0.00    +0.000 A 
ATOM     12  C   UNL     1       7.387   5.061  16.474  0.00  0.00    +0.000 A 
ATOM     13  C   UNL     1       6.295   4.398  17.077  0.00  0.00    +0.000 A 
ATOM     14  N   UNL     1       6.234   4.387  18.487  0.00  0.00    +0.000 N 
ATOM     15  C   UNL     1       5.347   3.751  19.321  0.00  0.00    +0.000 C 
ATOM     16  C   UNL     1       4.201   3.106  19.075  0.00  0.00    +0.000 C 
ATOM     17  H   UNL     1       6.990   4.880  18.953  0.00  0.00    +0.000 HD
ENDROOT
BRANCH   4  18
ATOM     18  C   UNL     1       1.720   4.957  19.286  0.00  0.00    +0.000 A 
ATOM     19  C   UNL     1       1.385   5.390  20.595  0.00  0.00    +0.000 A 
ATOM     20  C   UNL     1       1.464   6.722  20.999  0.00  0.00    +0.000 A 
ATOM     21  C   UNL     1       1.882   7.672  20.093  0.00  0.00    +0.000 A 
ATOM     22  F   UNL     1       1.880   8.962  20.453  0.00  0.00    +0.000 F 
ATOM     23  C   UNL     1       2.278   7.297  18.814  0.00  0.00    +0.000 A 
ATOM     24  C   UNL     1       2.199   5.943  18.410  0.00  0.00    +0.000 A 
ENDBRANCH   4  18
TORSDOF 1
ENDMDL
MODEL 2
REMARK VINA RESULT:      -8.4      0.346      1.056
REMARK  Name = 
REMARK  1 active torsions:
REMARK  status: ('A' for Active; 'I' for Inactive)
REMARK    1  A    between atoms: C_4  and  C_5
REMARK                            x       y       z     vdW  Elec       q    Type
REMARK                         _______ _______ _______ _____ _____    ______ ____
ROOT
ATOM      1  O   UNL     1       3.852   2.213  21.376  0.00  0.00    +0.000 OA
ATOM      2  C   UNL     1       3.382   2.441  20.261  0.00  0.00    +0.000 C 
ATOM      3  C   UNL     1       1.900   2.161  19.979  0.00  0.00    +0.000 C 
ATOM      4  C   UNL     1       1.461   3.057  18.803  0.00  0.00    +0.000 C 
ATOM      5  C   UNL     1       2.281   2.481  17.635  0.00  0.00    +0.000 C 
ATOM      6  C   UNL     1       3.714   2.920  17.758  0.00  0.00    +0.000 C 
ATOM      7  N   UNL     1       4.224   3.169  16.612  0.00  0.00    +0.000 NA
ATOM      8  C   UNL     1       5.425   3.797  16.333  0.00  0.00    +0.000 A 
ATOM      9  C   UNL     1       5.668   3.846  14.946  0.00  0.00    +0.000 A 
ATOM     10  C   UNL     1       6.678   4.625  14.404  0.00  0.00    +0.000 A 
ATOM     11  C   UNL     1       7.488   5.348  15.266  0.00  0.00    +0.000 A 
ATOM     12  C   UNL     1       7.290   5.270  16.651  0.00  0.00    +0.000 A 
ATOM     13  C   UNL     1       6.253   4.497  17.220  0.00  0.00    +0.000 A 
ATOM     14  N   UNL     1       6.119   4.513  18.624  0.00  0.00    +0.000 N 
ATOM     15  C   UNL     1       5.270   3.797  19.432  0.00  0.00    +0.000 C 
ATOM     16  C   UNL     1       4.222   3.014  19.149  0.00  0.00    +0.000 C 
ATOM     17  H   UNL     1       6.787   5.103  19.112  0.00  0.00    +0.000 HD
ENDROOT
BRANCH   4  18
ATOM     18  C   UNL     1       1.533   4.562  19.181  0.00  0.00    +0.000 A 
ATOM     19  C   UNL     1       1.932   5.509  18.203  0.00  0.00    +0.000 A 
ATOM     20  C   UNL     1       2.156   6.855  18.494  0.00  0.00    +0.000 A 
ATOM     21  C   UNL     1       1.988   7.295  19.789  0.00  0.00    +0.000 A 
ATOM     22  F   UNL     1       2.281   8.567  20.088  0.00  0.00    +0.000 F 
ATOM     23  C   UNL     1       1.543   6.423  20.776  0.00  0.00    +0.000 A 
ATOM     24  C   UNL     1       1.314   5.059  20.474  0.00  0.00    +0.000 A 
ENDBRANCH   4  18
TORSDOF 1
ENDMDL
MODEL 3
REMARK VINA RESULT:      -8.0      3.050      6.165
REMARK  Name = 
REMARK  1 active torsions:
REMARK  status: ('A' for Active; 'I' for Inactive)
REMARK    1  A    between atoms: C_4  and  C_5
REMARK                            x       y       z     vdW  Elec       q    Type
REMARK                         _______ _______ _______ _____ _____    ______ ____
ROOT
ATOM      1  O   UNL     1       8.205   5.251  19.117  0.00  0.00    +0.000 OA
ATOM      2  C   UNL     1       7.158   5.686  18.637  0.00  0.00    +0.000 C 
ATOM      3  C   UNL     1       7.170   6.977  17.809  0.00  0.00    +0.000 C 
ATOM      4  C   UNL     1       5.945   6.953  16.871  0.00  0.00    +0.000 C 
ATOM      5  C   UNL     1       4.775   7.041  17.866  0.00  0.00    +0.000 C 
ATOM      6  C   UNL     1       4.590   5.713  18.547  0.00  0.00    +0.000 C 
ATOM      7  N   UNL     1       3.352   5.455  18.734  0.00  0.00    +0.000 NA
ATOM      8  C   UNL     1       2.780   4.255  19.122  0.00  0.00    +0.000 A 
ATOM      9  C   UNL     1       1.384   4.376  19.269  0.00  0.00    +0.000 A 
ATOM     10  C   UNL     1       0.563   3.269  19.418  0.00  0.00    +0.000 A 
ATOM     11  C   UNL     1       1.149   2.013  19.455  0.00  0.00    +0.000 A 
ATOM     12  C   UNL     1       2.541   1.882  19.360  0.00  0.00    +0.000 A 
ATOM     13  C   UNL     1       3.392   2.998  19.188  0.00  0.00    +0.000 A 
ATOM     14  N   UNL     1       4.777   2.753  19.070  0.00  0.00    +0.000 N 
ATOM     15  C   UNL     1       5.819   3.642  18.986  0.00  0.00    +0.000 C 
ATOM     16  C   UNL     1       5.845   4.970  18.821  0.00  0.00    +0.000 C 
ATOM     17  H   UNL     1       5.043   1.773  19.107  0.00  0.00    +0.000 HD
ENDROOT
BRANCH   4  18
ATOM     18  C   UNL     1       6.048   5.798  15.837  0.00  0.00    +0.000 A 
ATOM     19  C   UNL     1       7.262   5.598  15.132  0.00  0.00    +0.000 A 
ATOM     20  C   UNL     1       7.395   4.678  14.093  0.00  0.00    +0.000 A 
ATOM     21  C   UNL     1       6.302   3.925  13.722  0.00  0.00    +0.000 A 
ATOM     22  F   UNL     1       6.404   3.101  12.672  0.00  0.00    +0.000 F 
ATOM     23  C   UNL     1       5.102   4.039  14.417  0.00  0.00    +0.000 A 
ATOM     24  C   UNL     1       4.974   4.972  15.473  0.00  0.00    +0.000 A 
ENDBRANCH   4  18
TORSDOF 1
ENDMDL
MODEL 4
REMARK VINA RESULT:      -7.5      2.741      5.520
REMARK  Name = 
REMARK  1 active torsions:
REMARK  status: ('A' for Active; 'I' for Inactive)
REMARK    1  A    between atoms: C_4  and  C_5
REMARK                            x       y       z     vdW  Elec       q    Type
REMARK                         _______ _______ _______ _____ _____    ______ ____
ROOT
ATOM      1  O   UNL     1       6.252   4.655  19.882  0.00  0.00    +0.000 OA
ATOM      2  C   UNL     1       5.626   5.008  18.882  0.00  0.00    +0.000 C 
ATOM      3  C   UNL     1       5.967   4.408  17.511  0.00  0.00    +0.000 C 
ATOM      4  C   UNL     1       4.718   4.532  16.614  0.00  0.00    +0.000 C 
ATOM      5  C   UNL     1       4.592   6.056  16.445  0.00  0.00    +0.000 C 
ATOM      6  C   UNL     1       4.048   6.662  17.709  0.00  0.00    +0.000 C 
ATOM      7  N   UNL     1       3.247   7.626  17.455  0.00  0.00    +0.000 NA
ATOM      8  C   UNL     1       2.392   8.275  18.329  0.00  0.00    +0.000 A 
ATOM      9  C   UNL     1       1.700   9.321  17.687  0.00  0.00    +0.000 A 
ATOM     10  C   UNL     1       0.624   9.962  18.279  0.00  0.00    +0.000 A 
ATOM     11  C   UNL     1       0.246   9.575  19.555  0.00  0.00    +0.000 A 
ATOM     12  C   UNL     1       0.956   8.569  20.226  0.00  0.00    +0.000 A 
ATOM     13  C   UNL     1       2.043   7.892  19.629  0.00  0.00    +0.000 A 
ATOM     14  N   UNL     1       2.669   6.872  20.378  0.00  0.00    +0.000 N 
ATOM     15  C   UNL     1       3.784   6.127  20.083  0.00  0.00    +0.000 C 
ATOM     16  C   UNL     1       4.505   6.011  18.962  0.00  0.00    +0.000 C 
ATOM     17  H   UNL     1       2.264   6.703  21.294  0.00  0.00    +0.000 HD
ENDROOT
BRANCH   4  18
ATOM     18  C   UNL     1       3.543   3.676  17.160  0.00  0.00    +0.000 A 
ATOM     19  C   UNL     1       2.249   4.248  17.259  0.00  0.00    +0.000 A 
ATOM     20  C   UNL     1       1.173   3.598  17.863  0.00  0.00    +0.000 A 
ATOM     21  C   UNL     1       1.366   2.342  18.397  0.00  0.00    +0.000 A 
ATOM     22  F   UNL     1       0.358   1.750  19.050  0.00  0.00    +0.000 F 
ATOM     23  C   UNL     1       2.598   1.709  18.277  0.00  0.00    +0.000 A 
ATOM     24  C   UNL     1       3.685   2.372  17.659  0.00  0.00    +0.000 A 
ENDBRANCH   4  18
TORSDOF 1
ENDMDL
MODEL 5
REMARK VINA RESULT:      -7.2      2.990      6.028
REMARK  Name = 
REMARK  1 active torsions:
REMARK  status: ('A' for Active; 'I' for Inactive)
REMARK    1  A    between atoms: C_4  and  C_5
REMARK                            x       y       z     vdW  Elec       q    Type
REMARK                         _______ _______ _______ _____ _____    ______ ____
ROOT
ATOM      1  O   UNL     1       8.270   5.255  19.170  0.00  0.00    +0.000 OA
ATOM      2  C   UNL     1       7.226   5.733  18.723  0.00  0.00    +0.000 C 
ATOM      3  C   UNL     1       7.246   7.093  18.014  0.00  0.00    +0.000 C 
ATOM      4  C   UNL     1       6.029   7.157  17.070  0.00  0.00    +0.000 C 
ATOM      5  C   UNL     1       4.851   7.157  18.060  0.00  0.00    +0.000 C 
ATOM      6  C   UNL     1       4.659   5.774  18.618  0.00  0.00    +0.000 C 
ATOM      7  N   UNL     1       3.419   5.503  18.772  0.00  0.00    +0.000 NA
ATOM      8  C   UNL     1       2.843   4.274  19.046  0.00  0.00    +0.000 A 
ATOM      9  C   UNL     1       1.446   4.384  19.194  0.00  0.00    +0.000 A 
ATOM     10  C   UNL     1       0.623   3.271  19.237  0.00  0.00    +0.000 A 
ATOM     11  C   UNL     1       1.206   2.015  19.165  0.00  0.00    +0.000 A 
ATOM     12  C   UNL     1       2.599   1.890  19.068  0.00  0.00    +0.000 A 
ATOM     13  C   UNL     1       3.452   3.015  19.003  0.00  0.00    +0.000 A 
ATOM     14  N   UNL     1       4.837   2.778  18.874  0.00  0.00    +0.000 N 
ATOM     15  C   UNL     1       5.882   3.669  18.877  0.00  0.00    +0.000 C 
ATOM     16  C   UNL     1       5.911   5.006  18.832  0.00  0.00    +0.000 C 
ATOM     17  H   UNL     1       5.102   1.799  18.824  0.00  0.00    +0.000 HD
ENDROOT
BRANCH   4  18
ATOM     18  C   UNL     1       6.137   6.099  15.937  0.00  0.00    +0.000 A 
ATOM     19  C   UNL     1       4.955   5.511  15.416  0.00  0.00    +0.000 A 
ATOM     20  C   UNL     1       4.969   4.459  14.501  0.00  0.00    +0.000 A 
ATOM     21  C   UNL     1       6.181   3.956  14.078  0.00  0.00    +0.000 A 
ATOM     22  F   UNL     1       6.198   2.894  13.264  0.00  0.00    +0.000 F 
ATOM     23  C   UNL     1       7.371   4.533  14.512  0.00  0.00    +0.000 A 
ATOM     24  C   UNL     1       7.350   5.602  15.438  0.00  0.00    +0.000 A 
ENDBRANCH   4  18
TORSDOF 1
ENDMDL
MODEL 6
REMARK VINA RESULT:      -7.1      3.023      5.994
REMARK  Name = 
REMARK  1 active torsions:
REMARK  status: ('A' for Active; 'I' for Inactive)
REMARK    1  A    between atoms: C_4  and  C_5
REMARK                            x       y       z     vdW  Elec       q    Type
REMARK                         _______ _______ _______ _____ _____    ______ ____
ROOT
ATOM      1  O   UNL     1       4.510   7.109  14.789  0.00  0.00    +0.000 OA
ATOM      2  C   UNL     1       5.014   6.178  15.418  0.00  0.00    +0.000 C 
ATOM      3  C   UNL     1       6.317   5.534  14.925  0.00  0.00    +0.000 C 
ATOM      4  C   UNL     1       7.012   4.878  16.135  0.00  0.00    +0.000 C 
ATOM      5  C   UNL     1       6.033   3.748  16.497  0.00  0.00    +0.000 C 
ATOM      6  C   UNL     1       4.827   4.324  17.187  0.00  0.00    +0.000 C 
ATOM      7  N   UNL     1       4.414   3.554  18.120  0.00  0.00    +0.000 NA
ATOM      8  C   UNL     1       3.484   3.834  19.107  0.00  0.00    +0.000 A 
ATOM      9  C   UNL     1       3.253   2.713  19.927  0.00  0.00    +0.000 A 
ATOM     10  C   UNL     1       2.551   2.806  21.118  0.00  0.00    +0.000 A 
ATOM     11  C   UNL     1       2.037   4.040  21.486  0.00  0.00    +0.000 A 
ATOM     12  C   UNL     1       2.216   5.154  20.654  0.00  0.00    +0.000 A 
ATOM     13  C   UNL     1       2.946   5.081  19.447  0.00  0.00    +0.000 A 
ATOM     14  N   UNL     1       3.096   6.269  18.699  0.00  0.00    +0.000 N 
ATOM     15  C   UNL     1       3.670   6.462  17.468  0.00  0.00    +0.000 C 
ATOM     16  C   UNL     1       4.397   5.653  16.688  0.00  0.00    +0.000 C 
ATOM     17  H   UNL     1       2.667   7.092  19.113  0.00  0.00    +0.000 HD
ENDROOT
BRANCH   4  18
ATOM     18  C   UNL     1       7.447   5.941  17.182  0.00  0.00    +0.000 A 
ATOM     19  C   UNL     1       7.557   7.301  16.791  0.00  0.00    +0.000 A 
ATOM     20  C   UNL     1       8.072   8.292  17.626  0.00  0.00    +0.000 A 
ATOM     21  C   UNL     1       8.499   7.946  18.890  0.00  0.00    +0.000 A 
ATOM     22  F   UNL     1       9.068   8.880  19.663  0.00  0.00    +0.000 F 
ATOM     23  C   UNL     1       8.360   6.640  19.346  0.00  0.00    +0.000 A 
ATOM     24  C   UNL     1       7.835   5.638  18.495  0.00  0.00    +0.000 A 
ENDBRANCH   4  18
TORSDOF 1
ENDMDL
MODEL 7
REMARK VINA RESULT:      -7.0      5.197      7.743
REMARK  Name = 
REMARK  1 active torsions:
REMARK  status: ('A' for Active; 'I' for Inactive)
REMARK    1  A    between atoms: C_4  and  C_5
REMARK                            x       y       z     vdW  Elec       q    Type
REMARK                         _______ _______ _______ _____ _____    ______ ____
ROOT
ATOM      1  O   UNL     1       1.650  13.099  18.185  0.00  0.00    +0.000 OA
ATOM      2  C   UNL     1       0.998  12.322  18.883  0.00  0.00    +0.000 C 
ATOM      3  C   UNL     1      -0.211  12.833  19.678  0.00  0.00    +0.000 C 
ATOM      4  C   UNL     1      -1.151  11.638  19.937  0.00  0.00    +0.000 C 
ATOM      5  C   UNL     1      -0.305  10.759  20.875  0.00  0.00    +0.000 C 
ATOM      6  C   UNL     1       0.768  10.062  20.084  0.00  0.00    +0.000 C 
ATOM      7  N   UNL     1       0.964   8.874  20.513  0.00  0.00    +0.000 NA
ATOM      8  C   UNL     1       1.698   7.863  19.917  0.00  0.00    +0.000 A 
ATOM      9  C   UNL     1       1.722   6.705  20.719  0.00  0.00    +0.000 A 
ATOM     10  C   UNL     1       2.187   5.490  20.241  0.00  0.00    +0.000 A 
ATOM     11  C   UNL     1       2.669   5.433  18.943  0.00  0.00    +0.000 A 
ATOM     12  C   UNL     1       2.698   6.588  18.150  0.00  0.00    +0.000 A 
ATOM     13  C   UNL     1       2.210   7.831  18.614  0.00  0.00    +0.000 A 
ATOM     14  N   UNL     1       2.254   8.925  17.724  0.00  0.00    +0.000 N 
ATOM     15  C   UNL     1       1.934  10.243  17.940  0.00  0.00    +0.000 C 
ATOM     16  C   UNL     1       1.339  10.857  18.969  0.00  0.00    +0.000 C 
ATOM     17  H   UNL     1       2.628   8.714  16.804  0.00  0.00    +0.000 HD
ENDROOT
BRANCH   4  18
ATOM     18  C   UNL     1      -1.735  11.081  18.610  0.00  0.00    +0.000 A 
ATOM     19  C   UNL     1      -1.858  11.939  17.487  0.00  0.00    +0.000 A 
ATOM     20  C   UNL     1      -2.497  11.560  16.307  0.00  0.00    +0.000 A 
ATOM     21  C   UNL     1      -3.041  10.296  16.217  0.00  0.00    +0.000 A 
ATOM     22  F   UNL     1      -3.725   9.959  15.117  0.00  0.00    +0.000 F 
ATOM     23  C   UNL     1      -2.899   9.394  17.266  0.00  0.00    +0.000 A 
ATOM     24  C   UNL     1      -2.247   9.783  18.460  0.00  0.00    +0.000 A 
ENDBRANCH   4  18
TORSDOF 1
ENDMDL
MODEL 8
REMARK VINA RESULT:      -6.9      1.916      2.643
REMARK  Name = 
REMARK  1 active torsions:
REMARK  status: ('A' for Active; 'I' for Inactive)
REMARK    1  A    between atoms: C_4  and  C_5
REMARK                            x       y       z     vdW  Elec       q    Type
REMARK                         _______ _______ _______ _____ _____    ______ ____
ROOT
ATOM      1  O   UNL     1       6.827   4.952  20.107  0.00  0.00    +0.000 OA
ATOM      2  C   UNL     1       5.995   4.573  19.282  0.00  0.00    +0.000 C 
ATOM      3  C   UNL     1       4.628   4.056  19.751  0.00  0.00    +0.000 C 
ATOM      4  C   UNL     1       3.628   4.234  18.590  0.00  0.00    +0.000 C 
ATOM      5  C   UNL     1       4.172   3.248  17.541  0.00  0.00    +0.000 C 
ATOM      6  C   UNL     1       5.403   3.823  16.896  0.00  0.00    +0.000 C 
ATOM      7  N   UNL     1       5.452   3.539  15.651  0.00  0.00    +0.000 NA
ATOM      8  C   UNL     1       6.297   4.065  14.689  0.00  0.00    +0.000 A 
ATOM      9  C   UNL     1       6.080   3.466  13.433  0.00  0.00    +0.000 A 
ATOM     10  C   UNL     1       6.630   3.980  12.270  0.00  0.00    +0.000 A 
ATOM     11  C   UNL     1       7.443   5.099  12.362  0.00  0.00    +0.000 A 
ATOM     12  C   UNL     1       7.707   5.676  13.612  0.00  0.00    +0.000 A 
ATOM     13  C   UNL     1       7.139   5.177  14.806  0.00  0.00    +0.000 A 
ATOM     14  N   UNL     1       7.444   5.852  16.007  0.00  0.00    +0.000 N 
ATOM     15  C   UNL     1       7.106   5.535  17.300  0.00  0.00    +0.000 C 
ATOM     16  C   UNL     1       6.269   4.619  17.802  0.00  0.00    +0.000 C 
ATOM     17  H   UNL     1       8.047   6.662  15.903  0.00  0.00    +0.000 HD
ENDROOT
BRANCH   4  18
ATOM     18  C   UNL     1       3.410   5.735  18.257  0.00  0.00    +0.000 A 
ATOM     19  C   UNL     1       2.707   6.559  19.173  0.00  0.00    +0.000 A 
ATOM     20  C   UNL     1       2.349   7.877  18.891  0.00  0.00    +0.000 A 
ATOM     21  C   UNL     1       2.684   8.413  17.666  0.00  0.00    +0.000 A 
ATOM     22  F   UNL     1       2.270   9.650  17.362  0.00  0.00    +0.000 F 
ATOM     23  C   UNL     1       3.424   7.670  16.752  0.00  0.00    +0.000 A 
ATOM     24  C   UNL     1       3.787   6.334  17.045  0.00  0.00    +0.000 A 
ENDBRANCH   4  18
TORSDOF 1
ENDMDL
MODEL 9
REMARK VINA RESULT:      -6.7      5.207      7.794
REMARK  Name = 
REMARK  1 active torsions:
REMARK  status: ('A' for Active; 'I' for Inactive)
REMARK    1  A    between atoms: C_4  and  C_5
REMARK                            x       y       z     vdW  Elec       q    Type
REMARK                         _______ _______ _______ _____ _____    ______ ____
ROOT
ATOM      1  O   UNL     1       1.619  13.330  18.327  0.00  0.00    +0.000 OA
ATOM      2  C   UNL     1       0.980  12.550  19.033  0.00  0.00    +0.000 C 
ATOM      3  C   UNL     1      -0.192  13.063  19.880  0.00  0.00    +0.000 C 
ATOM      4  C   UNL     1      -1.140  11.877  20.151  0.00  0.00    +0.000 C 
ATOM      5  C   UNL     1      -0.275  10.968  21.042  0.00  0.00    +0.000 C 
ATOM      6  C   UNL     1       0.759  10.271  20.201  0.00  0.00    +0.000 C 
ATOM      7  N   UNL     1       0.952   9.073  20.601  0.00  0.00    +0.000 NA
ATOM      8  C   UNL     1       1.649   8.062  19.961  0.00  0.00    +0.000 A 
ATOM      9  C   UNL     1       1.684   6.890  20.741  0.00  0.00    +0.000 A 
ATOM     10  C   UNL     1       2.113   5.677  20.224  0.00  0.00    +0.000 A 
ATOM     11  C   UNL     1       2.549   5.637  18.909  0.00  0.00    +0.000 A 
ATOM     12  C   UNL     1       2.567   6.807  18.137  0.00  0.00    +0.000 A 
ATOM     13  C   UNL     1       2.114   8.047  18.641  0.00  0.00    +0.000 A 
ATOM     14  N   UNL     1       2.143   9.157  17.770  0.00  0.00    +0.000 N 
ATOM     15  C   UNL     1       1.851  10.475  18.020  0.00  0.00    +0.000 C 
ATOM     16  C   UNL     1       1.302  11.079  19.081  0.00  0.00    +0.000 C 
ATOM     17  H   UNL     1       2.481   8.958  16.833  0.00  0.00    +0.000 HD
ENDROOT
BRANCH   4  18
ATOM     18  C   UNL     1      -1.779  11.353  18.835  0.00  0.00    +0.000 A 
ATOM     19  C   UNL     1      -2.300  10.034  18.789  0.00  0.00    +0.000 A 
ATOM     20  C   UNL     1      -2.762   9.440  17.615  0.00  0.00    +0.000 A 
ATOM     21  C   UNL     1      -2.713  10.157  16.439  0.00  0.00    +0.000 A 
ATOM     22  F   UNL     1      -3.080   9.561  15.297  0.00  0.00    +0.000 F 
ATOM     23  C   UNL     1      -2.267  11.474  16.436  0.00  0.00    +0.000 A 
ATOM     24  C   UNL     1      -1.801  12.073  17.631  0.00  0.00    +0.000 A 
ENDBRANCH   4  18
TORSDOF 1
ENDMDL
