MODEL 1
REMARK VINA RESULT:      -8.4      0.000      0.000
REMARK  Name = 
REMARK  13 active torsions:
REMARK  status: ('A' for Active; 'I' for Inactive)
REMARK    1  A    between atoms: C_1  and  C_2
REMARK    2  A    between atoms: C_2  and  O_3
REMARK    3  A    between atoms: O_3  and  C_4
REMARK    4  A    between atoms: C_4  and  C_6
REMARK    5  A    between atoms: C_9  and  N_10
REMARK    6  A    between atoms: C_11  and  C_13
REMARK    7  A    between atoms: C_13  and  C_14
REMARK    8  A    between atoms: C_13  and  S_15
REMARK    9  A    between atoms: S_15  and  C_16
REMARK   10  A    between atoms: C_21  and  N_22
REMARK   11  A    between atoms: N_23  and  C_24
REMARK   12  A    between atoms: C_24  and  C_25
REMARK   13  A    between atoms: C_25  and  C_26
REMARK                            x       y       z     vdW  Elec       q    Type
REMARK                         _______ _______ _______ _____ _____    ______ ____
ROOT
ATOM      1  S   UNL     1       4.100   5.804  19.384  0.00  0.00    +0.000 S 
ENDROOT
BRANCH   1   2
ATOM      2  C   UNL     1       5.102   5.612  17.935  0.00  0.00    +0.000 A 
ATOM      3  N   UNL     1       6.108   6.425  17.921  0.00  0.00    +0.000 NA
ATOM      4  C   UNL     1       7.018   6.315  16.916  0.00  0.00    +0.000 A 
ATOM      5  O   UNL     1       7.850   7.178  16.674  0.00  0.00    +0.000 OA
ATOM      6  C   UNL     1       7.030   5.062  16.145  0.00  0.00    +0.000 A 
ATOM      7  C   UNL     1       5.962   4.249  16.169  0.00  0.00    +0.000 A 
ATOM      8  N   UNL     1       4.862   4.603  16.987  0.00  0.00    +0.000 N 
BRANCH   7   9
ATOM      9  N   UNL     1       6.027   3.084  15.421  0.00  0.00    +0.000 N 
ATOM     10  H   UNL     1       5.768   2.242  15.928  0.00  0.00    +0.000 HD
ATOM     11  H   UNL     1       6.876   2.946  14.887  0.00  0.00    +0.000 HD
ENDBRANCH   7   9
BRANCH   8  12
ATOM     12  C   UNL     1       3.643   3.743  16.930  0.00  0.00    +0.000 C 
BRANCH  12  13
ATOM     13  C   UNL     1       3.618   2.484  17.801  0.00  0.00    +0.000 C 
BRANCH  13  14
ATOM     14  C   UNL     1       2.822   2.553  19.092  0.00  0.00    +0.000 A 
ATOM     15  C   UNL     1       3.383   2.370  20.364  0.00  0.00    +0.000 A 
ATOM     16  C   UNL     1       2.630   2.629  21.514  0.00  0.00    +0.000 A 
ATOM     17  C   UNL     1       1.315   3.077  21.406  0.00  0.00    +0.000 A 
ATOM     18  C   UNL     1       0.742   3.249  20.151  0.00  0.00    +0.000 A 
ATOM     19  C   UNL     1       1.489   2.987  19.003  0.00  0.00    +0.000 A 
ENDBRANCH  13  14
ENDBRANCH  12  13
ENDBRANCH   8  12
ENDBRANCH   1   2
BRANCH   1  20
ATOM     20  C   UNL     1       2.625   6.670  18.718  0.00  0.00    +0.000 C 
ATOM     21  C   UNL     1       3.065   7.764  17.742  0.00  0.00    +0.000 C 
BRANCH  20  23
ATOM     22  N   UNL     1       1.354   8.599  19.518  0.00  0.00    +0.000 N 
ATOM     23  C   UNL     1       1.835   7.341  19.847  0.00  0.00    +0.000 C 
ATOM     24  O   UNL     1       1.683   6.789  20.937  0.00  0.00    +0.000 OA
ATOM     25  H   UNL     1       1.271   8.812  18.528  0.00  0.00    +0.000 HD
BRANCH  22  29
ATOM     26  C   UNL     1      -0.411  11.436  22.110  0.00  0.00    +0.000 A 
ATOM     27  C   UNL     1      -0.526  10.073  22.398  0.00  0.00    +0.000 A 
ATOM     28  C   UNL     1       0.052   9.122  21.552  0.00  0.00    +0.000 A 
ATOM     29  C   UNL     1       0.751   9.514  20.408  0.00  0.00    +0.000 A 
ATOM     30  C   UNL     1       0.886  10.879  20.133  0.00  0.00    +0.000 A 
ATOM     31  C   UNL     1       0.300  11.835  20.971  0.00  0.00    +0.000 A 
BRANCH  26  32
ATOM     32  C   UNL     1      -1.117  12.396  22.998  0.00  0.00    +0.000 C 
ATOM     33  O   UNL     1      -0.586  13.376  23.496  0.00  0.00    +0.000 OA
BRANCH  32  34
ATOM     34  O   UNL     1      -2.374  11.953  23.249  0.00  0.00    +0.000 OA
BRANCH  34  36
ATOM     35  C   UNL     1      -4.564  12.895  23.324  0.00  0.00    +0.000 C 
ATOM     36  C   UNL     1      -3.397  12.526  22.425  0.00  0.00    +0.000 C 
ENDBRANCH  34  36
ENDBRANCH  32  34
ENDBRANCH  26  32
ENDBRANCH  22  29
ENDBRANCH  20  23
ENDBRANCH   1  20
TORSDOF 11
ENDMDL
MODEL 2
REMARK VINA RESULT:      -8.3      0.716      1.064
REMARK  Name = 
REMARK  13 active torsions:
REMARK  status: ('A' for Active; 'I' for Inactive)
REMARK    1  A    between atoms: C_1  and  C_2
REMARK    2  A    between atoms: C_2  and  O_3
REMARK    3  A    between atoms: O_3  and  C_4
REMARK    4  A    between atoms: C_4  and  C_6
REMARK    5  A    between atoms: C_9  and  N_10
REMARK    6  A    between atoms: C_11  and  C_13
REMARK    7  A    between atoms: C_13  and  C_14
REMARK    8  A    between atoms: C_13  and  S_15
REMARK    9  A    between atoms: S_15  and  C_16
REMARK   10  A    between atoms: C_21  and  N_22
REMARK   11  A    between atoms: N_23  and  C_24
REMARK   12  A    between atoms: C_24  and  C_25
REMARK   13  A    between atoms: C_25  and  C_26
REMARK                            x       y       z     vdW  Elec       q    Type
REMARK                         _______ _______ _______ _____ _____    ______ ____
ROOT
ATOM      1  S   UNL     1       4.199   5.863  19.319  0.00  0.00    +0.000 S 
ENDROOT
BRANCH   1   2
ATOM      2  C   UNL     1       5.174   5.612  17.860  0.00  0.00    +0.000 A 
ATOM      3  N   UNL     1       6.192   6.407  17.807  0.00  0.00    +0.000 NA
ATOM      4  C   UNL     1       7.084   6.252  16.791  0.00  0.00    +0.000 A 
ATOM      5  O   UNL     1       7.927   7.094  16.511  0.00  0.00    +0.000 OA
ATOM      6  C   UNL     1       7.063   4.977  16.057  0.00  0.00    +0.000 A 
ATOM      7  C   UNL     1       5.982   4.184  16.121  0.00  0.00    +0.000 A 
ATOM      8  N   UNL     1       4.901   4.581  16.947  0.00  0.00    +0.000 N 
BRANCH   7   9
ATOM      9  N   UNL     1       6.015   2.997  15.407  0.00  0.00    +0.000 N 
ATOM     10  H   UNL     1       6.121   2.163  15.978  0.00  0.00    +0.000 HD
ATOM     11  H   UNL     1       6.636   2.977  14.608  0.00  0.00    +0.000 HD
ENDBRANCH   7   9
BRANCH   8  12
ATOM     12  C   UNL     1       3.667   3.740  16.934  0.00  0.00    +0.000 C 
BRANCH  12  13
ATOM     13  C   UNL     1       3.643   2.497  17.828  0.00  0.00    +0.000 C 
BRANCH  13  14
ATOM     14  C   UNL     1       2.822   2.581  19.103  0.00  0.00    +0.000 A 
ATOM     15  C   UNL     1       3.368   2.465  20.390  0.00  0.00    +0.000 A 
ATOM     16  C   UNL     1       2.587   2.735  21.518  0.00  0.00    +0.000 A 
ATOM     17  C   UNL     1       1.257   3.128  21.374  0.00  0.00    +0.000 A 
ATOM     18  C   UNL     1       0.699   3.233  20.104  0.00  0.00    +0.000 A 
ATOM     19  C   UNL     1       1.475   2.960  18.978  0.00  0.00    +0.000 A 
ENDBRANCH  13  14
ENDBRANCH  12  13
ENDBRANCH   8  12
ENDBRANCH   1   2
BRANCH   1  20
ATOM     20  C   UNL     1       2.691   6.658  18.640  0.00  0.00    +0.000 C 
ATOM     21  C   UNL     1       3.087   7.806  17.708  0.00  0.00    +0.000 C 
BRANCH  20  23
ATOM     22  N   UNL     1       1.353   8.518  19.496  0.00  0.00    +0.000 N 
ATOM     23  C   UNL     1       1.834   7.245  19.767  0.00  0.00    +0.000 C 
ATOM     24  O   UNL     1       1.633   6.621  20.809  0.00  0.00    +0.000 OA
ATOM     25  H   UNL     1       1.320   8.794  18.518  0.00  0.00    +0.000 HD
BRANCH  22  29
ATOM     26  C   UNL     1      -0.598  11.158  22.160  0.00  0.00    +0.000 A 
ATOM     27  C   UNL     1      -0.557   9.791  22.450  0.00  0.00    +0.000 A 
ATOM     28  C   UNL     1       0.085   8.905  21.580  0.00  0.00    +0.000 A 
ATOM     29  C   UNL     1       0.693   9.365  20.410  0.00  0.00    +0.000 A 
ATOM     30  C   UNL     1       0.672  10.737  20.132  0.00  0.00    +0.000 A 
ATOM     31  C   UNL     1       0.021  11.628  20.995  0.00  0.00    +0.000 A 
BRANCH  26  32
ATOM     32  C   UNL     1      -1.367  12.040  23.077  0.00  0.00    +0.000 C 
ATOM     33  O   UNL     1      -2.494  11.790  23.471  0.00  0.00    +0.000 OA
BRANCH  32  34
ATOM     34  O   UNL     1      -0.677  13.185  23.301  0.00  0.00    +0.000 OA
BRANCH  34  36
ATOM     35  C   UNL     1      -1.194  15.075  24.662  0.00  0.00    +0.000 C 
ATOM     36  C   UNL     1      -1.472  14.377  23.342  0.00  0.00    +0.000 C 
ENDBRANCH  34  36
ENDBRANCH  32  34
ENDBRANCH  26  32
ENDBRANCH  22  29
ENDBRANCH  20  23
ENDBRANCH   1  20
TORSDOF 11
ENDMDL
MODEL 3
REMARK VINA RESULT:      -8.2      2.659      5.028
REMARK  Name = 
REMARK  13 active torsions:
REMARK  status: ('A' for Active; 'I' for Inactive)
REMARK    1  A    between atoms: C_1  and  C_2
REMARK    2  A    between atoms: C_2  and  O_3
REMARK    3  A    between atoms: O_3  and  C_4
REMARK    4  A    between atoms: C_4  and  C_6
REMARK    5  A    between atoms: C_9  and  N_10
REMARK    6  A    between atoms: C_11  and  C_13
REMARK    7  A    between atoms: C_13  and  C_14
REMARK    8  A    between atoms: C_13  and  S_15
REMARK    9  A    between atoms: S_15  and  C_16
REMARK   10  A    between atoms: C_21  and  N_22
REMARK   11  A    between atoms: N_23  and  C_24
REMARK   12  A    between atoms: C_24  and  C_25
REMARK   13  A    between atoms: C_25  and  C_26
REMARK                            x       y       z     vdW  Elec       q    Type
REMARK                         _______ _______ _______ _____ _____    ______ ____
ROOT
ATOM      1  S   UNL     1       4.451   3.382  18.661  0.00  0.00    +0.000 S 
ENDROOT
BRANCH   1   2
ATOM      2  C   UNL     1       5.693   4.645  18.697  0.00  0.00    +0.000 A 
ATOM      3  N   UNL     1       6.418   4.592  19.766  0.00  0.00    +0.000 NA
ATOM      4  C   UNL     1       7.477   5.438  19.876  0.00  0.00    +0.000 A 
ATOM      5  O   UNL     1       8.062   5.639  20.932  0.00  0.00    +0.000 OA
ATOM      6  C   UNL     1       7.969   6.074  18.644  0.00  0.00    +0.000 A 
ATOM      7  C   UNL     1       7.184   6.127  17.557  0.00  0.00    +0.000 A 
ATOM      8  N   UNL     1       5.907   5.515  17.615  0.00  0.00    +0.000 N 
BRANCH   7   9
ATOM      9  N   UNL     1       7.697   6.741  16.426  0.00  0.00    +0.000 N 
ATOM     10  H   UNL     1       7.755   6.139  15.608  0.00  0.00    +0.000 HD
ATOM     11  H   UNL     1       8.550   7.270  16.555  0.00  0.00    +0.000 HD
ENDBRANCH   7   9
BRANCH   8  12
ATOM     12  C   UNL     1       5.006   5.665  16.434  0.00  0.00    +0.000 C 
BRANCH  12  13
ATOM     13  C   UNL     1       4.791   4.439  15.542  0.00  0.00    +0.000 C 
BRANCH  13  14
ATOM     14  C   UNL     1       5.574   4.386  14.242  0.00  0.00    +0.000 A 
ATOM     15  C   UNL     1       6.833   4.979  14.067  0.00  0.00    +0.000 A 
ATOM     16  C   UNL     1       7.575   4.734  12.907  0.00  0.00    +0.000 A 
ATOM     17  C   UNL     1       7.073   3.894  11.915  0.00  0.00    +0.000 A 
ATOM     18  C   UNL     1       5.820   3.310  12.070  0.00  0.00    +0.000 A 
ATOM     19  C   UNL     1       5.076   3.556  13.224  0.00  0.00    +0.000 A 
ENDBRANCH  13  14
ENDBRANCH  12  13
ENDBRANCH   8  12
ENDBRANCH   1   2
BRANCH   1  20
ATOM     20  C   UNL     1       3.158   4.085  19.757  0.00  0.00    +0.000 C 
ATOM     21  C   UNL     1       2.057   3.047  19.989  0.00  0.00    +0.000 C 
BRANCH  20  23
ATOM     22  N   UNL     1       2.716   6.489  19.825  0.00  0.00    +0.000 N 
ATOM     23  C   UNL     1       2.511   5.316  19.113  0.00  0.00    +0.000 C 
ATOM     24  O   UNL     1       1.861   5.226  18.072  0.00  0.00    +0.000 OA
ATOM     25  H   UNL     1       3.500   6.499  20.472  0.00  0.00    +0.000 HD
BRANCH  22  29
ATOM     26  C   UNL     1       0.819  10.212  19.180  0.00  0.00    +0.000 A 
ATOM     27  C   UNL     1       1.540   9.617  18.141  0.00  0.00    +0.000 A 
ATOM     28  C   UNL     1       2.173   8.386  18.338  0.00  0.00    +0.000 A 
ATOM     29  C   UNL     1       2.097   7.731  19.569  0.00  0.00    +0.000 A 
ATOM     30  C   UNL     1       1.355   8.317  20.601  0.00  0.00    +0.000 A 
ATOM     31  C   UNL     1       0.728   9.555  20.413  0.00  0.00    +0.000 A 
BRANCH  26  32
ATOM     32  C   UNL     1       0.239  11.560  18.939  0.00  0.00    +0.000 C 
ATOM     33  O   UNL     1      -0.958  11.797  18.968  0.00  0.00    +0.000 OA
BRANCH  32  34
ATOM     34  O   UNL     1       1.218  12.426  18.580  0.00  0.00    +0.000 OA
BRANCH  34  36
ATOM     35  C   UNL     1       1.108  13.646  20.627  0.00  0.00    +0.000 C 
ATOM     36  C   UNL     1       2.023  12.916  19.660  0.00  0.00    +0.000 C 
ENDBRANCH  34  36
ENDBRANCH  32  34
ENDBRANCH  26  32
ENDBRANCH  22  29
ENDBRANCH  20  23
ENDBRANCH   1  20
TORSDOF 11
ENDMDL
MODEL 4
REMARK VINA RESULT:      -8.1      2.750      5.150
REMARK  Name = 
REMARK  13 active torsions:
REMARK  status: ('A' for Active; 'I' for Inactive)
REMARK    1  A    between atoms: C_1  and  C_2
REMARK    2  A    between atoms: C_2  and  O_3
REMARK    3  A    between atoms: O_3  and  C_4
REMARK    4  A    between atoms: C_4  and  C_6
REMARK    5  A    between atoms: C_9  and  N_10
REMARK    6  A    between atoms: C_11  and  C_13
REMARK    7  A    between atoms: C_13  and  C_14
REMARK    8  A    between atoms: C_13  and  S_15
REMARK    9  A    between atoms: S_15  and  C_16
REMARK   10  A    between atoms: C_21  and  N_22
REMARK   11  A    between atoms: N_23  and  C_24
REMARK   12  A    between atoms: C_24  and  C_25
REMARK   13  A    between atoms: C_25  and  C_26
REMARK                            x       y       z     vdW  Elec       q    Type
REMARK                         _______ _______ _______ _____ _____    ______ ____
ROOT
ATOM      1  S   UNL     1       4.799   3.419  17.976  0.00  0.00    +0.000 S 
ENDROOT
BRANCH   1   2
ATOM      2  C   UNL     1       5.910   4.746  18.355  0.00  0.00    +0.000 A 
ATOM      3  N   UNL     1       6.565   4.541  19.451  0.00  0.00    +0.000 NA
ATOM      4  C   UNL     1       7.529   5.432  19.807  0.00  0.00    +0.000 A 
ATOM      5  O   UNL     1       8.022   5.467  20.926  0.00  0.00    +0.000 OA
ATOM      6  C   UNL     1       8.038   6.336  18.764  0.00  0.00    +0.000 A 
ATOM      7  C   UNL     1       7.323   6.539  17.646  0.00  0.00    +0.000 A 
ATOM      8  N   UNL     1       6.110   5.827  17.481  0.00  0.00    +0.000 N 
BRANCH   7   9
ATOM      9  N   UNL     1       7.848   7.404  16.699  0.00  0.00    +0.000 N 
ATOM     10  H   UNL     1       8.248   8.257  17.081  0.00  0.00    +0.000 HD
ATOM     11  H   UNL     1       7.258   7.600  15.901  0.00  0.00    +0.000 HD
ENDBRANCH   7   9
BRANCH   8  12
ATOM     12  C   UNL     1       5.278   6.134  16.280  0.00  0.00    +0.000 C 
BRANCH  12  13
ATOM     13  C   UNL     1       4.769   4.955  15.445  0.00  0.00    +0.000 C 
BRANCH  13  14
ATOM     14  C   UNL     1       5.644   4.499  14.291  0.00  0.00    +0.000 A 
ATOM     15  C   UNL     1       5.218   3.607  13.295  0.00  0.00    +0.000 A 
ATOM     16  C   UNL     1       6.010   3.376  12.166  0.00  0.00    +0.000 A 
ATOM     17  C   UNL     1       7.229   4.035  12.015  0.00  0.00    +0.000 A 
ATOM     18  C   UNL     1       7.669   4.912  13.001  0.00  0.00    +0.000 A 
ATOM     19  C   UNL     1       6.884   5.140  14.131  0.00  0.00    +0.000 A 
ENDBRANCH  13  14
ENDBRANCH  12  13
ENDBRANCH   8  12
ENDBRANCH   1   2
BRANCH   1  20
ATOM     20  C   UNL     1       3.413   3.735  19.137  0.00  0.00    +0.000 C 
ATOM     21  C   UNL     1       2.454   2.542  19.135  0.00  0.00    +0.000 C 
BRANCH  20  23
ATOM     22  N   UNL     1       2.990   6.131  19.379  0.00  0.00    +0.000 N 
ATOM     23  C   UNL     1       2.619   4.975  18.710  0.00  0.00    +0.000 C 
ATOM     24  O   UNL     1       1.729   4.903  17.863  0.00  0.00    +0.000 OA
ATOM     25  H   UNL     1       3.911   6.135  19.809  0.00  0.00    +0.000 HD
BRANCH  22  29
ATOM     26  C   UNL     1       1.024   9.862  19.083  0.00  0.00    +0.000 A 
ATOM     27  C   UNL     1       0.946   9.135  20.273  0.00  0.00    +0.000 A 
ATOM     28  C   UNL     1       1.591   7.900  20.389  0.00  0.00    +0.000 A 
ATOM     29  C   UNL     1       2.321   7.372  19.321  0.00  0.00    +0.000 A 
ATOM     30  C   UNL     1       2.418   8.112  18.137  0.00  0.00    +0.000 A 
ATOM     31  C   UNL     1       1.765   9.345  18.013  0.00  0.00    +0.000 A 
BRANCH  26  32
ATOM     32  C   UNL     1       0.250  11.128  18.990  0.00  0.00    +0.000 C 
ATOM     33  O   UNL     1      -0.948  11.207  19.211  0.00  0.00    +0.000 OA
BRANCH  32  34
ATOM     34  O   UNL     1       1.044  12.122  18.521  0.00  0.00    +0.000 OA
BRANCH  34  36
ATOM     35  C   UNL     1       1.166  13.347  20.565  0.00  0.00    +0.000 C 
ATOM     36  C   UNL     1       1.969  12.662  19.473  0.00  0.00    +0.000 C 
ENDBRANCH  34  36
ENDBRANCH  32  34
ENDBRANCH  26  32
ENDBRANCH  22  29
ENDBRANCH  20  23
ENDBRANCH   1  20
TORSDOF 11
ENDMDL
MODEL 5
REMARK VINA RESULT:      -7.9      2.736      4.850
REMARK  Name = 
REMARK  13 active torsions:
REMARK  status: ('A' for Active; 'I' for Inactive)
REMARK    1  A    between atoms: C_1  and  C_2
REMARK    2  A    between atoms: C_2  and  O_3
REMARK    3  A    between atoms: O_3  and  C_4
REMARK    4  A    between atoms: C_4  and  C_6
REMARK    5  A    between atoms: C_9  and  N_10
REMARK    6  A    between atoms: C_11  and  C_13
REMARK    7  A    between atoms: C_13  and  C_14
REMARK    8  A    between atoms: C_13  and  S_15
REMARK    9  A    between atoms: S_15  and  C_16
REMARK   10  A    between atoms: C_21  and  N_22
REMARK   11  A    between atoms: N_23  and  C_24
REMARK   12  A    between atoms: C_24  and  C_25
REMARK   13  A    between atoms: C_25  and  C_26
REMARK                            x       y       z     vdW  Elec       q    Type
REMARK                         _______ _______ _______ _____ _____    ______ ____
ROOT
ATOM      1  S   UNL     1       4.401   3.612  18.710  0.00  0.00    +0.000 S 
ENDROOT
BRANCH   1   2
ATOM      2  C   UNL     1       5.737   4.777  18.704  0.00  0.00    +0.000 A 
ATOM      3  N   UNL     1       6.462   4.699  19.772  0.00  0.00    +0.000 NA
ATOM      4  C   UNL     1       7.583   5.465  19.852  0.00  0.00    +0.000 A 
ATOM      5  O   UNL     1       8.189   5.651  20.899  0.00  0.00    +0.000 OA
ATOM      6  C   UNL     1       8.115   6.025  18.600  0.00  0.00    +0.000 A 
ATOM      7  C   UNL     1       7.329   6.106  17.515  0.00  0.00    +0.000 A 
ATOM      8  N   UNL     1       6.009   5.596  17.596  0.00  0.00    +0.000 N 
BRANCH   7   9
ATOM      9  N   UNL     1       7.880   6.646  16.364  0.00  0.00    +0.000 N 
ATOM     10  H   UNL     1       7.441   6.338  15.500  0.00  0.00    +0.000 HD
ATOM     11  H   UNL     1       8.889   6.612  16.297  0.00  0.00    +0.000 HD
ENDBRANCH   7   9
BRANCH   8  12
ATOM     12  C   UNL     1       5.115   5.780  16.415  0.00  0.00    +0.000 C 
BRANCH  12  13
ATOM     13  C   UNL     1       4.804   4.550  15.558  0.00  0.00    +0.000 C 
BRANCH  13  14
ATOM     14  C   UNL     1       5.557   4.416  14.246  0.00  0.00    +0.000 A 
ATOM     15  C   UNL     1       6.848   4.922  14.033  0.00  0.00    +0.000 A 
ATOM     16  C   UNL     1       7.550   4.603  12.866  0.00  0.00    +0.000 A 
ATOM     17  C   UNL     1       6.975   3.773  11.905  0.00  0.00    +0.000 A 
ATOM     18  C   UNL     1       5.691   3.275  12.098  0.00  0.00    +0.000 A 
ATOM     19  C   UNL     1       4.987   3.596  13.258  0.00  0.00    +0.000 A 
ENDBRANCH  13  14
ENDBRANCH  12  13
ENDBRANCH   8  12
ENDBRANCH   1   2
BRANCH   1  20
ATOM     20  C   UNL     1       3.214   4.396  19.870  0.00  0.00    +0.000 C 
ATOM     21  C   UNL     1       2.104   3.403  20.223  0.00  0.00    +0.000 C 
BRANCH  20  23
ATOM     22  N   UNL     1       2.473   6.717  20.075  0.00  0.00    +0.000 N 
ATOM     23  C   UNL     1       2.557   5.623  19.228  0.00  0.00    +0.000 C 
ATOM     24  O   UNL     1       2.138   5.591  18.071  0.00  0.00    +0.000 OA
ATOM     25  H   UNL     1       3.108   6.731  20.868  0.00  0.00    +0.000 HD
BRANCH  22  29
ATOM     26  C   UNL     1       0.393  10.288  19.180  0.00  0.00    +0.000 A 
ATOM     27  C   UNL     1       0.359   9.778  20.481  0.00  0.00    +0.000 A 
ATOM     28  C   UNL     1       1.042   8.599  20.794  0.00  0.00    +0.000 A 
ATOM     29  C   UNL     1       1.766   7.911  19.818  0.00  0.00    +0.000 A 
ATOM     30  C   UNL     1       1.819   8.435  18.521  0.00  0.00    +0.000 A 
ATOM     31  C   UNL     1       1.128   9.610  18.199  0.00  0.00    +0.000 A 
BRANCH  26  32
ATOM     32  C   UNL     1      -0.420  11.497  18.886  0.00  0.00    +0.000 C 
ATOM     33  O   UNL     1       0.037  12.628  18.845  0.00  0.00    +0.000 OA
BRANCH  32  34
ATOM     34  O   UNL     1      -1.730  11.160  18.790  0.00  0.00    +0.000 OA
BRANCH  34  36
ATOM     35  C   UNL     1      -3.568  10.110  17.689  0.00  0.00    +0.000 C 
ATOM     36  C   UNL     1      -2.067  10.342  17.662  0.00  0.00    +0.000 C 
ENDBRANCH  34  36
ENDBRANCH  32  34
ENDBRANCH  26  32
ENDBRANCH  22  29
ENDBRANCH  20  23
ENDBRANCH   1  20
TORSDOF 11
ENDMDL
MODEL 6
REMARK VINA RESULT:      -7.9      0.629      1.031
REMARK  Name = 
REMARK  13 active torsions:
REMARK  status: ('A' for Active; 'I' for Inactive)
REMARK    1  A    between atoms: C_1  and  C_2
REMARK    2  A    between atoms: C_2  and  O_3
REMARK    3  A    between atoms: O_3  and  C_4
REMARK    4  A    between atoms: C_4  and  C_6
REMARK    5  A    between atoms: C_9  and  N_10
REMARK    6  A    between atoms: C_11  and  C_13
REMARK    7  A    between atoms: C_13  and  C_14
REMARK    8  A    between atoms: C_13  and  S_15
REMARK    9  A    between atoms: S_15  and  C_16
REMARK   10  A    between atoms: C_21  and  N_22
REMARK   11  A    between atoms: N_23  and  C_24
REMARK   12  A    between atoms: C_24  and  C_25
REMARK   13  A    between atoms: C_25  and  C_26
REMARK                            x       y       z     vdW  Elec       q    Type
REMARK                         _______ _______ _______ _____ _____    ______ ____
ROOT
ATOM      1  S   UNL     1       3.798   5.942  19.363  0.00  0.00    +0.000 S 
ENDROOT
BRANCH   1   2
ATOM      2  C   UNL     1       4.905   5.762  17.991  0.00  0.00    +0.000 A 
ATOM      3  N   UNL     1       5.870   6.621  18.022  0.00  0.00    +0.000 NA
ATOM      4  C   UNL     1       6.852   6.529  17.085  0.00  0.00    +0.000 A 
ATOM      5  O   UNL     1       7.658   7.425  16.875  0.00  0.00    +0.000 OA
ATOM      6  C   UNL     1       6.975   5.259  16.352  0.00  0.00    +0.000 A 
ATOM      7  C   UNL     1       5.947   4.397  16.327  0.00  0.00    +0.000 A 
ATOM      8  N   UNL     1       4.777   4.719  17.058  0.00  0.00    +0.000 N 
BRANCH   7   9
ATOM      9  N   UNL     1       6.116   3.219  15.619  0.00  0.00    +0.000 N 
ATOM     10  H   UNL     1       6.786   2.572  16.028  0.00  0.00    +0.000 HD
ATOM     11  H   UNL     1       6.261   3.316  14.622  0.00  0.00    +0.000 HD
ENDBRANCH   7   9
BRANCH   8  12
ATOM     12  C   UNL     1       3.606   3.800  16.944  0.00  0.00    +0.000 C 
BRANCH  12  13
ATOM     13  C   UNL     1       3.613   2.527  17.793  0.00  0.00    +0.000 C 
BRANCH  13  14
ATOM     14  C   UNL     1       2.825   2.558  19.091  0.00  0.00    +0.000 A 
ATOM     15  C   UNL     1       3.407   2.417  20.359  0.00  0.00    +0.000 A 
ATOM     16  C   UNL     1       2.650   2.640  21.514  0.00  0.00    +0.000 A 
ATOM     17  C   UNL     1       1.310   3.011  21.416  0.00  0.00    +0.000 A 
ATOM     18  C   UNL     1       0.717   3.141  20.164  0.00  0.00    +0.000 A 
ATOM     19  C   UNL     1       1.469   2.915  19.012  0.00  0.00    +0.000 A 
ENDBRANCH  13  14
ENDBRANCH  12  13
ENDBRANCH   8  12
ENDBRANCH   1   2
BRANCH   1  20
ATOM     20  C   UNL     1       2.483   7.010  18.657  0.00  0.00    +0.000 C 
ATOM     21  C   UNL     1       3.086   7.949  17.609  0.00  0.00    +0.000 C 
BRANCH  20  23
ATOM     22  N   UNL     1       1.323   9.071  19.275  0.00  0.00    +0.000 N 
ATOM     23  C   UNL     1       1.843   7.875  19.748  0.00  0.00    +0.000 C 
ATOM     24  O   UNL     1       1.832   7.516  20.925  0.00  0.00    +0.000 OA
ATOM     25  H   UNL     1       1.115   9.118  18.282  0.00  0.00    +0.000 HD
BRANCH  22  29
ATOM     26  C   UNL     1      -0.213  12.173  21.703  0.00  0.00    +0.000 A 
ATOM     27  C   UNL     1       0.847  12.440  20.833  0.00  0.00    +0.000 A 
ATOM     28  C   UNL     1       1.366  11.426  20.023  0.00  0.00    +0.000 A 
ATOM     29  C   UNL     1       0.839  10.133  20.068  0.00  0.00    +0.000 A 
ATOM     30  C   UNL     1      -0.238   9.873  20.923  0.00  0.00    +0.000 A 
ATOM     31  C   UNL     1      -0.756  10.882  21.744  0.00  0.00    +0.000 A 
BRANCH  26  32
ATOM     32  C   UNL     1      -0.668  13.268  22.601  0.00  0.00    +0.000 C 
ATOM     33  O   UNL     1      -0.076  14.327  22.732  0.00  0.00    +0.000 OA
BRANCH  32  34
ATOM     34  O   UNL     1      -1.748  12.861  23.313  0.00  0.00    +0.000 OA
BRANCH  34  36
ATOM     35  C   UNL     1      -4.059  12.809  22.723  0.00  0.00    +0.000 C 
ATOM     36  C   UNL     1      -2.910  13.689  23.183  0.00  0.00    +0.000 C 
ENDBRANCH  34  36
ENDBRANCH  32  34
ENDBRANCH  26  32
ENDBRANCH  22  29
ENDBRANCH  20  23
ENDBRANCH   1  20
TORSDOF 11
ENDMDL
MODEL 7
REMARK VINA RESULT:      -7.8      2.048      4.159
REMARK  Name = 
REMARK  13 active torsions:
REMARK  status: ('A' for Active; 'I' for Inactive)
REMARK    1  A    between atoms: C_1  and  C_2
REMARK    2  A    between atoms: C_2  and  O_3
REMARK    3  A    between atoms: O_3  and  C_4
REMARK    4  A    between atoms: C_4  and  C_6
REMARK    5  A    between atoms: C_9  and  N_10
REMARK    6  A    between atoms: C_11  and  C_13
REMARK    7  A    between atoms: C_13  and  C_14
REMARK    8  A    between atoms: C_13  and  S_15
REMARK    9  A    between atoms: S_15  and  C_16
REMARK   10  A    between atoms: C_21  and  N_22
REMARK   11  A    between atoms: N_23  and  C_24
REMARK   12  A    between atoms: C_24  and  C_25
REMARK   13  A    between atoms: C_25  and  C_26
REMARK                            x       y       z     vdW  Elec       q    Type
REMARK                         _______ _______ _______ _____ _____    ______ ____
ROOT
ATOM      1  S   UNL     1       3.593   6.613  19.432  0.00  0.00    +0.000 S 
ENDROOT
BRANCH   1   2
ATOM      2  C   UNL     1       3.128   4.920  19.674  0.00  0.00    +0.000 A 
ATOM      3  N   UNL     1       2.709   4.692  20.876  0.00  0.00    +0.000 NA
ATOM      4  C   UNL     1       2.222   3.456  21.170  0.00  0.00    +0.000 A 
ATOM      5  O   UNL     1       2.039   3.068  22.316  0.00  0.00    +0.000 OA
ATOM      6  C   UNL     1       1.836   2.592  20.043  0.00  0.00    +0.000 A 
ATOM      7  C   UNL     1       2.304   2.848  18.812  0.00  0.00    +0.000 A 
ATOM      8  N   UNL     1       3.123   3.988  18.623  0.00  0.00    +0.000 N 
BRANCH   7   9
ATOM      9  N   UNL     1       1.912   1.999  17.789  0.00  0.00    +0.000 N 
ATOM     10  H   UNL     1       1.608   1.079  18.096  0.00  0.00    +0.000 HD
ATOM     11  H   UNL     1       2.542   1.934  16.999  0.00  0.00    +0.000 HD
ENDBRANCH   7   9
BRANCH   8  12
ATOM     12  C   UNL     1       3.715   4.207  17.270  0.00  0.00    +0.000 C 
BRANCH  12  13
ATOM     13  C   UNL     1       5.200   3.884  17.081  0.00  0.00    +0.000 C 
BRANCH  13  14
ATOM     14  C   UNL     1       6.192   4.992  17.388  0.00  0.00    +0.000 A 
ATOM     15  C   UNL     1       6.213   6.226  16.720  0.00  0.00    +0.000 A 
ATOM     16  C   UNL     1       7.030   7.264  17.177  0.00  0.00    +0.000 A 
ATOM     17  C   UNL     1       7.828   7.086  18.305  0.00  0.00    +0.000 A 
ATOM     18  C   UNL     1       7.827   5.864  18.969  0.00  0.00    +0.000 A 
ATOM     19  C   UNL     1       7.016   4.825  18.513  0.00  0.00    +0.000 A 
ENDBRANCH  13  14
ENDBRANCH  12  13
ENDBRANCH   8  12
ENDBRANCH   1   2
BRANCH   1  20
ATOM     20  C   UNL     1       1.983   7.401  19.041  0.00  0.00    +0.000 C 
ATOM     21  C   UNL     1       2.143   8.337  17.841  0.00  0.00    +0.000 C 
BRANCH  20  23
ATOM     22  N   UNL     1       0.630   9.266  19.860  0.00  0.00    +0.000 N 
ATOM     23  C   UNL     1       1.488   8.240  20.225  0.00  0.00    +0.000 C 
ATOM     24  O   UNL     1       1.859   8.004  21.375  0.00  0.00    +0.000 OA
ATOM     25  H   UNL     1       0.164   9.174  18.961  0.00  0.00    +0.000 HD
BRANCH  22  29
ATOM     26  C   UNL     1      -0.716  12.437  22.310  0.00  0.00    +0.000 A 
ATOM     27  C   UNL     1      -0.977  11.117  22.687  0.00  0.00    +0.000 A 
ATOM     28  C   UNL     1      -0.538  10.057  21.888  0.00  0.00    +0.000 A 
ATOM     29  C   UNL     1       0.165  10.296  20.705  0.00  0.00    +0.000 A 
ATOM     30  C   UNL     1       0.446  11.618  20.341  0.00  0.00    +0.000 A 
ATOM     31  C   UNL     1      -0.001  12.684  21.132  0.00  0.00    +0.000 A 
BRANCH  26  32
ATOM     32  C   UNL     1      -1.280  13.525  23.154  0.00  0.00    +0.000 C 
ATOM     33  O   UNL     1      -0.635  14.138  23.989  0.00  0.00    +0.000 OA
BRANCH  32  34
ATOM     34  O   UNL     1      -2.612  13.637  22.931  0.00  0.00    +0.000 OA
BRANCH  34  36
ATOM     35  C   UNL     1      -4.534  14.602  23.964  0.00  0.00    +0.000 C 
ATOM     36  C   UNL     1      -3.434  13.565  24.103  0.00  0.00    +0.000 C 
ENDBRANCH  34  36
ENDBRANCH  32  34
ENDBRANCH  26  32
ENDBRANCH  22  29
ENDBRANCH  20  23
ENDBRANCH   1  20
TORSDOF 11
ENDMDL
MODEL 8
REMARK VINA RESULT:      -7.7      2.962      5.204
REMARK  Name = 
REMARK  13 active torsions:
REMARK  status: ('A' for Active; 'I' for Inactive)
REMARK    1  A    between atoms: C_1  and  C_2
REMARK    2  A    between atoms: C_2  and  O_3
REMARK    3  A    between atoms: O_3  and  C_4
REMARK    4  A    between atoms: C_4  and  C_6
REMARK    5  A    between atoms: C_9  and  N_10
REMARK    6  A    between atoms: C_11  and  C_13
REMARK    7  A    between atoms: C_13  and  C_14
REMARK    8  A    between atoms: C_13  and  S_15
REMARK    9  A    between atoms: S_15  and  C_16
REMARK   10  A    between atoms: C_21  and  N_22
REMARK   11  A    between atoms: N_23  and  C_24
REMARK   12  A    between atoms: C_24  and  C_25
REMARK   13  A    between atoms: C_25  and  C_26
REMARK                            x       y       z     vdW  Elec       q    Type
REMARK                         _______ _______ _______ _____ _____    ______ ____
ROOT
ATOM      1  S   UNL     1       4.072   2.887  18.358  0.00  0.00    +0.000 S 
ENDROOT
BRANCH   1   2
ATOM      2  C   UNL     1       5.333   4.119  18.179  0.00  0.00    +0.000 A 
ATOM      3  N   UNL     1       5.961   4.345  19.286  0.00  0.00    +0.000 NA
ATOM      4  C   UNL     1       7.024   5.193  19.269  0.00  0.00    +0.000 A 
ATOM      5  O   UNL     1       7.519   5.662  20.285  0.00  0.00    +0.000 OA
ATOM      6  C   UNL     1       7.634   5.490  17.963  0.00  0.00    +0.000 A 
ATOM      7  C   UNL     1       6.948   5.259  16.834  0.00  0.00    +0.000 A 
ATOM      8  N   UNL     1       5.658   4.680  16.933  0.00  0.00    +0.000 N 
BRANCH   7   9
ATOM      9  N   UNL     1       7.570   5.561  15.633  0.00  0.00    +0.000 N 
ATOM     10  H   UNL     1       8.262   4.880  15.333  0.00  0.00    +0.000 HD
ATOM     11  H   UNL     1       7.918   6.506  15.539  0.00  0.00    +0.000 HD
ENDBRANCH   7   9
BRANCH   8  12
ATOM     12  C   UNL     1       4.866   4.518  15.678  0.00  0.00    +0.000 C 
BRANCH  12  13
ATOM     13  C   UNL     1       5.518   4.954  14.362  0.00  0.00    +0.000 C 
BRANCH  13  14
ATOM     14  C   UNL     1       5.600   3.917  13.256  0.00  0.00    +0.000 A 
ATOM     15  C   UNL     1       4.490   3.470  12.524  0.00  0.00    +0.000 A 
ATOM     16  C   UNL     1       4.665   2.655  11.401  0.00  0.00    +0.000 A 
ATOM     17  C   UNL     1       5.945   2.282  10.995  0.00  0.00    +0.000 A 
ATOM     18  C   UNL     1       7.053   2.707  11.721  0.00  0.00    +0.000 A 
ATOM     19  C   UNL     1       6.881   3.516  12.843  0.00  0.00    +0.000 A 
ENDBRANCH  13  14
ENDBRANCH  12  13
ENDBRANCH   8  12
ENDBRANCH   1   2
BRANCH   1  20
ATOM     20  C   UNL     1       3.138   3.503  19.813  0.00  0.00    +0.000 C 
ATOM     21  C   UNL     1       2.228   2.396  20.350  0.00  0.00    +0.000 C 
BRANCH  20  23
ATOM     22  N   UNL     1       2.896   5.916  19.503  0.00  0.00    +0.000 N 
ATOM     23  C   UNL     1       2.251   4.691  19.425  0.00  0.00    +0.000 C 
ATOM     24  O   UNL     1       1.074   4.531  19.101  0.00  0.00    +0.000 OA
ATOM     25  H   UNL     1       3.911   5.900  19.477  0.00  0.00    +0.000 HD
BRANCH  22  29
ATOM     26  C   UNL     1       1.099   9.710  19.002  0.00  0.00    +0.000 A 
ATOM     27  C   UNL     1       1.065   9.092  20.255  0.00  0.00    +0.000 A 
ATOM     28  C   UNL     1       1.656   7.838  20.438  0.00  0.00    +0.000 A 
ATOM     29  C   UNL     1       2.285   7.182  19.377  0.00  0.00    +0.000 A 
ATOM     30  C   UNL     1       2.338   7.812  18.129  0.00  0.00    +0.000 A 
ATOM     31  C   UNL     1       1.740   9.064  17.938  0.00  0.00    +0.000 A 
BRANCH  26  32
ATOM     32  C   UNL     1       0.382  11.004  18.846  0.00  0.00    +0.000 C 
ATOM     33  O   UNL     1       0.943  12.085  18.776  0.00  0.00    +0.000 OA
BRANCH  32  34
ATOM     34  O   UNL     1      -0.957  10.799  18.911  0.00  0.00    +0.000 OA
BRANCH  34  36
ATOM     35  C   UNL     1      -2.267  10.671  16.921  0.00  0.00    +0.000 C 
ATOM     36  C   UNL     1      -1.738  11.591  18.007  0.00  0.00    +0.000 C 
ENDBRANCH  34  36
ENDBRANCH  32  34
ENDBRANCH  26  32
ENDBRANCH  22  29
ENDBRANCH  20  23
ENDBRANCH   1  20
TORSDOF 11
ENDMDL
MODEL 9
REMARK VINA RESULT:      -7.7      0.980      1.146
REMARK  Name = 
REMARK  13 active torsions:
REMARK  status: ('A' for Active; 'I' for Inactive)
REMARK    1  A    between atoms: C_1  and  C_2
REMARK    2  A    between atoms: C_2  and  O_3
REMARK    3  A    between atoms: O_3  and  C_4
REMARK    4  A    between atoms: C_4  and  C_6
REMARK    5  A    between atoms: C_9  and  N_10
REMARK    6  A    between atoms: C_11  and  C_13
REMARK    7  A    between atoms: C_13  and  C_14
REMARK    8  A    between atoms: C_13  and  S_15
REMARK    9  A    between atoms: S_15  and  C_16
REMARK   10  A    between atoms: C_21  and  N_22
REMARK   11  A    between atoms: N_23  and  C_24
REMARK   12  A    between atoms: C_24  and  C_25
REMARK   13  A    between atoms: C_25  and  C_26
REMARK                            x       y       z     vdW  Elec       q    Type
REMARK                         _______ _______ _______ _____ _____    ______ ____
ROOT
ATOM      1  S   UNL     1       3.819   6.003  19.228  0.00  0.00    +0.000 S 
ENDROOT
BRANCH   1   2
ATOM      2  C   UNL     1       4.924   5.719  17.873  0.00  0.00    +0.000 A 
ATOM      3  N   UNL     1       5.933   6.527  17.883  0.00  0.00    +0.000 NA
ATOM      4  C   UNL     1       6.915   6.352  16.958  0.00  0.00    +0.000 A 
ATOM      5  O   UNL     1       7.769   7.197  16.725  0.00  0.00    +0.000 OA
ATOM      6  C   UNL     1       6.976   5.053  16.269  0.00  0.00    +0.000 A 
ATOM      7  C   UNL     1       5.903   4.247  16.264  0.00  0.00    +0.000 A 
ATOM      8  N   UNL     1       4.747   4.654  16.974  0.00  0.00    +0.000 N 
BRANCH   7   9
ATOM      9  N   UNL     1       6.015   3.037  15.597  0.00  0.00    +0.000 N 
ATOM     10  H   UNL     1       6.797   2.460  15.895  0.00  0.00    +0.000 HD
ATOM     11  H   UNL     1       5.954   3.080  14.587  0.00  0.00    +0.000 HD
ENDBRANCH   7   9
BRANCH   8  12
ATOM     12  C   UNL     1       3.530   3.795  16.880  0.00  0.00    +0.000 C 
BRANCH  12  13
ATOM     13  C   UNL     1       3.493   2.516  17.722  0.00  0.00    +0.000 C 
BRANCH  13  14
ATOM     14  C   UNL     1       2.749   2.582  19.043  0.00  0.00    +0.000 A 
ATOM     15  C   UNL     1       3.365   2.422  20.293  0.00  0.00    +0.000 A 
ATOM     16  C   UNL     1       2.655   2.677  21.471  0.00  0.00    +0.000 A 
ATOM     17  C   UNL     1       1.327   3.098  21.414  0.00  0.00    +0.000 A 
ATOM     18  C   UNL     1       0.700   3.248  20.181  0.00  0.00    +0.000 A 
ATOM     19  C   UNL     1       1.405   2.989  19.006  0.00  0.00    +0.000 A 
ENDBRANCH  13  14
ENDBRANCH  12  13
ENDBRANCH   8  12
ENDBRANCH   1   2
BRANCH   1  20
ATOM     20  C   UNL     1       2.510   7.027  18.448  0.00  0.00    +0.000 C 
ATOM     21  C   UNL     1       3.127   7.921  17.369  0.00  0.00    +0.000 C 
BRANCH  20  23
ATOM     22  N   UNL     1       1.265   9.074  18.938  0.00  0.00    +0.000 N 
ATOM     23  C   UNL     1       1.844   7.938  19.485  0.00  0.00    +0.000 C 
ATOM     24  O   UNL     1       1.862   7.662  20.684  0.00  0.00    +0.000 OA
ATOM     25  H   UNL     1       1.044   9.041  17.947  0.00  0.00    +0.000 HD
BRANCH  22  29
ATOM     26  C   UNL     1      -0.193  12.412  21.083  0.00  0.00    +0.000 A 
ATOM     27  C   UNL     1      -0.996  11.277  20.946  0.00  0.00    +0.000 A 
ATOM     28  C   UNL     1      -0.529  10.164  20.240  0.00  0.00    +0.000 A 
ATOM     29  C   UNL     1       0.742  10.166  19.661  0.00  0.00    +0.000 A 
ATOM     30  C   UNL     1       1.555  11.294  19.820  0.00  0.00    +0.000 A 
ATOM     31  C   UNL     1       1.088  12.416  20.517  0.00  0.00    +0.000 A 
BRANCH  26  32
ATOM     32  C   UNL     1      -0.774  13.595  21.771  0.00  0.00    +0.000 C 
ATOM     33  O   UNL     1      -1.029  14.648  21.209  0.00  0.00    +0.000 OA
BRANCH  32  34
ATOM     34  O   UNL     1      -0.861  13.358  23.103  0.00  0.00    +0.000 OA
BRANCH  34  36
ATOM     35  C   UNL     1      -2.888  14.081  24.133  0.00  0.00    +0.000 C 
ATOM     36  C   UNL     1      -1.431  14.422  23.875  0.00  0.00    +0.000 C 
ENDBRANCH  34  36
ENDBRANCH  32  34
ENDBRANCH  26  32
ENDBRANCH  22  29
ENDBRANCH  20  23
ENDBRANCH   1  20
TORSDOF 11
ENDMDL
