MODEL 1
REMARK VINA RESULT:      -8.4      0.000      0.000
REMARK  Name = 
REMARK  5 active torsions:
REMARK  status: ('A' for Active; 'I' for Inactive)
REMARK    1  A    between atoms: C_2  and  C_15
REMARK    2  A    between atoms: N_3  and  C_4
REMARK    3  A    between atoms: N_7  and  C_8
REMARK    4  A    between atoms: C_8  and  C_9
REMARK    5  A    between atoms: C_18  and  C_19
REMARK                            x       y       z     vdW  Elec       q    Type
REMARK                         _______ _______ _______ _____ _____    ______ ____
ROOT
ATOM      1  O   UNL     1       4.526   7.070  17.403  0.00  0.00    +0.000 OA
ATOM      2  C   UNL     1       3.405   6.761  17.790  0.00  0.00    +0.000 C 
ATOM      3  N   UNL     1       2.898   5.474  17.738  0.00  0.00    +0.000 N 
ATOM      4  H   UNL     1       1.910   5.328  17.904  0.00  0.00    +0.000 HD
ENDROOT
BRANCH   3   5
ATOM      5  C   UNL     1       3.722   4.329  17.328  0.00  0.00    +0.000 C 
ATOM      6  C   UNL     1       2.904   3.052  17.099  0.00  0.00    +0.000 C 
ATOM      7  C   UNL     1       2.348   2.451  18.398  0.00  0.00    +0.000 C 
ATOM      8  N   UNL     1       3.303   2.391  19.515  0.00  0.00    +0.000 NA
ATOM      9  C   UNL     1       4.114   3.602  19.681  0.00  0.00    +0.000 C 
ATOM     10  C   UNL     1       4.790   3.991  18.371  0.00  0.00    +0.000 C 
BRANCH   8  11
ATOM     11  C   UNL     1       2.619   2.052  20.798  0.00  0.00    +0.000 C 
BRANCH  11  12
ATOM     12  C   UNL     1       1.675   3.075  21.485  0.00  0.00    +0.000 C 
ATOM     13  F   UNL     1       0.954   3.814  20.607  0.00  0.00    +0.000 F 
ATOM     14  F   UNL     1       0.788   2.443  22.288  0.00  0.00    +0.000 F 
ATOM     15  F   UNL     1       2.372   3.945  22.249  0.00  0.00    +0.000 F 
ENDBRANCH  11  12
ENDBRANCH   8  11
ENDBRANCH   3   5
BRANCH   2  16
ATOM     16  C   UNL     1       2.532   7.804  18.378  0.00  0.00    +0.000 A 
ATOM     17  C   UNL     1       2.021   8.867  17.633  0.00  0.00    +0.000 A 
ATOM     18  C   UNL     1       1.157   9.774  18.243  0.00  0.00    +0.000 A 
ATOM     19  C   UNL     1       0.820   9.588  19.582  0.00  0.00    +0.000 A 
ATOM     20  N   UNL     1       1.288   8.559  20.323  0.00  0.00    +0.000 NA
ATOM     21  C   UNL     1       2.126   7.687  19.701  0.00  0.00    +0.000 A 
BRANCH  19  22
ATOM     22  C   UNL     1      -0.146  10.494  20.229  0.00  0.00    +0.000 A 
ATOM     23  C   UNL     1      -1.008  11.379  19.457  0.00  0.00    +0.000 A 
ATOM     24  C   UNL     1      -1.820  12.245  20.081  0.00  0.00    +0.000 A 
ATOM     25  N   UNL     1      -1.843  12.295  21.449  0.00  0.00    +0.000 N 
ATOM     26  C   UNL     1      -1.083  11.495  22.257  0.00  0.00    +0.000 A 
ATOM     27  O   UNL     1      -1.124  11.565  23.483  0.00  0.00    +0.000 OA
ATOM     28  C   UNL     1      -0.180  10.537  21.570  0.00  0.00    +0.000 A 
ATOM     29  H   UNL     1      -2.456  12.948  21.922  0.00  0.00    +0.000 HD
ENDBRANCH  19  22
ENDBRANCH   2  16
TORSDOF 5
ENDMDL
MODEL 2
REMARK VINA RESULT:      -8.4      0.858      1.465
REMARK  Name = 
REMARK  5 active torsions:
REMARK  status: ('A' for Active; 'I' for Inactive)
REMARK    1  A    between atoms: C_2  and  C_15
REMARK    2  A    between atoms: N_3  and  C_4
REMARK    3  A    between atoms: N_7  and  C_8
REMARK    4  A    between atoms: C_8  and  C_9
REMARK    5  A    between atoms: C_18  and  C_19
REMARK                            x       y       z     vdW  Elec       q    Type
REMARK                         _______ _______ _______ _____ _____    ______ ____
ROOT
ATOM      1  O   UNL     1       4.148   7.297  17.300  0.00  0.00    +0.000 OA
ATOM      2  C   UNL     1       3.129   6.944  17.882  0.00  0.00    +0.000 C 
ATOM      3  N   UNL     1       2.685   5.634  17.933  0.00  0.00    +0.000 N 
ATOM      4  H   UNL     1       1.750   5.445  18.271  0.00  0.00    +0.000 HD
ENDROOT
BRANCH   3   5
ATOM      5  C   UNL     1       3.480   4.521  17.397  0.00  0.00    +0.000 C 
ATOM      6  C   UNL     1       2.644   3.268  17.111  0.00  0.00    +0.000 C 
ATOM      7  C   UNL     1       2.147   2.571  18.386  0.00  0.00    +0.000 C 
ATOM      8  N   UNL     1       3.154   2.422  19.447  0.00  0.00    +0.000 NA
ATOM      9  C   UNL     1       3.981   3.615  19.665  0.00  0.00    +0.000 C 
ATOM     10  C   UNL     1       4.595   4.100  18.358  0.00  0.00    +0.000 C 
BRANCH   8  11
ATOM     11  C   UNL     1       2.531   1.988  20.732  0.00  0.00    +0.000 C 
BRANCH  11  12
ATOM     12  C   UNL     1       1.607   2.949  21.528  0.00  0.00    +0.000 C 
ATOM     13  F   UNL     1       0.801   2.311  22.410  0.00  0.00    +0.000 F 
ATOM     14  F   UNL     1       2.340   3.839  22.236  0.00  0.00    +0.000 F 
ATOM     15  F   UNL     1       0.802   3.649  20.698  0.00  0.00    +0.000 F 
ENDBRANCH  11  12
ENDBRANCH   8  11
ENDBRANCH   3   5
BRANCH   2  16
ATOM     16  C   UNL     1       2.322   7.956  18.602  0.00  0.00    +0.000 A 
ATOM     17  C   UNL     1       1.804   9.091  17.978  0.00  0.00    +0.000 A 
ATOM     18  C   UNL     1       1.003   9.966  18.709  0.00  0.00    +0.000 A 
ATOM     19  C   UNL     1       0.733   9.676  20.044  0.00  0.00    +0.000 A 
ATOM     20  N   UNL     1       1.209   8.577  20.670  0.00  0.00    +0.000 NA
ATOM     21  C   UNL     1       1.984   7.738  19.932  0.00  0.00    +0.000 A 
BRANCH  19  22
ATOM     22  C   UNL     1      -0.168  10.549  20.818  0.00  0.00    +0.000 A 
ATOM     23  C   UNL     1      -0.261  10.466  22.270  0.00  0.00    +0.000 A 
ATOM     24  C   UNL     1      -1.147  11.221  22.935  0.00  0.00    +0.000 A 
ATOM     25  N   UNL     1      -1.965  12.078  22.248  0.00  0.00    +0.000 N 
ATOM     26  C   UNL     1      -1.941  12.236  20.890  0.00  0.00    +0.000 A 
ATOM     27  O   UNL     1      -2.689  13.012  20.302  0.00  0.00    +0.000 OA
ATOM     28  C   UNL     1      -0.963  11.399  20.149  0.00  0.00    +0.000 A 
ATOM     29  H   UNL     1      -2.635  12.650  22.748  0.00  0.00    +0.000 HD
ENDBRANCH  19  22
ENDBRANCH   2  16
TORSDOF 5
ENDMDL
MODEL 3
REMARK VINA RESULT:      -8.2      3.991      4.895
REMARK  Name = 
REMARK  5 active torsions:
REMARK  status: ('A' for Active; 'I' for Inactive)
REMARK    1  A    between atoms: C_2  and  C_15
REMARK    2  A    between atoms: N_3  and  C_4
REMARK    3  A    between atoms: N_7  and  C_8
REMARK    4  A    between atoms: C_8  and  C_9
REMARK    5  A    between atoms: C_18  and  C_19
REMARK                            x       y       z     vdW  Elec       q    Type
REMARK                         _______ _______ _______ _____ _____    ______ ____
ROOT
ATOM      1  O   UNL     1       2.657   5.057  19.998  0.00  0.00    +0.000 OA
ATOM      2  C   UNL     1       3.201   5.929  19.331  0.00  0.00    +0.000 C 
ATOM      3  N   UNL     1       4.429   5.773  18.711  0.00  0.00    +0.000 N 
ATOM      4  H   UNL     1       4.896   6.587  18.334  0.00  0.00    +0.000 HD
ENDROOT
BRANCH   3   5
ATOM      5  C   UNL     1       5.133   4.483  18.694  0.00  0.00    +0.000 C 
ATOM      6  C   UNL     1       6.620   4.615  18.344  0.00  0.00    +0.000 C 
ATOM      7  C   UNL     1       6.863   5.003  16.879  0.00  0.00    +0.000 C 
ATOM      8  N   UNL     1       6.053   4.266  15.897  0.00  0.00    +0.000 NA
ATOM      9  C   UNL     1       4.646   4.102  16.278  0.00  0.00    +0.000 C 
ATOM     10  C   UNL     1       4.524   3.513  17.679  0.00  0.00    +0.000 C 
BRANCH   8  11
ATOM     11  C   UNL     1       6.149   4.881  14.541  0.00  0.00    +0.000 C 
BRANCH  11  12
ATOM     12  C   UNL     1       6.080   3.999  13.265  0.00  0.00    +0.000 C 
ATOM     13  F   UNL     1       6.913   4.413  12.280  0.00  0.00    +0.000 F 
ATOM     14  F   UNL     1       6.413   2.719  13.550  0.00  0.00    +0.000 F 
ATOM     15  F   UNL     1       4.832   3.992  12.745  0.00  0.00    +0.000 F 
ENDBRANCH  11  12
ENDBRANCH   8  11
ENDBRANCH   3   5
BRANCH   2  16
ATOM     16  C   UNL     1       2.512   7.226  19.138  0.00  0.00    +0.000 A 
ATOM     17  C   UNL     1       2.440   7.864  17.900  0.00  0.00    +0.000 A 
ATOM     18  C   UNL     1       1.721   9.053  17.786  0.00  0.00    +0.000 A 
ATOM     19  C   UNL     1       1.084   9.566  18.914  0.00  0.00    +0.000 A 
ATOM     20  N   UNL     1       1.124   8.960  20.121  0.00  0.00    +0.000 NA
ATOM     21  C   UNL     1       1.829   7.800  20.203  0.00  0.00    +0.000 A 
BRANCH  19  22
ATOM     22  C   UNL     1       0.260  10.783  18.803  0.00  0.00    +0.000 A 
ATOM     23  C   UNL     1      -1.171  10.723  18.537  0.00  0.00    +0.000 A 
ATOM     24  C   UNL     1      -1.876  11.850  18.365  0.00  0.00    +0.000 A 
ATOM     25  N   UNL     1      -1.248  13.065  18.446  0.00  0.00    +0.000 N 
ATOM     26  C   UNL     1       0.085  13.223  18.706  0.00  0.00    +0.000 A 
ATOM     27  O   UNL     1       0.620  14.327  18.770  0.00  0.00    +0.000 OA
ATOM     28  C   UNL     1       0.869  11.976  18.892  0.00  0.00    +0.000 A 
ATOM     29  H   UNL     1      -1.778  13.919  18.316  0.00  0.00    +0.000 HD
ENDBRANCH  19  22
ENDBRANCH   2  16
TORSDOF 5
ENDMDL
MODEL 4
REMARK VINA RESULT:      -8.2      3.900      4.838
REMARK  Name = 
REMARK  5 active torsions:
REMARK  status: ('A' for Active; 'I' for Inactive)
REMARK    1  A    between atoms: C_2  and  C_15
REMARK    2  A    between atoms: N_3  and  C_4
REMARK    3  A    between atoms: N_7  and  C_8
REMARK    4  A    between atoms: C_8  and  C_9
REMARK    5  A    between atoms: C_18  and  C_19
REMARK                            x       y       z     vdW  Elec       q    Type
REMARK                         _______ _______ _______ _____ _____    ______ ____
ROOT
ATOM      1  O   UNL     1       2.668   5.363  20.579  0.00  0.00    +0.000 OA
ATOM      2  C   UNL     1       3.099   6.064  19.671  0.00  0.00    +0.000 C 
ATOM      3  N   UNL     1       4.205   5.739  18.905  0.00  0.00    +0.000 N 
ATOM      4  H   UNL     1       4.609   6.443  18.301  0.00  0.00    +0.000 HD
ENDROOT
BRANCH   3   5
ATOM      5  C   UNL     1       4.887   4.444  19.034  0.00  0.00    +0.000 C 
ATOM      6  C   UNL     1       6.416   4.568  19.031  0.00  0.00    +0.000 C 
ATOM      7  C   UNL     1       6.987   4.966  17.663  0.00  0.00    +0.000 C 
ATOM      8  N   UNL     1       6.416   4.244  16.515  0.00  0.00    +0.000 NA
ATOM      9  C   UNL     1       4.958   4.088  16.567  0.00  0.00    +0.000 C 
ATOM     10  C   UNL     1       4.518   3.487  17.897  0.00  0.00    +0.000 C 
BRANCH   8  11
ATOM     11  C   UNL     1       6.820   4.870  15.223  0.00  0.00    +0.000 C 
BRANCH  11  12
ATOM     12  C   UNL     1       6.350   4.269  13.871  0.00  0.00    +0.000 C 
ATOM     13  F   UNL     1       5.074   4.595  13.553  0.00  0.00    +0.000 F 
ATOM     14  F   UNL     1       7.132   4.702  12.856  0.00  0.00    +0.000 F 
ATOM     15  F   UNL     1       6.414   2.918  13.890  0.00  0.00    +0.000 F 
ENDBRANCH  11  12
ENDBRANCH   8  11
ENDBRANCH   3   5
BRANCH   2  16
ATOM     16  C   UNL     1       2.396   7.324  19.335  0.00  0.00    +0.000 A 
ATOM     17  C   UNL     1       2.426   7.886  18.059  0.00  0.00    +0.000 A 
ATOM     18  C   UNL     1       1.689   9.042  17.806  0.00  0.00    +0.000 A 
ATOM     19  C   UNL     1       0.933   9.598  18.835  0.00  0.00    +0.000 A 
ATOM     20  N   UNL     1       0.874   9.066  20.076  0.00  0.00    +0.000 NA
ATOM     21  C   UNL     1       1.599   7.936  20.294  0.00  0.00    +0.000 A 
BRANCH  19  22
ATOM     22  C   UNL     1       0.091  10.779  18.573  0.00  0.00    +0.000 A 
ATOM     23  C   UNL     1       0.596  12.136  18.733  0.00  0.00    +0.000 A 
ATOM     24  C   UNL     1      -0.219  13.186  18.561  0.00  0.00    +0.000 A 
ATOM     25  N   UNL     1      -1.532  12.983  18.228  0.00  0.00    +0.000 N 
ATOM     26  C   UNL     1      -2.093  11.749  18.042  0.00  0.00    +0.000 A 
ATOM     27  O   UNL     1      -3.275  11.600  17.745  0.00  0.00    +0.000 OA
ATOM     28  C   UNL     1      -1.194  10.584  18.235  0.00  0.00    +0.000 A 
ATOM     29  H   UNL     1      -2.150  13.775  18.097  0.00  0.00    +0.000 HD
ENDBRANCH  19  22
ENDBRANCH   2  16
TORSDOF 5
ENDMDL
MODEL 5
REMARK VINA RESULT:      -8.0      0.729      1.273
REMARK  Name = 
REMARK  5 active torsions:
REMARK  status: ('A' for Active; 'I' for Inactive)
REMARK    1  A    between atoms: C_2  and  C_15
REMARK    2  A    between atoms: N_3  and  C_4
REMARK    3  A    between atoms: N_7  and  C_8
REMARK    4  A    between atoms: C_8  and  C_9
REMARK    5  A    between atoms: C_18  and  C_19
REMARK                            x       y       z     vdW  Elec       q    Type
REMARK                         _______ _______ _______ _____ _____    ______ ____
ROOT
ATOM      1  O   UNL     1       4.244   7.331  17.412  0.00  0.00    +0.000 OA
ATOM      2  C   UNL     1       3.176   6.956  17.881  0.00  0.00    +0.000 C 
ATOM      3  N   UNL     1       2.753   5.638  17.880  0.00  0.00    +0.000 N 
ATOM      4  H   UNL     1       1.791   5.430  18.116  0.00  0.00    +0.000 HD
ENDROOT
BRANCH   3   5
ATOM      5  C   UNL     1       3.621   4.543  17.426  0.00  0.00    +0.000 C 
ATOM      6  C   UNL     1       2.843   3.277  17.047  0.00  0.00    +0.000 C 
ATOM      7  C   UNL     1       2.225   2.563  18.258  0.00  0.00    +0.000 C 
ATOM      8  N   UNL     1       3.116   2.425  19.420  0.00  0.00    +0.000 NA
ATOM      9  C   UNL     1       3.893   3.631  19.731  0.00  0.00    +0.000 C 
ATOM     10  C   UNL     1       4.635   4.136  18.499  0.00  0.00    +0.000 C 
BRANCH   8  11
ATOM     11  C   UNL     1       2.367   1.972  20.629  0.00  0.00    +0.000 C 
BRANCH  11  12
ATOM     12  C   UNL     1       1.543   2.980  21.473  0.00  0.00    +0.000 C 
ATOM     13  F   UNL     1       2.313   3.827  22.198  0.00  0.00    +0.000 F 
ATOM     14  F   UNL     1       0.760   3.743  20.677  0.00  0.00    +0.000 F 
ATOM     15  F   UNL     1       0.737   2.339  22.349  0.00  0.00    +0.000 F 
ENDBRANCH  11  12
ENDBRANCH   8  11
ENDBRANCH   3   5
BRANCH   2  16
ATOM     16  C   UNL     1       2.279   7.949  18.516  0.00  0.00    +0.000 A 
ATOM     17  C   UNL     1       1.902   7.875  19.857  0.00  0.00    +0.000 A 
ATOM     18  C   UNL     1       1.104   8.881  20.398  0.00  0.00    +0.000 A 
ATOM     19  C   UNL     1       0.712   9.941  19.584  0.00  0.00    +0.000 A 
ATOM     20  N   UNL     1       1.074  10.046  18.287  0.00  0.00    +0.000 NA
ATOM     21  C   UNL     1       1.857   9.053  17.786  0.00  0.00    +0.000 A 
BRANCH  19  22
ATOM     22  C   UNL     1      -0.074  11.052  20.152  0.00  0.00    +0.000 A 
ATOM     23  C   UNL     1      -0.832  11.968  19.310  0.00  0.00    +0.000 A 
ATOM     24  C   UNL     1      -1.472  13.013  19.852  0.00  0.00    +0.000 A 
ATOM     25  N   UNL     1      -1.418  13.218  21.205  0.00  0.00    +0.000 N 
ATOM     26  C   UNL     1      -0.746  12.406  22.077  0.00  0.00    +0.000 A 
ATOM     27  O   UNL     1      -0.714  12.618  23.286  0.00  0.00    +0.000 OA
ATOM     28  C   UNL     1      -0.032  11.250  21.479  0.00  0.00    +0.000 A 
ATOM     29  H   UNL     1      -1.901  14.008  21.618  0.00  0.00    +0.000 HD
ENDBRANCH  19  22
ENDBRANCH   2  16
TORSDOF 5
ENDMDL
MODEL 6
REMARK VINA RESULT:      -8.0      4.012      4.979
REMARK  Name = 
REMARK  5 active torsions:
REMARK  status: ('A' for Active; 'I' for Inactive)
REMARK    1  A    between atoms: C_2  and  C_15
REMARK    2  A    between atoms: N_3  and  C_4
REMARK    3  A    between atoms: N_7  and  C_8
REMARK    4  A    between atoms: C_8  and  C_9
REMARK    5  A    between atoms: C_18  and  C_19
REMARK                            x       y       z     vdW  Elec       q    Type
REMARK                         _______ _______ _______ _____ _____    ______ ____
ROOT
ATOM      1  O   UNL     1       3.023   5.192  20.265  0.00  0.00    +0.000 OA
ATOM      2  C   UNL     1       3.367   6.017  19.426  0.00  0.00    +0.000 C 
ATOM      3  N   UNL     1       4.470   5.866  18.603  0.00  0.00    +0.000 N 
ATOM      4  H   UNL     1       4.796   6.661  18.068  0.00  0.00    +0.000 HD
ENDROOT
BRANCH   3   5
ATOM      5  C   UNL     1       5.256   4.625  18.575  0.00  0.00    +0.000 C 
ATOM      6  C   UNL     1       6.661   4.818  17.990  0.00  0.00    +0.000 C 
ATOM      7  C   UNL     1       6.653   5.090  16.479  0.00  0.00    +0.000 C 
ATOM      8  N   UNL     1       5.762   4.223  15.694  0.00  0.00    +0.000 NA
ATOM      9  C   UNL     1       4.443   4.007  16.301  0.00  0.00    +0.000 C 
ATOM     10  C   UNL     1       4.575   3.535  17.744  0.00  0.00    +0.000 C 
BRANCH   8  11
ATOM     11  C   UNL     1       5.608   4.722  14.297  0.00  0.00    +0.000 C 
BRANCH  11  12
ATOM     12  C   UNL     1       6.071   3.858  13.093  0.00  0.00    +0.000 C 
ATOM     13  F   UNL     1       7.126   4.386  12.427  0.00  0.00    +0.000 F 
ATOM     14  F   UNL     1       6.442   2.624  13.504  0.00  0.00    +0.000 F 
ATOM     15  F   UNL     1       5.076   3.707  12.190  0.00  0.00    +0.000 F 
ENDBRANCH  11  12
ENDBRANCH   8  11
ENDBRANCH   3   5
BRANCH   2  16
ATOM     16  C   UNL     1       2.557   7.244  19.245  0.00  0.00    +0.000 A 
ATOM     17  C   UNL     1       2.393   7.862  18.005  0.00  0.00    +0.000 A 
ATOM     18  C   UNL     1       1.564   8.979  17.905  0.00  0.00    +0.000 A 
ATOM     19  C   UNL     1       0.914   9.440  19.046  0.00  0.00    +0.000 A 
ATOM     20  N   UNL     1       1.042   8.852  20.256  0.00  0.00    +0.000 NA
ATOM     21  C   UNL     1       1.853   7.762  20.325  0.00  0.00    +0.000 A 
BRANCH  19  22
ATOM     22  C   UNL     1      -0.021  10.576  18.951  0.00  0.00    +0.000 A 
ATOM     23  C   UNL     1       0.106  11.752  19.801  0.00  0.00    +0.000 A 
ATOM     24  C   UNL     1      -0.807  12.732  19.742  0.00  0.00    +0.000 A 
ATOM     25  N   UNL     1      -1.861  12.630  18.875  0.00  0.00    +0.000 N 
ATOM     26  C   UNL     1      -2.057  11.573  18.028  0.00  0.00    +0.000 A 
ATOM     27  O   UNL     1      -3.015  11.510  17.262  0.00  0.00    +0.000 OA
ATOM     28  C   UNL     1      -1.050  10.484  18.094  0.00  0.00    +0.000 A 
ATOM     29  H   UNL     1      -2.553  13.369  18.827  0.00  0.00    +0.000 HD
ENDBRANCH  19  22
ENDBRANCH   2  16
TORSDOF 5
ENDMDL
MODEL 7
REMARK VINA RESULT:      -7.9      4.055      5.030
REMARK  Name = 
REMARK  5 active torsions:
REMARK  status: ('A' for Active; 'I' for Inactive)
REMARK    1  A    between atoms: C_2  and  C_15
REMARK    2  A    between atoms: N_3  and  C_4
REMARK    3  A    between atoms: N_7  and  C_8
REMARK    4  A    between atoms: C_8  and  C_9
REMARK    5  A    between atoms: C_18  and  C_19
REMARK                            x       y       z     vdW  Elec       q    Type
REMARK                         _______ _______ _______ _____ _____    ______ ____
ROOT
ATOM      1  O   UNL     1       2.824   5.101  20.304  0.00  0.00    +0.000 OA
ATOM      2  C   UNL     1       3.213   5.993  19.560  0.00  0.00    +0.000 C 
ATOM      3  N   UNL     1       4.410   5.952  18.867  0.00  0.00    +0.000 N 
ATOM      4  H   UNL     1       4.749   6.795  18.420  0.00  0.00    +0.000 HD
ENDROOT
BRANCH   3   5
ATOM      5  C   UNL     1       5.267   4.758  18.864  0.00  0.00    +0.000 C 
ATOM      6  C   UNL     1       6.703   5.051  18.413  0.00  0.00    +0.000 C 
ATOM      7  C   UNL     1       6.810   5.385  16.918  0.00  0.00    +0.000 C 
ATOM      8  N   UNL     1       6.042   4.504  16.026  0.00  0.00    +0.000 NA
ATOM      9  C   UNL     1       4.690   4.191  16.505  0.00  0.00    +0.000 C 
ATOM     10  C   UNL     1       4.725   3.668  17.937  0.00  0.00    +0.000 C 
BRANCH   8  11
ATOM     11  C   UNL     1       5.981   5.051  14.639  0.00  0.00    +0.000 C 
BRANCH  11  12
ATOM     12  C   UNL     1       6.093   4.109  13.411  0.00  0.00    +0.000 C 
ATOM     13  F   UNL     1       6.365   2.824  13.744  0.00  0.00    +0.000 F 
ATOM     14  F   UNL     1       4.936   4.097  12.710  0.00  0.00    +0.000 F 
ATOM     15  F   UNL     1       7.076   4.512  12.575  0.00  0.00    +0.000 F 
ENDBRANCH  11  12
ENDBRANCH   8  11
ENDBRANCH   3   5
BRANCH   2  16
ATOM     16  C   UNL     1       2.357   7.184  19.352  0.00  0.00    +0.000 A 
ATOM     17  C   UNL     1       1.670   7.809  20.394  0.00  0.00    +0.000 A 
ATOM     18  C   UNL     1       0.933   8.962  20.129  0.00  0.00    +0.000 A 
ATOM     19  C   UNL     1       0.911   9.465  18.831  0.00  0.00    +0.000 A 
ATOM     20  N   UNL     1       1.580   8.889  17.807  0.00  0.00    +0.000 NA
ATOM     21  C   UNL     1       2.294   7.768  18.094  0.00  0.00    +0.000 A 
BRANCH  19  22
ATOM     22  C   UNL     1       0.197  10.721  18.541  0.00  0.00    +0.000 A 
ATOM     23  C   UNL     1       0.831  12.023  18.702  0.00  0.00    +0.000 A 
ATOM     24  C   UNL     1       0.129  13.147  18.504  0.00  0.00    +0.000 A 
ATOM     25  N   UNL     1      -1.190  13.073  18.143  0.00  0.00    +0.000 N 
ATOM     26  C   UNL     1      -1.867  11.899  17.954  0.00  0.00    +0.000 A 
ATOM     27  O   UNL     1      -3.052  11.865  17.632  0.00  0.00    +0.000 OA
ATOM     28  C   UNL     1      -1.093  10.652  18.176  0.00  0.00    +0.000 A 
ATOM     29  H   UNL     1      -1.724  13.921  17.993  0.00  0.00    +0.000 HD
ENDBRANCH  19  22
ENDBRANCH   2  16
TORSDOF 5
ENDMDL
MODEL 8
REMARK VINA RESULT:      -7.8      1.088      1.413
REMARK  Name = 
REMARK  5 active torsions:
REMARK  status: ('A' for Active; 'I' for Inactive)
REMARK    1  A    between atoms: C_2  and  C_15
REMARK    2  A    between atoms: N_3  and  C_4
REMARK    3  A    between atoms: N_7  and  C_8
REMARK    4  A    between atoms: C_8  and  C_9
REMARK    5  A    between atoms: C_18  and  C_19
REMARK                            x       y       z     vdW  Elec       q    Type
REMARK                         _______ _______ _______ _____ _____    ______ ____
ROOT
ATOM      1  O   UNL     1       3.806   7.357  16.581  0.00  0.00    +0.000 OA
ATOM      2  C   UNL     1       3.468   7.203  17.749  0.00  0.00    +0.000 C 
ATOM      3  N   UNL     1       3.928   6.176  18.556  0.00  0.00    +0.000 N 
ATOM      4  H   UNL     1       3.471   6.006  19.443  0.00  0.00    +0.000 HD
ENDROOT
BRANCH   3   5
ATOM      5  C   UNL     1       4.975   5.247  18.111  0.00  0.00    +0.000 C 
ATOM      6  C   UNL     1       4.579   4.448  16.863  0.00  0.00    +0.000 C 
ATOM      7  C   UNL     1       3.483   3.408  17.135  0.00  0.00    +0.000 C 
ATOM      8  N   UNL     1       3.671   2.609  18.355  0.00  0.00    +0.000 NA
ATOM      9  C   UNL     1       4.105   3.384  19.523  0.00  0.00    +0.000 C 
ATOM     10  C   UNL     1       5.333   4.226  19.195  0.00  0.00    +0.000 C 
BRANCH   8  11
ATOM     11  C   UNL     1       2.446   1.824  18.686  0.00  0.00    +0.000 C 
BRANCH  11  12
ATOM     12  C   UNL     1       1.158   2.538  19.176  0.00  0.00    +0.000 C 
ATOM     13  F   UNL     1       1.114   3.851  18.846  0.00  0.00    +0.000 F 
ATOM     14  F   UNL     1       0.058   1.960  18.640  0.00  0.00    +0.000 F 
ATOM     15  F   UNL     1       1.044   2.469  20.521  0.00  0.00    +0.000 F 
ENDBRANCH  11  12
ENDBRANCH   8  11
ENDBRANCH   3   5
BRANCH   2  16
ATOM     16  C   UNL     1       2.536   8.175  18.365  0.00  0.00    +0.000 A 
ATOM     17  C   UNL     1       2.085   9.314  17.696  0.00  0.00    +0.000 A 
ATOM     18  C   UNL     1       1.160  10.149  18.320  0.00  0.00    +0.000 A 
ATOM     19  C   UNL     1       0.703   9.817  19.593  0.00  0.00    +0.000 A 
ATOM     20  N   UNL     1       1.111   8.713  20.257  0.00  0.00    +0.000 NA
ATOM     21  C   UNL     1       2.011   7.913  19.624  0.00  0.00    +0.000 A 
BRANCH  19  22
ATOM     22  C   UNL     1      -0.327  10.647  20.244  0.00  0.00    +0.000 A 
ATOM     23  C   UNL     1      -1.354  11.340  19.479  0.00  0.00    +0.000 A 
ATOM     24  C   UNL     1      -2.228  12.148  20.096  0.00  0.00    +0.000 A 
ATOM     25  N   UNL     1      -2.158  12.319  21.452  0.00  0.00    +0.000 N 
ATOM     26  C   UNL     1      -1.240  11.701  22.256  0.00  0.00    +0.000 A 
ATOM     27  O   UNL     1      -1.201  11.876  23.471  0.00  0.00    +0.000 OA
ATOM     28  C   UNL     1      -0.268  10.808  21.576  0.00  0.00    +0.000 A 
ATOM     29  H   UNL     1      -2.817  12.929  21.921  0.00  0.00    +0.000 HD
ENDBRANCH  19  22
ENDBRANCH   2  16
TORSDOF 5
ENDMDL
MODEL 9
REMARK VINA RESULT:      -7.8      1.117      1.728
REMARK  Name = 
REMARK  5 active torsions:
REMARK  status: ('A' for Active; 'I' for Inactive)
REMARK    1  A    between atoms: C_2  and  C_15
REMARK    2  A    between atoms: N_3  and  C_4
REMARK    3  A    between atoms: N_7  and  C_8
REMARK    4  A    between atoms: C_8  and  C_9
REMARK    5  A    between atoms: C_18  and  C_19
REMARK                            x       y       z     vdW  Elec       q    Type
REMARK                         _______ _______ _______ _____ _____    ______ ____
ROOT
ATOM      1  O   UNL     1       4.206   7.288  17.284  0.00  0.00    +0.000 OA
ATOM      2  C   UNL     1       3.155   6.925  17.800  0.00  0.00    +0.000 C 
ATOM      3  N   UNL     1       2.731   5.608  17.839  0.00  0.00    +0.000 N 
ATOM      4  H   UNL     1       1.778   5.407  18.116  0.00  0.00    +0.000 HD
ENDROOT
BRANCH   3   5
ATOM      5  C   UNL     1       3.580   4.502  17.375  0.00  0.00    +0.000 C 
ATOM      6  C   UNL     1       2.785   3.230  17.052  0.00  0.00    +0.000 C 
ATOM      7  C   UNL     1       2.216   2.542  18.301  0.00  0.00    +0.000 C 
ATOM      8  N   UNL     1       3.152   2.426  19.430  0.00  0.00    +0.000 NA
ATOM      9  C   UNL     1       3.942   3.637  19.685  0.00  0.00    +0.000 C 
ATOM     10  C   UNL     1       4.634   4.115  18.414  0.00  0.00    +0.000 C 
BRANCH   8  11
ATOM     11  C   UNL     1       2.451   1.999  20.677  0.00  0.00    +0.000 C 
BRANCH  11  12
ATOM     12  C   UNL     1       1.585   3.005  21.482  0.00  0.00    +0.000 C 
ATOM     13  F   UNL     1       0.774   2.409  22.389  0.00  0.00    +0.000 F 
ATOM     14  F   UNL     1       2.369   3.872  22.163  0.00  0.00    +0.000 F 
ATOM     15  F   UNL     1       0.789   3.728  20.662  0.00  0.00    +0.000 F 
ENDBRANCH  11  12
ENDBRANCH   8  11
ENDBRANCH   3   5
BRANCH   2  16
ATOM     16  C   UNL     1       2.285   7.932  18.449  0.00  0.00    +0.000 A 
ATOM     17  C   UNL     1       1.923   7.859  19.795  0.00  0.00    +0.000 A 
ATOM     18  C   UNL     1       1.150   8.878  20.349  0.00  0.00    +0.000 A 
ATOM     19  C   UNL     1       0.768   9.948  19.543  0.00  0.00    +0.000 A 
ATOM     20  N   UNL     1       1.117  10.051  18.242  0.00  0.00    +0.000 NA
ATOM     21  C   UNL     1       1.875   9.046  17.728  0.00  0.00    +0.000 A 
BRANCH  19  22
ATOM     22  C   UNL     1       0.010  11.071  20.124  0.00  0.00    +0.000 A 
ATOM     23  C   UNL     1       0.549  11.886  21.205  0.00  0.00    +0.000 A 
ATOM     24  C   UNL     1      -0.198  12.851  21.762  0.00  0.00    +0.000 A 
ATOM     25  N   UNL     1      -1.471  13.074  21.309  0.00  0.00    +0.000 N 
ATOM     26  C   UNL     1      -2.057  12.372  20.292  0.00  0.00    +0.000 A 
ATOM     27  O   UNL     1      -3.202  12.595  19.909  0.00  0.00    +0.000 OA
ATOM     28  C   UNL     1      -1.234  11.301  19.675  0.00  0.00    +0.000 A 
ATOM     29  H   UNL     1      -2.037  13.802  21.728  0.00  0.00    +0.000 HD
ENDBRANCH  19  22
ENDBRANCH   2  16
TORSDOF 5
ENDMDL
