MODEL 1
REMARK VINA RESULT:      -6.9      0.000      0.000
REMARK  Name = 
REMARK  16 active torsions:
REMARK  status: ('A' for Active; 'I' for Inactive)
REMARK    1  A    between atoms: C_1  and  C_2
REMARK    2  A    between atoms: C_2  and  C_3
REMARK    3  A    between atoms: C_3  and  O_4
REMARK    4  A    between atoms: O_4  and  C_5
REMARK    5  A    between atoms: C_6  and  C_7
REMARK    6  A    between atoms: N_9  and  N_10
REMARK    7  A    between atoms: C_11  and  C_12
REMARK    8  A    between atoms: C_11  and  C_13
REMARK    9  A    between atoms: C_15  and  C_16
REMARK   10  A    between atoms: N_18  and  N_19
REMARK   11  A    between atoms: C_20  and  C_21
REMARK   12  A    between atoms: C_20  and  C_22
REMARK   13  A    between atoms: C_23  and  O_24
REMARK   14  A    between atoms: O_24  and  C_25
REMARK   15  A    between atoms: C_25  and  C_26
REMARK   16  A    between atoms: C_26  and  C_27
REMARK                            x       y       z     vdW  Elec       q    Type
REMARK                         _______ _______ _______ _____ _____    ______ ____
ROOT
ATOM      1  C   UNL     1       4.323   4.953  17.623  0.00  0.00    +0.000 A 
ATOM      2  C   UNL     1       5.070   5.642  16.667  0.00  0.00    +0.000 A 
ATOM      3  S   UNL     1       4.577   7.284  16.576  0.00  0.00    +0.000 S 
ATOM      4  C   UNL     1       3.306   7.083  17.705  0.00  0.00    +0.000 A 
ATOM      5  C   UNL     1       3.300   5.796  18.215  0.00  0.00    +0.000 A 
ENDROOT
BRANCH   2   6
ATOM      6  C   UNL     1       6.107   5.196  15.732  0.00  0.00    +0.000 C 
ATOM      7  O   UNL     1       7.268   5.598  15.784  0.00  0.00    +0.000 OA
ATOM      8  N   UNL     1       5.685   4.286  14.757  0.00  0.00    +0.000 N 
ATOM      9  H   UNL     1       4.740   3.930  14.785  0.00  0.00    +0.000 HD
BRANCH   8  10
ATOM     10  N   UNL     1       6.555   3.907  13.776  0.00  0.00    +0.000 NA
ATOM     11  C   UNL     1       6.136   3.528  12.608  0.00  0.00    +0.000 C 
ATOM     12  C   UNL     1       4.704   3.402  12.153  0.00  0.00    +0.000 C 
ATOM     13  C   UNL     1       7.189   3.138  11.593  0.00  0.00    +0.000 C 
ENDBRANCH   8  10
ENDBRANCH   2   6
BRANCH   4  14
ATOM     14  C   UNL     1       2.462   8.246  17.997  0.00  0.00    +0.000 C 
ATOM     15  O   UNL     1       2.287   9.161  17.190  0.00  0.00    +0.000 OA
ATOM     16  N   UNL     1       1.884   8.263  19.268  0.00  0.00    +0.000 N 
ATOM     17  H   UNL     1       2.004   7.454  19.868  0.00  0.00    +0.000 HD
BRANCH  16  18
ATOM     18  N   UNL     1       1.055   9.287  19.637  0.00  0.00    +0.000 NA
ATOM     19  C   UNL     1       0.788   9.488  20.892  0.00  0.00    +0.000 C 
ATOM     20  C   UNL     1       1.403   8.770  22.065  0.00  0.00    +0.000 C 
ATOM     21  C   UNL     1      -0.174  10.601  21.237  0.00  0.00    +0.000 C 
ENDBRANCH  16  18
ENDBRANCH   4  14
BRANCH   1  22
ATOM     22  O   UNL     1       4.433   3.638  17.983  0.00  0.00    +0.000 OA
BRANCH  22  23
ATOM     23  C   UNL     1       4.874   3.368  19.311  0.00  0.00    +0.000 C 
BRANCH  23  25
ATOM     24  C   UNL     1       3.585   1.330  18.653  0.00  0.00    +0.000 C 
ATOM     25  C   UNL     1       4.403   1.986  19.755  0.00  0.00    +0.000 C 
ENDBRANCH  23  25
ENDBRANCH  22  23
ENDBRANCH   1  22
BRANCH   5  26
ATOM     26  O   UNL     1       2.352   5.474  19.143  0.00  0.00    +0.000 OA
BRANCH  26  27
ATOM     27  C   UNL     1       1.378   4.510  18.737  0.00  0.00    +0.000 C 
BRANCH  27  28
ATOM     28  C   UNL     1       1.018   3.696  19.978  0.00  0.00    +0.000 C 
ATOM     29  C   UNL     1       1.831   4.081  21.198  0.00  0.00    +0.000 C 
ENDBRANCH  27  28
ENDBRANCH  26  27
ENDBRANCH   5  26
TORSDOF 10
ENDMDL
MODEL 2
REMARK VINA RESULT:      -6.7      0.862      7.375
REMARK  Name = 
REMARK  16 active torsions:
REMARK  status: ('A' for Active; 'I' for Inactive)
REMARK    1  A    between atoms: C_1  and  C_2
REMARK    2  A    between atoms: C_2  and  C_3
REMARK    3  A    between atoms: C_3  and  O_4
REMARK    4  A    between atoms: O_4  and  C_5
REMARK    5  A    between atoms: C_6  and  C_7
REMARK    6  A    between atoms: N_9  and  N_10
REMARK    7  A    between atoms: C_11  and  C_12
REMARK    8  A    between atoms: C_11  and  C_13
REMARK    9  A    between atoms: C_15  and  C_16
REMARK   10  A    between atoms: N_18  and  N_19
REMARK   11  A    between atoms: C_20  and  C_21
REMARK   12  A    between atoms: C_20  and  C_22
REMARK   13  A    between atoms: C_23  and  O_24
REMARK   14  A    between atoms: O_24  and  C_25
REMARK   15  A    between atoms: C_25  and  C_26
REMARK   16  A    between atoms: C_26  and  C_27
REMARK                            x       y       z     vdW  Elec       q    Type
REMARK                         _______ _______ _______ _____ _____    ______ ____
ROOT
ATOM      1  C   UNL     1       3.804   5.867  18.830  0.00  0.00    +0.000 A 
ATOM      2  C   UNL     1       3.468   6.909  17.964  0.00  0.00    +0.000 A 
ATOM      3  S   UNL     1       4.336   6.777  16.488  0.00  0.00    +0.000 S 
ATOM      4  C   UNL     1       5.242   5.421  17.010  0.00  0.00    +0.000 A 
ATOM      5  C   UNL     1       4.836   5.014  18.270  0.00  0.00    +0.000 A 
ENDROOT
BRANCH   2   6
ATOM      6  C   UNL     1       2.592   8.071  18.129  0.00  0.00    +0.000 C 
ATOM      7  O   UNL     1       2.366   8.870  17.222  0.00  0.00    +0.000 OA
ATOM      8  N   UNL     1       2.032   8.226  19.403  0.00  0.00    +0.000 N 
ATOM      9  H   UNL     1       2.189   7.515  20.104  0.00  0.00    +0.000 HD
BRANCH   8  10
ATOM     10  N   UNL     1       1.298   9.342  19.679  0.00  0.00    +0.000 NA
ATOM     11  C   UNL     1       0.402   9.349  20.618  0.00  0.00    +0.000 C 
ATOM     12  C   UNL     1      -0.001   8.193  21.498  0.00  0.00    +0.000 C 
ATOM     13  C   UNL     1      -0.348  10.645  20.843  0.00  0.00    +0.000 C 
ENDBRANCH   8  10
ENDBRANCH   2   6
BRANCH   4  14
ATOM     14  C   UNL     1       6.246   4.876  16.091  0.00  0.00    +0.000 C 
ATOM     15  O   UNL     1       7.387   4.582  16.451  0.00  0.00    +0.000 OA
ATOM     16  N   UNL     1       5.831   4.734  14.766  0.00  0.00    +0.000 N 
ATOM     17  H   UNL     1       4.862   4.927  14.536  0.00  0.00    +0.000 HD
BRANCH  16  18
ATOM     18  N   UNL     1       6.677   4.209  13.828  0.00  0.00    +0.000 NA
ATOM     19  C   UNL     1       6.198   3.633  12.768  0.00  0.00    +0.000 C 
ATOM     20  C   UNL     1       4.749   3.571  12.359  0.00  0.00    +0.000 C 
ATOM     21  C   UNL     1       7.180   3.027  11.792  0.00  0.00    +0.000 C 
ENDBRANCH  16  18
ENDBRANCH   4  14
BRANCH   1  22
ATOM     22  O   UNL     1       3.315   5.633  20.086  0.00  0.00    +0.000 OA
BRANCH  22  23
ATOM     23  C   UNL     1       2.064   4.956  20.174  0.00  0.00    +0.000 C 
BRANCH  23  25
ATOM     24  C   UNL     1       1.270   2.794  21.148  0.00  0.00    +0.000 C 
ATOM     25  C   UNL     1       2.019   4.088  21.429  0.00  0.00    +0.000 C 
ENDBRANCH  23  25
ENDBRANCH  22  23
ENDBRANCH   1  22
BRANCH   5  26
ATOM     26  O   UNL     1       5.453   3.932  18.827  0.00  0.00    +0.000 OA
BRANCH  26  27
ATOM     27  C   UNL     1       4.610   2.820  19.138  0.00  0.00    +0.000 C 
BRANCH  27  28
ATOM     28  C   UNL     1       3.993   2.350  17.822  0.00  0.00    +0.000 C 
ATOM     29  C   UNL     1       2.482   2.246  17.878  0.00  0.00    +0.000 C 
ENDBRANCH  27  28
ENDBRANCH  26  27
ENDBRANCH   5  26
TORSDOF 10
ENDMDL
MODEL 3
REMARK VINA RESULT:      -6.7      1.693      7.249
REMARK  Name = 
REMARK  16 active torsions:
REMARK  status: ('A' for Active; 'I' for Inactive)
REMARK    1  A    between atoms: C_1  and  C_2
REMARK    2  A    between atoms: C_2  and  C_3
REMARK    3  A    between atoms: C_3  and  O_4
REMARK    4  A    between atoms: O_4  and  C_5
REMARK    5  A    between atoms: C_6  and  C_7
REMARK    6  A    between atoms: N_9  and  N_10
REMARK    7  A    between atoms: C_11  and  C_12
REMARK    8  A    between atoms: C_11  and  C_13
REMARK    9  A    between atoms: C_15  and  C_16
REMARK   10  A    between atoms: N_18  and  N_19
REMARK   11  A    between atoms: C_20  and  C_21
REMARK   12  A    between atoms: C_20  and  C_22
REMARK   13  A    between atoms: C_23  and  O_24
REMARK   14  A    between atoms: O_24  and  C_25
REMARK   15  A    between atoms: C_25  and  C_26
REMARK   16  A    between atoms: C_26  and  C_27
REMARK                            x       y       z     vdW  Elec       q    Type
REMARK                         _______ _______ _______ _____ _____    ______ ____
ROOT
ATOM      1  C   UNL     1       2.760   5.844  19.295  0.00  0.00    +0.000 A 
ATOM      2  C   UNL     1       2.447   7.200  19.194  0.00  0.00    +0.000 A 
ATOM      3  S   UNL     1       3.221   7.903  17.832  0.00  0.00    +0.000 S 
ATOM      4  C   UNL     1       4.063   6.469  17.427  0.00  0.00    +0.000 A 
ATOM      5  C   UNL     1       3.702   5.432  18.270  0.00  0.00    +0.000 A 
ENDROOT
BRANCH   2   6
ATOM      6  C   UNL     1       1.659   8.086  20.055  0.00  0.00    +0.000 C 
ATOM      7  O   UNL     1       1.374   7.804  21.218  0.00  0.00    +0.000 OA
ATOM      8  N   UNL     1       1.233   9.279  19.461  0.00  0.00    +0.000 N 
ATOM      9  H   UNL     1       1.540   9.505  18.525  0.00  0.00    +0.000 HD
BRANCH   8  10
ATOM     10  N   UNL     1       0.398  10.108  20.151  0.00  0.00    +0.000 NA
ATOM     11  C   UNL     1      -0.643  10.643  19.590  0.00  0.00    +0.000 C 
ATOM     12  C   UNL     1      -1.078  10.495  18.155  0.00  0.00    +0.000 C 
ATOM     13  C   UNL     1      -1.504  11.541  20.454  0.00  0.00    +0.000 C 
ENDBRANCH   8  10
ENDBRANCH   2   6
BRANCH   4  14
ATOM     14  C   UNL     1       4.976   6.514  16.281  0.00  0.00    +0.000 C 
ATOM     15  O   UNL     1       4.785   7.243  15.305  0.00  0.00    +0.000 OA
ATOM     16  N   UNL     1       6.072   5.653  16.354  0.00  0.00    +0.000 N 
ATOM     17  H   UNL     1       6.220   5.125  17.207  0.00  0.00    +0.000 HD
BRANCH  16  18
ATOM     18  N   UNL     1       7.004   5.632  15.352  0.00  0.00    +0.000 NA
ATOM     19  C   UNL     1       6.838   4.856  14.324  0.00  0.00    +0.000 C 
ATOM     20  C   UNL     1       5.623   4.018  14.021  0.00  0.00    +0.000 C 
ATOM     21  C   UNL     1       7.924   4.838  13.275  0.00  0.00    +0.000 C 
ENDBRANCH  16  18
ENDBRANCH   4  14
BRANCH   1  22
ATOM     22  O   UNL     1       2.327   4.953  20.240  0.00  0.00    +0.000 OA
BRANCH  22  23
ATOM     23  C   UNL     1       1.004   4.446  20.086  0.00  0.00    +0.000 C 
BRANCH  23  25
ATOM     24  C   UNL     1       1.648   2.712  21.769  0.00  0.00    +0.000 C 
ATOM     25  C   UNL     1       0.964   2.959  20.433  0.00  0.00    +0.000 C 
ENDBRANCH  23  25
ENDBRANCH  22  23
ENDBRANCH   1  22
BRANCH   5  26
ATOM     26  O   UNL     1       4.276   4.210  18.071  0.00  0.00    +0.000 OA
BRANCH  26  27
ATOM     27  C   UNL     1       4.960   3.648  19.193  0.00  0.00    +0.000 C 
BRANCH  27  28
ATOM     28  C   UNL     1       4.383   2.250  19.409  0.00  0.00    +0.000 C 
ATOM     29  C   UNL     1       3.593   1.744  18.218  0.00  0.00    +0.000 C 
ENDBRANCH  27  28
ENDBRANCH  26  27
ENDBRANCH   5  26
TORSDOF 10
ENDMDL
MODEL 4
REMARK VINA RESULT:      -6.6      1.695      2.012
REMARK  Name = 
REMARK  16 active torsions:
REMARK  status: ('A' for Active; 'I' for Inactive)
REMARK    1  A    between atoms: C_1  and  C_2
REMARK    2  A    between atoms: C_2  and  C_3
REMARK    3  A    between atoms: C_3  and  O_4
REMARK    4  A    between atoms: O_4  and  C_5
REMARK    5  A    between atoms: C_6  and  C_7
REMARK    6  A    between atoms: N_9  and  N_10
REMARK    7  A    between atoms: C_11  and  C_12
REMARK    8  A    between atoms: C_11  and  C_13
REMARK    9  A    between atoms: C_15  and  C_16
REMARK   10  A    between atoms: N_18  and  N_19
REMARK   11  A    between atoms: C_20  and  C_21
REMARK   12  A    between atoms: C_20  and  C_22
REMARK   13  A    between atoms: C_23  and  O_24
REMARK   14  A    between atoms: O_24  and  C_25
REMARK   15  A    between atoms: C_25  and  C_26
REMARK   16  A    between atoms: C_26  and  C_27
REMARK                            x       y       z     vdW  Elec       q    Type
REMARK                         _______ _______ _______ _____ _____    ______ ____
ROOT
ATOM      1  C   UNL     1       3.888   5.403  18.110  0.00  0.00    +0.000 A 
ATOM      2  C   UNL     1       4.314   6.473  17.322  0.00  0.00    +0.000 A 
ATOM      3  S   UNL     1       3.588   7.939  17.842  0.00  0.00    +0.000 S 
ATOM      4  C   UNL     1       2.624   7.173  19.030  0.00  0.00    +0.000 A 
ATOM      5  C   UNL     1       2.905   5.819  19.093  0.00  0.00    +0.000 A 
ENDROOT
BRANCH   2   6
ATOM      6  C   UNL     1       5.183   6.531  16.143  0.00  0.00    +0.000 C 
ATOM      7  O   UNL     1       4.899   7.179  15.137  0.00  0.00    +0.000 OA
ATOM      8  N   UNL     1       6.363   5.782  16.228  0.00  0.00    +0.000 N 
ATOM      9  H   UNL     1       6.593   5.314  17.094  0.00  0.00    +0.000 HD
BRANCH   8  10
ATOM     10  N   UNL     1       7.173   5.686  15.135  0.00  0.00    +0.000 NA
ATOM     11  C   UNL     1       6.918   4.851  14.174  0.00  0.00    +0.000 C 
ATOM     12  C   UNL     1       5.780   3.867  14.104  0.00  0.00    +0.000 C 
ATOM     13  C   UNL     1       7.881   4.835  13.005  0.00  0.00    +0.000 C 
ENDBRANCH   8  10
ENDBRANCH   2   6
BRANCH   4  14
ATOM     14  C   UNL     1       1.706   8.011  19.808  0.00  0.00    +0.000 C 
ATOM     15  O   UNL     1       1.351   7.724  20.953  0.00  0.00    +0.000 OA
ATOM     16  N   UNL     1       1.234   9.150  19.155  0.00  0.00    +0.000 N 
ATOM     17  H   UNL     1       1.608   9.376  18.239  0.00  0.00    +0.000 HD
BRANCH  16  18
ATOM     18  N   UNL     1       0.393  10.018  19.796  0.00  0.00    +0.000 NA
ATOM     19  C   UNL     1      -0.630  10.517  19.170  0.00  0.00    +0.000 C 
ATOM     20  C   UNL     1      -1.100  10.149  17.786  0.00  0.00    +0.000 C 
ATOM     21  C   UNL     1      -1.494  11.509  19.913  0.00  0.00    +0.000 C 
ENDBRANCH  16  18
ENDBRANCH   4  14
BRANCH   1  22
ATOM     22  O   UNL     1       4.254   4.089  18.006  0.00  0.00    +0.000 OA
BRANCH  22  23
ATOM     23  C   UNL     1       5.026   3.549  19.076  0.00  0.00    +0.000 C 
BRANCH  23  25
ATOM     24  C   UNL     1       3.646   1.572  18.411  0.00  0.00    +0.000 C 
ATOM     25  C   UNL     1       4.429   2.223  19.541  0.00  0.00    +0.000 C 
ENDBRANCH  23  25
ENDBRANCH  22  23
ENDBRANCH   1  22
BRANCH   5  26
ATOM     26  O   UNL     1       2.227   5.062  20.004  0.00  0.00    +0.000 OA
BRANCH  26  27
ATOM     27  C   UNL     1       1.185   4.234  19.482  0.00  0.00    +0.000 C 
BRANCH  27  28
ATOM     28  C   UNL     1       0.989   3.090  20.475  0.00  0.00    +0.000 C 
ATOM     29  C   UNL     1       1.870   3.212  21.702  0.00  0.00    +0.000 C 
ENDBRANCH  27  28
ENDBRANCH  26  27
ENDBRANCH   5  26
TORSDOF 10
ENDMDL
MODEL 5
REMARK VINA RESULT:      -6.5      0.974      7.373
REMARK  Name = 
REMARK  16 active torsions:
REMARK  status: ('A' for Active; 'I' for Inactive)
REMARK    1  A    between atoms: C_1  and  C_2
REMARK    2  A    between atoms: C_2  and  C_3
REMARK    3  A    between atoms: C_3  and  O_4
REMARK    4  A    between atoms: O_4  and  C_5
REMARK    5  A    between atoms: C_6  and  C_7
REMARK    6  A    between atoms: N_9  and  N_10
REMARK    7  A    between atoms: C_11  and  C_12
REMARK    8  A    between atoms: C_11  and  C_13
REMARK    9  A    between atoms: C_15  and  C_16
REMARK   10  A    between atoms: N_18  and  N_19
REMARK   11  A    between atoms: C_20  and  C_21
REMARK   12  A    between atoms: C_20  and  C_22
REMARK   13  A    between atoms: C_23  and  O_24
REMARK   14  A    between atoms: O_24  and  C_25
REMARK   15  A    between atoms: C_25  and  C_26
REMARK   16  A    between atoms: C_26  and  C_27
REMARK                            x       y       z     vdW  Elec       q    Type
REMARK                         _______ _______ _______ _____ _____    ______ ____
ROOT
ATOM      1  C   UNL     1       3.023   5.603  18.151  0.00  0.00    +0.000 A 
ATOM      2  C   UNL     1       3.235   6.882  17.635  0.00  0.00    +0.000 A 
ATOM      3  S   UNL     1       4.450   6.857  16.422  0.00  0.00    +0.000 S 
ATOM      4  C   UNL     1       4.790   5.193  16.638  0.00  0.00    +0.000 A 
ATOM      5  C   UNL     1       3.933   4.633  17.570  0.00  0.00    +0.000 A 
ENDROOT
BRANCH   2   6
ATOM      6  C   UNL     1       2.664   8.184  17.991  0.00  0.00    +0.000 C 
ATOM      7  O   UNL     1       3.044   9.239  17.485  0.00  0.00    +0.000 OA
ATOM      8  N   UNL     1       1.658   8.154  18.964  0.00  0.00    +0.000 N 
ATOM      9  H   UNL     1       1.328   7.264  19.310  0.00  0.00    +0.000 HD
BRANCH   8  10
ATOM     10  N   UNL     1       1.153   9.329  19.439  0.00  0.00    +0.000 NA
ATOM     11  C   UNL     1       0.944   9.514  20.706  0.00  0.00    +0.000 C 
ATOM     12  C   UNL     1       1.166   8.521  21.818  0.00  0.00    +0.000 C 
ATOM     13  C   UNL     1       0.388  10.860  21.122  0.00  0.00    +0.000 C 
ENDBRANCH   8  10
ENDBRANCH   2   6
BRANCH   4  14
ATOM     14  C   UNL     1       5.859   4.604  15.826  0.00  0.00    +0.000 C 
ATOM     15  O   UNL     1       6.965   4.316  16.289  0.00  0.00    +0.000 OA
ATOM     16  N   UNL     1       5.552   4.413  14.478  0.00  0.00    +0.000 N 
ATOM     17  H   UNL     1       4.607   4.604  14.163  0.00  0.00    +0.000 HD
BRANCH  16  18
ATOM     18  N   UNL     1       6.466   3.845  13.634  0.00  0.00    +0.000 NA
ATOM     19  C   UNL     1       6.084   3.362  12.490  0.00  0.00    +0.000 C 
ATOM     20  C   UNL     1       4.705   3.460  11.892  0.00  0.00    +0.000 C 
ATOM     21  C   UNL     1       7.130   2.701  11.622  0.00  0.00    +0.000 C 
ENDBRANCH  16  18
ENDBRANCH   4  14
BRANCH   1  22
ATOM     22  O   UNL     1       2.133   5.228  19.120  0.00  0.00    +0.000 OA
BRANCH  22  23
ATOM     23  C   UNL     1       2.662   4.992  20.423  0.00  0.00    +0.000 C 
BRANCH  23  25
ATOM     24  C   UNL     1       2.346   2.987  21.882  0.00  0.00    +0.000 C 
ATOM     25  C   UNL     1       1.665   4.198  21.262  0.00  0.00    +0.000 C 
ENDBRANCH  23  25
ENDBRANCH  22  23
ENDBRANCH   1  22
BRANCH   5  26
ATOM     26  O   UNL     1       4.064   3.304  17.849  0.00  0.00    +0.000 OA
BRANCH  26  27
ATOM     27  C   UNL     1       3.057   2.446  17.307  0.00  0.00    +0.000 C 
BRANCH  27  28
ATOM     28  C   UNL     1       2.329   1.815  18.491  0.00  0.00    +0.000 C 
ATOM     29  C   UNL     1       0.854   2.163  18.536  0.00  0.00    +0.000 C 
ENDBRANCH  27  28
ENDBRANCH  26  27
ENDBRANCH   5  26
TORSDOF 10
ENDMDL
MODEL 6
REMARK VINA RESULT:      -6.4      1.789      7.190
REMARK  Name = 
REMARK  16 active torsions:
REMARK  status: ('A' for Active; 'I' for Inactive)
REMARK    1  A    between atoms: C_1  and  C_2
REMARK    2  A    between atoms: C_2  and  C_3
REMARK    3  A    between atoms: C_3  and  O_4
REMARK    4  A    between atoms: O_4  and  C_5
REMARK    5  A    between atoms: C_6  and  C_7
REMARK    6  A    between atoms: N_9  and  N_10
REMARK    7  A    between atoms: C_11  and  C_12
REMARK    8  A    between atoms: C_11  and  C_13
REMARK    9  A    between atoms: C_15  and  C_16
REMARK   10  A    between atoms: N_18  and  N_19
REMARK   11  A    between atoms: C_20  and  C_21
REMARK   12  A    between atoms: C_20  and  C_22
REMARK   13  A    between atoms: C_23  and  O_24
REMARK   14  A    between atoms: O_24  and  C_25
REMARK   15  A    between atoms: C_25  and  C_26
REMARK   16  A    between atoms: C_26  and  C_27
REMARK                            x       y       z     vdW  Elec       q    Type
REMARK                         _______ _______ _______ _____ _____    ______ ____
ROOT
ATOM      1  C   UNL     1       2.454   6.115  18.705  0.00  0.00    +0.000 A 
ATOM      2  C   UNL     1       2.412   7.507  18.629  0.00  0.00    +0.000 A 
ATOM      3  S   UNL     1       3.643   8.097  17.588  0.00  0.00    +0.000 S 
ATOM      4  C   UNL     1       4.313   6.546  17.314  0.00  0.00    +0.000 A 
ATOM      5  C   UNL     1       3.562   5.568  17.944  0.00  0.00    +0.000 A 
ENDROOT
BRANCH   2   6
ATOM      6  C   UNL     1       1.574   8.497  19.311  0.00  0.00    +0.000 C 
ATOM      7  O   UNL     1       1.338   8.452  20.518  0.00  0.00    +0.000 OA
ATOM      8  N   UNL     1       1.040   9.499  18.494  0.00  0.00    +0.000 N 
ATOM      9  H   UNL     1       1.307   9.541  17.520  0.00  0.00    +0.000 HD
BRANCH   8  10
ATOM     10  N   UNL     1       0.156  10.393  19.024  0.00  0.00    +0.000 NA
ATOM     11  C   UNL     1      -1.020  10.573  18.504  0.00  0.00    +0.000 C 
ATOM     12  C   UNL     1      -1.582   9.905  17.276  0.00  0.00    +0.000 C 
ATOM     13  C   UNL     1      -1.922  11.584  19.180  0.00  0.00    +0.000 C 
ENDBRANCH   8  10
ENDBRANCH   2   6
BRANCH   4  14
ATOM     14  C   UNL     1       5.506   6.458  16.466  0.00  0.00    +0.000 C 
ATOM     15  O   UNL     1       6.543   7.078  16.708  0.00  0.00    +0.000 OA
ATOM     16  N   UNL     1       5.382   5.639  15.342  0.00  0.00    +0.000 N 
ATOM     17  H   UNL     1       4.532   5.099  15.225  0.00  0.00    +0.000 HD
BRANCH  16  18
ATOM     18  N   UNL     1       6.442   5.462  14.495  0.00  0.00    +0.000 NA
ATOM     19  C   UNL     1       6.389   4.554  13.567  0.00  0.00    +0.000 C 
ATOM     20  C   UNL     1       5.195   3.707  13.210  0.00  0.00    +0.000 C 
ATOM     21  C   UNL     1       7.608   4.370  12.695  0.00  0.00    +0.000 C 
ENDBRANCH  16  18
ENDBRANCH   4  14
BRANCH   1  22
ATOM     22  O   UNL     1       1.631   5.291  19.423  0.00  0.00    +0.000 OA
BRANCH  22  23
ATOM     23  C   UNL     1       2.114   4.843  20.688  0.00  0.00    +0.000 C 
BRANCH  23  25
ATOM     24  C   UNL     1       2.395   2.605  21.766  0.00  0.00    +0.000 C 
ATOM     25  C   UNL     1       1.411   3.550  21.094  0.00  0.00    +0.000 C 
ENDBRANCH  23  25
ENDBRANCH  22  23
ENDBRANCH   1  22
BRANCH   5  26
ATOM     26  O   UNL     1       3.957   4.269  17.812  0.00  0.00    +0.000 OA
BRANCH  26  27
ATOM     27  C   UNL     1       3.179   3.464  16.923  0.00  0.00    +0.000 C 
BRANCH  27  28
ATOM     28  C   UNL     1       2.544   2.359  17.765  0.00  0.00    +0.000 C 
ATOM     29  C   UNL     1       3.565   1.475  18.452  0.00  0.00    +0.000 C 
ENDBRANCH  27  28
ENDBRANCH  26  27
ENDBRANCH   5  26
TORSDOF 10
ENDMDL
MODEL 7
REMARK VINA RESULT:      -6.4      0.823      1.041
REMARK  Name = 
REMARK  16 active torsions:
REMARK  status: ('A' for Active; 'I' for Inactive)
REMARK    1  A    between atoms: C_1  and  C_2
REMARK    2  A    between atoms: C_2  and  C_3
REMARK    3  A    between atoms: C_3  and  O_4
REMARK    4  A    between atoms: O_4  and  C_5
REMARK    5  A    between atoms: C_6  and  C_7
REMARK    6  A    between atoms: N_9  and  N_10
REMARK    7  A    between atoms: C_11  and  C_12
REMARK    8  A    between atoms: C_11  and  C_13
REMARK    9  A    between atoms: C_15  and  C_16
REMARK   10  A    between atoms: N_18  and  N_19
REMARK   11  A    between atoms: C_20  and  C_21
REMARK   12  A    between atoms: C_20  and  C_22
REMARK   13  A    between atoms: C_23  and  O_24
REMARK   14  A    between atoms: O_24  and  C_25
REMARK   15  A    between atoms: C_25  and  C_26
REMARK   16  A    between atoms: C_26  and  C_27
REMARK                            x       y       z     vdW  Elec       q    Type
REMARK                         _______ _______ _______ _____ _____    ______ ____
ROOT
ATOM      1  C   UNL     1       3.621   4.459  17.469  0.00  0.00    +0.000 A 
ATOM      2  C   UNL     1       4.651   5.067  16.750  0.00  0.00    +0.000 A 
ATOM      3  S   UNL     1       4.543   6.777  16.860  0.00  0.00    +0.000 S 
ATOM      4  C   UNL     1       3.086   6.742  17.757  0.00  0.00    +0.000 A 
ATOM      5  C   UNL     1       2.717   5.438  18.044  0.00  0.00    +0.000 A 
ENDROOT
BRANCH   2   6
ATOM      6  C   UNL     1       5.711   4.511  15.905  0.00  0.00    +0.000 C 
ATOM      7  O   UNL     1       6.839   4.264  16.329  0.00  0.00    +0.000 OA
ATOM      8  N   UNL     1       5.361   4.288  14.569  0.00  0.00    +0.000 N 
ATOM      9  H   UNL     1       4.408   4.442  14.273  0.00  0.00    +0.000 HD
BRANCH   8  10
ATOM     10  N   UNL     1       6.319   3.881  13.686  0.00  0.00    +0.000 NA
ATOM     11  C   UNL     1       6.011   3.462  12.497  0.00  0.00    +0.000 C 
ATOM     12  C   UNL     1       4.629   3.315  11.915  0.00  0.00    +0.000 C 
ATOM     13  C   UNL     1       7.156   3.044  11.599  0.00  0.00    +0.000 C 
ENDBRANCH   8  10
ENDBRANCH   2   6
BRANCH   4  14
ATOM     14  C   UNL     1       2.473   8.024  18.115  0.00  0.00    +0.000 C 
ATOM     15  O   UNL     1       2.386   8.965  17.323  0.00  0.00    +0.000 OA
ATOM     16  N   UNL     1       2.014   8.123  19.429  0.00  0.00    +0.000 N 
ATOM     17  H   UNL     1       2.048   7.299  20.020  0.00  0.00    +0.000 HD
BRANCH  16  18
ATOM     18  N   UNL     1       1.400   9.265  19.865  0.00  0.00    +0.000 NA
ATOM     19  C   UNL     1       0.468   9.201  20.767  0.00  0.00    +0.000 C 
ATOM     20  C   UNL     1       0.037   7.971  21.523  0.00  0.00    +0.000 C 
ATOM     21  C   UNL     1      -0.208  10.490  21.171  0.00  0.00    +0.000 C 
ENDBRANCH  16  18
ENDBRANCH   4  14
BRANCH   1  22
ATOM     22  O   UNL     1       3.384   3.121  17.622  0.00  0.00    +0.000 OA
BRANCH  22  23
ATOM     23  C   UNL     1       4.376   2.366  18.314  0.00  0.00    +0.000 C 
BRANCH  23  25
ATOM     24  C   UNL     1       4.636   1.781  20.731  0.00  0.00    +0.000 C 
ATOM     25  C   UNL     1       4.574   2.919  19.723  0.00  0.00    +0.000 C 
ENDBRANCH  23  25
ENDBRANCH  22  23
ENDBRANCH   1  22
BRANCH   5  26
ATOM     26  O   UNL     1       1.579   5.236  18.769  0.00  0.00    +0.000 OA
BRANCH  26  27
ATOM     27  C   UNL     1       1.757   5.021  20.171  0.00  0.00    +0.000 C 
BRANCH  27  28
ATOM     28  C   UNL     1       1.055   3.708  20.510  0.00  0.00    +0.000 C 
ATOM     29  C   UNL     1       0.516   2.990  19.289  0.00  0.00    +0.000 C 
ENDBRANCH  27  28
ENDBRANCH  26  27
ENDBRANCH   5  26
TORSDOF 10
ENDMDL
MODEL 8
REMARK VINA RESULT:      -6.4      1.461      7.198
REMARK  Name = 
REMARK  16 active torsions:
REMARK  status: ('A' for Active; 'I' for Inactive)
REMARK    1  A    between atoms: C_1  and  C_2
REMARK    2  A    between atoms: C_2  and  C_3
REMARK    3  A    between atoms: C_3  and  O_4
REMARK    4  A    between atoms: O_4  and  C_5
REMARK    5  A    between atoms: C_6  and  C_7
REMARK    6  A    between atoms: N_9  and  N_10
REMARK    7  A    between atoms: C_11  and  C_12
REMARK    8  A    between atoms: C_11  and  C_13
REMARK    9  A    between atoms: C_15  and  C_16
REMARK   10  A    between atoms: N_18  and  N_19
REMARK   11  A    between atoms: C_20  and  C_21
REMARK   12  A    between atoms: C_20  and  C_22
REMARK   13  A    between atoms: C_23  and  O_24
REMARK   14  A    between atoms: O_24  and  C_25
REMARK   15  A    between atoms: C_25  and  C_26
REMARK   16  A    between atoms: C_26  and  C_27
REMARK                            x       y       z     vdW  Elec       q    Type
REMARK                         _______ _______ _______ _____ _____    ______ ____
ROOT
ATOM      1  C   UNL     1       2.478   5.133  18.040  0.00  0.00    +0.000 A 
ATOM      2  C   UNL     1       2.935   6.451  18.084  0.00  0.00    +0.000 A 
ATOM      3  S   UNL     1       4.360   6.634  17.145  0.00  0.00    +0.000 S 
ATOM      4  C   UNL     1       4.459   4.968  16.763  0.00  0.00    +0.000 A 
ATOM      5  C   UNL     1       3.372   4.281  17.276  0.00  0.00    +0.000 A 
ENDROOT
BRANCH   2   6
ATOM      6  C   UNL     1       2.455   7.625  18.818  0.00  0.00    +0.000 C 
ATOM      7  O   UNL     1       2.375   7.657  20.045  0.00  0.00    +0.000 OA
ATOM      8  N   UNL     1       2.075   8.715  18.027  0.00  0.00    +0.000 N 
ATOM      9  H   UNL     1       2.215   8.676  17.027  0.00  0.00    +0.000 HD
BRANCH   8  10
ATOM     10  N   UNL     1       1.508   9.806  18.620  0.00  0.00    +0.000 NA
ATOM     11  C   UNL     1       0.271  10.131  18.400  0.00  0.00    +0.000 C 
ATOM     12  C   UNL     1      -0.700   9.439  17.478  0.00  0.00    +0.000 C 
ATOM     13  C   UNL     1      -0.256  11.355  19.118  0.00  0.00    +0.000 C 
ENDBRANCH   8  10
ENDBRANCH   2   6
BRANCH   4  14
ATOM     14  C   UNL     1       5.597   4.519  15.955  0.00  0.00    +0.000 C 
ATOM     15  O   UNL     1       6.683   4.210  16.449  0.00  0.00    +0.000 OA
ATOM     16  N   UNL     1       5.379   4.488  14.577  0.00  0.00    +0.000 N 
ATOM     17  H   UNL     1       4.447   4.687  14.227  0.00  0.00    +0.000 HD
BRANCH  16  18
ATOM     18  N   UNL     1       6.363   4.059  13.730  0.00  0.00    +0.000 NA
ATOM     19  C   UNL     1       6.052   3.520  12.590  0.00  0.00    +0.000 C 
ATOM     20  C   UNL     1       4.671   3.409  11.998  0.00  0.00    +0.000 C 
ATOM     21  C   UNL     1       7.180   3.019  11.718  0.00  0.00    +0.000 C 
ENDBRANCH  16  18
ENDBRANCH   4  14
BRANCH   1  22
ATOM     22  O   UNL     1       1.373   4.609  18.652  0.00  0.00    +0.000 OA
BRANCH  22  23
ATOM     23  C   UNL     1       1.422   4.486  20.072  0.00  0.00    +0.000 C 
BRANCH  23  25
ATOM     24  C   UNL     1       1.584   2.620  21.727  0.00  0.00    +0.000 C 
ATOM     25  C   UNL     1       0.842   3.143  20.507  0.00  0.00    +0.000 C 
ENDBRANCH  23  25
ENDBRANCH  22  23
ENDBRANCH   1  22
BRANCH   5  26
ATOM     26  O   UNL     1       3.291   2.938  17.047  0.00  0.00    +0.000 OA
BRANCH  26  27
ATOM     27  C   UNL     1       3.435   2.096  18.193  0.00  0.00    +0.000 C 
BRANCH  27  28
ATOM     28  C   UNL     1       4.513   2.725  19.073  0.00  0.00    +0.000 C 
ATOM     29  C   UNL     1       4.715   1.989  20.382  0.00  0.00    +0.000 C 
ENDBRANCH  27  28
ENDBRANCH  26  27
ENDBRANCH   5  26
TORSDOF 10
ENDMDL
MODEL 9
REMARK VINA RESULT:      -6.4      1.406      1.779
REMARK  Name = 
REMARK  16 active torsions:
REMARK  status: ('A' for Active; 'I' for Inactive)
REMARK    1  A    between atoms: C_1  and  C_2
REMARK    2  A    between atoms: C_2  and  C_3
REMARK    3  A    between atoms: C_3  and  O_4
REMARK    4  A    between atoms: O_4  and  C_5
REMARK    5  A    between atoms: C_6  and  C_7
REMARK    6  A    between atoms: N_9  and  N_10
REMARK    7  A    between atoms: C_11  and  C_12
REMARK    8  A    between atoms: C_11  and  C_13
REMARK    9  A    between atoms: C_15  and  C_16
REMARK   10  A    between atoms: N_18  and  N_19
REMARK   11  A    between atoms: C_20  and  C_21
REMARK   12  A    between atoms: C_20  and  C_22
REMARK   13  A    between atoms: C_23  and  O_24
REMARK   14  A    between atoms: O_24  and  C_25
REMARK   15  A    between atoms: C_25  and  C_26
REMARK   16  A    between atoms: C_26  and  C_27
REMARK                            x       y       z     vdW  Elec       q    Type
REMARK                         _______ _______ _______ _____ _____    ______ ____
ROOT
ATOM      1  C   UNL     1       3.562   4.645  17.219  0.00  0.00    +0.000 A 
ATOM      2  C   UNL     1       4.576   5.487  16.762  0.00  0.00    +0.000 A 
ATOM      3  S   UNL     1       4.400   7.064  17.418  0.00  0.00    +0.000 S 
ATOM      4  C   UNL     1       2.932   6.691  18.216  0.00  0.00    +0.000 A 
ATOM      5  C   UNL     1       2.612   5.353  18.056  0.00  0.00    +0.000 A 
ENDROOT
BRANCH   2   6
ATOM      6  C   UNL     1       5.670   5.271  15.811  0.00  0.00    +0.000 C 
ATOM      7  O   UNL     1       6.688   5.961  15.798  0.00  0.00    +0.000 OA
ATOM      8  N   UNL     1       5.476   4.227  14.899  0.00  0.00    +0.000 N 
ATOM      9  H   UNL     1       4.656   3.642  14.981  0.00  0.00    +0.000 HD
BRANCH   8  10
ATOM     10  N   UNL     1       6.390   4.030  13.905  0.00  0.00    +0.000 NA
ATOM     11  C   UNL     1       6.026   3.674  12.711  0.00  0.00    +0.000 C 
ATOM     12  C   UNL     1       4.625   3.389  12.235  0.00  0.00    +0.000 C 
ATOM     13  C   UNL     1       7.125   3.492  11.685  0.00  0.00    +0.000 C 
ENDBRANCH   8  10
ENDBRANCH   2   6
BRANCH   4  14
ATOM     14  C   UNL     1       2.264   7.767  18.955  0.00  0.00    +0.000 C 
ATOM     15  O   UNL     1       2.095   7.731  20.176  0.00  0.00    +0.000 OA
ATOM     16  N   UNL     1       1.805   8.832  18.179  0.00  0.00    +0.000 N 
ATOM     17  H   UNL     1       2.029   8.845  17.189  0.00  0.00    +0.000 HD
BRANCH  16  18
ATOM     18  N   UNL     1       1.191   9.903  18.767  0.00  0.00    +0.000 NA
ATOM     19  C   UNL     1      -0.001  10.258  18.392  0.00  0.00    +0.000 C 
ATOM     20  C   UNL     1      -0.890   9.525  17.421  0.00  0.00    +0.000 C 
ATOM     21  C   UNL     1      -0.608  11.479  19.042  0.00  0.00    +0.000 C 
ENDBRANCH  16  18
ENDBRANCH   4  14
BRANCH   1  22
ATOM     22  O   UNL     1       3.376   3.322  16.922  0.00  0.00    +0.000 OA
BRANCH  22  23
ATOM     23  C   UNL     1       3.684   2.383  17.950  0.00  0.00    +0.000 C 
BRANCH  23  25
ATOM     24  C   UNL     1       4.565   2.270  20.287  0.00  0.00    +0.000 C 
ATOM     25  C   UNL     1       4.654   2.999  18.955  0.00  0.00    +0.000 C 
ENDBRANCH  23  25
ENDBRANCH  22  23
ENDBRANCH   1  22
BRANCH   5  26
ATOM     26  O   UNL     1       1.472   4.889  18.646  0.00  0.00    +0.000 OA
BRANCH  26  27
ATOM     27  C   UNL     1       1.581   4.526  20.024  0.00  0.00    +0.000 C 
BRANCH  27  28
ATOM     28  C   UNL     1       0.863   3.188  20.189  0.00  0.00    +0.000 C 
ATOM     29  C   UNL     1       0.457   2.566  18.867  0.00  0.00    +0.000 C 
ENDBRANCH  27  28
ENDBRANCH  26  27
ENDBRANCH   5  26
TORSDOF 10
ENDMDL
