MODEL 1
REMARK VINA RESULT:      -8.5      0.000      0.000
REMARK  Name = 
REMARK  8 active torsions:
REMARK  status: ('A' for Active; 'I' for Inactive)
REMARK    1  A    between atoms: S_2  and  N_4
REMARK    2  A    between atoms: S_2  and  N_17
REMARK    3  A    between atoms: N_4  and  C_5
REMARK    4  A    between atoms: C_10  and  C_11
REMARK    5  A    between atoms: N_17  and  S_18
REMARK    6  A    between atoms: S_18  and  N_21
REMARK    7  A    between atoms: N_21  and  C_22
REMARK    8  A    between atoms: C_27  and  C_28
REMARK                            x       y       z     vdW  Elec       q    Type
REMARK                         _______ _______ _______ _____ _____    ______ ____
ROOT
ATOM      1  N   UNL     1       1.727   4.592  18.814  0.00  0.00    +0.000 NA
ATOM      2  H   UNL     1       1.744   5.403  18.201  0.00  0.00    +0.000 HD
ENDROOT
BRANCH   1   4
ATOM      3  O   UNL     1       3.498   5.389  20.409  0.00  0.00    +0.000 OA
ATOM      4  S   UNL     1       2.086   5.127  20.340  0.00  0.00    +0.000 S 
ATOM      5  O   UNL     1       1.396   4.294  21.296  0.00  0.00    +0.000 OA
BRANCH   4   6
ATOM      6  N   UNL     1       1.246   6.644  20.370  0.00  0.00    +0.000 NA
ATOM      7  H   UNL     1       0.946   6.773  21.343  0.00  0.00    +0.000 HD
BRANCH   6   8
ATOM      8  C   UNL     1       2.144   7.840  20.010  0.00  0.00    +0.000 C 
ATOM      9  C   UNL     1       2.838   7.650  18.648  0.00  0.00    +0.000 C 
ATOM     10  C   UNL     1       1.872   7.797  17.476  0.00  0.00    +0.000 C 
ATOM     11  C   UNL     1       1.379   9.232  17.423  0.00  0.00    +0.000 C 
ATOM     12  C   UNL     1       0.635   9.576  18.705  0.00  0.00    +0.000 C 
ATOM     13  C   UNL     1       1.445   9.249  19.985  0.00  0.00    +0.000 C 
BRANCH  13  14
ATOM     14  C   UNL     1       0.673   9.715  21.214  0.00  0.00    +0.000 A 
ATOM     15  C   UNL     1       0.495   8.892  22.333  0.00  0.00    +0.000 A 
ATOM     16  C   UNL     1      -0.367   9.269  23.368  0.00  0.00    +0.000 A 
ATOM     17  C   UNL     1      -1.061  10.475  23.301  0.00  0.00    +0.000 A 
ATOM     18  C   UNL     1      -0.888  11.311  22.203  0.00  0.00    +0.000 A 
ATOM     19  C   UNL     1      -0.027  10.936  21.169  0.00  0.00    +0.000 A 
ENDBRANCH  13  14
ENDBRANCH   6   8
ENDBRANCH   4   6
ENDBRANCH   1   4
BRANCH   1  20
ATOM     20  S   UNL     1       2.793   3.524  18.093  0.00  0.00    +0.000 S 
ATOM     21  O   UNL     1       3.068   2.519  19.097  0.00  0.00    +0.000 OA
ATOM     22  O   UNL     1       2.251   3.136  16.812  0.00  0.00    +0.000 OA
BRANCH  20  23
ATOM     23  N   UNL     1       4.247   4.370  17.906  0.00  0.00    +0.000 NA
ATOM     24  H   UNL     1       4.983   3.757  18.245  0.00  0.00    +0.000 HD
BRANCH  23  25
ATOM     25  C   UNL     1       4.616   4.833  16.482  0.00  0.00    +0.000 C 
ATOM     26  C   UNL     1       4.804   6.347  16.418  0.00  0.00    +0.000 C 
ATOM     27  C   UNL     1       6.049   6.872  17.140  0.00  0.00    +0.000 C 
ATOM     28  C   UNL     1       7.316   6.014  17.094  0.00  0.00    +0.000 C 
ATOM     29  C   UNL     1       7.102   4.511  16.936  0.00  0.00    +0.000 C 
ATOM     30  C   UNL     1       5.928   4.120  16.013  0.00  0.00    +0.000 C 
BRANCH  30  31
ATOM     31  C   UNL     1       6.323   4.270  14.530  0.00  0.00    +0.000 A 
ATOM     32  C   UNL     1       5.676   3.494  13.556  0.00  0.00    +0.000 A 
ATOM     33  C   UNL     1       6.122   3.481  12.224  0.00  0.00    +0.000 A 
ATOM     34  C   UNL     1       7.224   4.241  11.836  0.00  0.00    +0.000 A 
ATOM     35  C   UNL     1       7.854   5.046  12.773  0.00  0.00    +0.000 A 
ATOM     36  C   UNL     1       7.395   5.071  14.093  0.00  0.00    +0.000 A 
ENDBRANCH  30  31
ENDBRANCH  23  25
ENDBRANCH  20  23
ENDBRANCH   1  20
TORSDOF 8
ENDMDL
MODEL 2
REMARK VINA RESULT:      -8.4      3.530      5.783
REMARK  Name = 
REMARK  8 active torsions:
REMARK  status: ('A' for Active; 'I' for Inactive)
REMARK    1  A    between atoms: S_2  and  N_4
REMARK    2  A    between atoms: S_2  and  N_17
REMARK    3  A    between atoms: N_4  and  C_5
REMARK    4  A    between atoms: C_10  and  C_11
REMARK    5  A    between atoms: N_17  and  S_18
REMARK    6  A    between atoms: S_18  and  N_21
REMARK    7  A    between atoms: N_21  and  C_22
REMARK    8  A    between atoms: C_27  and  C_28
REMARK                            x       y       z     vdW  Elec       q    Type
REMARK                         _______ _______ _______ _____ _____    ______ ____
ROOT
ATOM      1  N   UNL     1      -0.335   8.623  21.900  0.00  0.00    +0.000 NA
ATOM      2  H   UNL     1      -1.013   8.772  21.156  0.00  0.00    +0.000 HD
ENDROOT
BRANCH   1   4
ATOM      3  O   UNL     1       0.685   9.850  23.841  0.00  0.00    +0.000 OA
ATOM      4  S   UNL     1      -0.339   9.986  22.842  0.00  0.00    +0.000 S 
ATOM      5  O   UNL     1      -1.706  10.322  23.162  0.00  0.00    +0.000 OA
BRANCH   4   6
ATOM      6  N   UNL     1       0.169  11.186  21.698  0.00  0.00    +0.000 NA
ATOM      7  H   UNL     1       0.147  10.720  20.783  0.00  0.00    +0.000 HD
BRANCH   6   8
ATOM      8  C   UNL     1      -0.787  12.388  21.617  0.00  0.00    +0.000 C 
ATOM      9  C   UNL     1      -0.209  13.632  22.320  0.00  0.00    +0.000 C 
ATOM     10  C   UNL     1       0.936  14.265  21.535  0.00  0.00    +0.000 C 
ATOM     11  C   UNL     1       0.390  14.819  20.231  0.00  0.00    +0.000 C 
ATOM     12  C   UNL     1      -0.202  13.695  19.393  0.00  0.00    +0.000 C 
ATOM     13  C   UNL     1      -1.226  12.830  20.172  0.00  0.00    +0.000 C 
BRANCH  13  14
ATOM     14  C   UNL     1      -1.842  11.797  19.237  0.00  0.00    +0.000 A 
ATOM     15  C   UNL     1      -1.055  10.906  18.495  0.00  0.00    +0.000 A 
ATOM     16  C   UNL     1      -1.629  10.096  17.510  0.00  0.00    +0.000 A 
ATOM     17  C   UNL     1      -2.997  10.161  17.254  0.00  0.00    +0.000 A 
ATOM     18  C   UNL     1      -3.795  11.031  17.987  0.00  0.00    +0.000 A 
ATOM     19  C   UNL     1      -3.224  11.842  18.971  0.00  0.00    +0.000 A 
ENDBRANCH  13  14
ENDBRANCH   6   8
ENDBRANCH   4   6
ENDBRANCH   1   4
BRANCH   1  20
ATOM     20  S   UNL     1       1.075   8.244  21.085  0.00  0.00    +0.000 S 
ATOM     21  O   UNL     1       0.983   8.934  19.816  0.00  0.00    +0.000 OA
ATOM     22  O   UNL     1       2.192   8.496  21.965  0.00  0.00    +0.000 OA
BRANCH  20  23
ATOM     23  N   UNL     1       0.964   6.599  20.701  0.00  0.00    +0.000 NA
ATOM     24  H   UNL     1       0.400   6.538  19.858  0.00  0.00    +0.000 HD
BRANCH  23  25
ATOM     25  C   UNL     1       2.285   5.840  20.459  0.00  0.00    +0.000 C 
ATOM     26  C   UNL     1       2.216   4.413  20.999  0.00  0.00    +0.000 C 
ATOM     27  C   UNL     1       1.287   3.475  20.222  0.00  0.00    +0.000 C 
ATOM     28  C   UNL     1       1.210   3.645  18.702  0.00  0.00    +0.000 C 
ATOM     29  C   UNL     1       1.501   5.045  18.169  0.00  0.00    +0.000 C 
ATOM     30  C   UNL     1       2.608   5.808  18.928  0.00  0.00    +0.000 C 
BRANCH  30  31
ATOM     31  C   UNL     1       4.005   5.305  18.511  0.00  0.00    +0.000 A 
ATOM     32  C   UNL     1       5.106   5.534  19.350  0.00  0.00    +0.000 A 
ATOM     33  C   UNL     1       6.414   5.242  18.929  0.00  0.00    +0.000 A 
ATOM     34  C   UNL     1       6.651   4.714  17.661  0.00  0.00    +0.000 A 
ATOM     35  C   UNL     1       5.575   4.443  16.830  0.00  0.00    +0.000 A 
ATOM     36  C   UNL     1       4.274   4.717  17.260  0.00  0.00    +0.000 A 
ENDBRANCH  30  31
ENDBRANCH  23  25
ENDBRANCH  20  23
ENDBRANCH   1  20
TORSDOF 8
ENDMDL
MODEL 3
REMARK VINA RESULT:      -8.2      2.868      9.708
REMARK  Name = 
REMARK  8 active torsions:
REMARK  status: ('A' for Active; 'I' for Inactive)
REMARK    1  A    between atoms: S_2  and  N_4
REMARK    2  A    between atoms: S_2  and  N_17
REMARK    3  A    between atoms: N_4  and  C_5
REMARK    4  A    between atoms: C_10  and  C_11
REMARK    5  A    between atoms: N_17  and  S_18
REMARK    6  A    between atoms: S_18  and  N_21
REMARK    7  A    between atoms: N_21  and  C_22
REMARK    8  A    between atoms: C_27  and  C_28
REMARK                            x       y       z     vdW  Elec       q    Type
REMARK                         _______ _______ _______ _____ _____    ______ ____
ROOT
ATOM      1  N   UNL     1       2.639   7.680  20.044  0.00  0.00    +0.000 NA
ATOM      2  H   UNL     1       3.404   8.333  20.198  0.00  0.00    +0.000 HD
ENDROOT
BRANCH   1   4
ATOM      3  O   UNL     1       3.854   7.470  17.854  0.00  0.00    +0.000 OA
ATOM      4  S   UNL     1       2.528   7.439  18.409  0.00  0.00    +0.000 S 
ATOM      5  O   UNL     1       1.444   8.244  17.896  0.00  0.00    +0.000 OA
BRANCH   4   6
ATOM      6  N   UNL     1       1.949   5.806  18.349  0.00  0.00    +0.000 NA
ATOM      7  H   UNL     1       2.218   5.451  17.424  0.00  0.00    +0.000 HD
BRANCH   6   8
ATOM      8  C   UNL     1       2.610   4.890  19.394  0.00  0.00    +0.000 C 
ATOM      9  C   UNL     1       1.568   4.199  20.295  0.00  0.00    +0.000 C 
ATOM     10  C   UNL     1       0.800   3.102  19.561  0.00  0.00    +0.000 C 
ATOM     11  C   UNL     1       1.761   1.981  19.209  0.00  0.00    +0.000 C 
ATOM     12  C   UNL     1       2.854   2.501  18.286  0.00  0.00    +0.000 C 
ATOM     13  C   UNL     1       3.559   3.769  18.832  0.00  0.00    +0.000 C 
BRANCH  13  14
ATOM     14  C   UNL     1       4.700   4.162  17.902  0.00  0.00    +0.000 A 
ATOM     15  C   UNL     1       4.618   3.991  16.513  0.00  0.00    +0.000 A 
ATOM     16  C   UNL     1       5.739   4.185  15.702  0.00  0.00    +0.000 A 
ATOM     17  C   UNL     1       6.959   4.557  16.263  0.00  0.00    +0.000 A 
ATOM     18  C   UNL     1       7.058   4.741  17.638  0.00  0.00    +0.000 A 
ATOM     19  C   UNL     1       5.939   4.547  18.451  0.00  0.00    +0.000 A 
ENDBRANCH  13  14
ENDBRANCH   6   8
ENDBRANCH   4   6
ENDBRANCH   1   4
BRANCH   1  20
ATOM     20  S   UNL     1       1.341   8.396  20.816  0.00  0.00    +0.000 S 
ATOM     21  O   UNL     1       0.230   7.489  20.622  0.00  0.00    +0.000 OA
ATOM     22  O   UNL     1       1.750   8.762  22.151  0.00  0.00    +0.000 OA
BRANCH  20  23
ATOM     23  N   UNL     1       0.953   9.768  19.902  0.00  0.00    +0.000 NA
ATOM     24  H   UNL     1       0.186   9.500  19.292  0.00  0.00    +0.000 HD
BRANCH  23  25
ATOM     25  C   UNL     1       0.542  11.038  20.675  0.00  0.00    +0.000 C 
ATOM     26  C   UNL     1       1.168  12.290  20.063  0.00  0.00    +0.000 C 
ATOM     27  C   UNL     1       0.609  12.686  18.694  0.00  0.00    +0.000 C 
ATOM     28  C   UNL     1      -0.885  12.464  18.441  0.00  0.00    +0.000 C 
ATOM     29  C   UNL     1      -1.538  11.337  19.235  0.00  0.00    +0.000 C 
ATOM     30  C   UNL     1      -1.017  11.178  20.679  0.00  0.00    +0.000 C 
BRANCH  30  31
ATOM     31  C   UNL     1      -1.627  12.250  21.603  0.00  0.00    +0.000 A 
ATOM     32  C   UNL     1      -2.818  12.893  21.233  0.00  0.00    +0.000 A 
ATOM     33  C   UNL     1      -3.310  13.988  21.963  0.00  0.00    +0.000 A 
ATOM     34  C   UNL     1      -2.624  14.464  23.078  0.00  0.00    +0.000 A 
ATOM     35  C   UNL     1      -1.466  13.820  23.486  0.00  0.00    +0.000 A 
ATOM     36  C   UNL     1      -0.990  12.719  22.768  0.00  0.00    +0.000 A 
ENDBRANCH  30  31
ENDBRANCH  23  25
ENDBRANCH  20  23
ENDBRANCH   1  20
TORSDOF 8
ENDMDL
MODEL 4
REMARK VINA RESULT:      -8.2      5.374      7.461
REMARK  Name = 
REMARK  8 active torsions:
REMARK  status: ('A' for Active; 'I' for Inactive)
REMARK    1  A    between atoms: S_2  and  N_4
REMARK    2  A    between atoms: S_2  and  N_17
REMARK    3  A    between atoms: N_4  and  C_5
REMARK    4  A    between atoms: C_10  and  C_11
REMARK    5  A    between atoms: N_17  and  S_18
REMARK    6  A    between atoms: S_18  and  N_21
REMARK    7  A    between atoms: N_21  and  C_22
REMARK    8  A    between atoms: C_27  and  C_28
REMARK                            x       y       z     vdW  Elec       q    Type
REMARK                         _______ _______ _______ _____ _____    ______ ____
ROOT
ATOM      1  N   UNL     1       7.656   6.932  18.589  0.00  0.00    +0.000 NA
ATOM      2  H   UNL     1       8.570   6.639  18.926  0.00  0.00    +0.000 HD
ENDROOT
BRANCH   1   4
ATOM      3  O   UNL     1       7.756   4.477  18.065  0.00  0.00    +0.000 OA
ATOM      4  S   UNL     1       7.030   5.669  17.720  0.00  0.00    +0.000 S 
ATOM      5  O   UNL     1       6.833   6.099  16.356  0.00  0.00    +0.000 OA
BRANCH   4   6
ATOM      6  N   UNL     1       5.437   5.554  18.395  0.00  0.00    +0.000 NA
ATOM      7  H   UNL     1       5.259   6.464  18.837  0.00  0.00    +0.000 HD
BRANCH   6   8
ATOM      8  C   UNL     1       4.343   5.345  17.335  0.00  0.00    +0.000 C 
ATOM      9  C   UNL     1       4.415   3.941  16.702  0.00  0.00    +0.000 C 
ATOM     10  C   UNL     1       3.945   2.848  17.657  0.00  0.00    +0.000 C 
ATOM     11  C   UNL     1       2.463   3.036  17.929  0.00  0.00    +0.000 C 
ATOM     12  C   UNL     1       2.221   4.386  18.589  0.00  0.00    +0.000 C 
ATOM     13  C   UNL     1       2.861   5.566  17.814  0.00  0.00    +0.000 C 
BRANCH  13  14
ATOM     14  C   UNL     1       2.487   6.882  18.483  0.00  0.00    +0.000 A 
ATOM     15  C   UNL     1       2.202   6.963  19.853  0.00  0.00    +0.000 A 
ATOM     16  C   UNL     1       1.685   8.139  20.407  0.00  0.00    +0.000 A 
ATOM     17  C   UNL     1       1.449   9.251  19.603  0.00  0.00    +0.000 A 
ATOM     18  C   UNL     1       1.736   9.194  18.243  0.00  0.00    +0.000 A 
ATOM     19  C   UNL     1       2.252   8.021  17.687  0.00  0.00    +0.000 A 
ENDBRANCH  13  14
ENDBRANCH   6   8
ENDBRANCH   4   6
ENDBRANCH   1   4
BRANCH   1  20
ATOM     20  S   UNL     1       7.969   8.358  17.775  0.00  0.00    +0.000 S 
ATOM     21  O   UNL     1       8.781   7.982  16.637  0.00  0.00    +0.000 OA
ATOM     22  O   UNL     1       6.718   9.050  17.572  0.00  0.00    +0.000 OA
BRANCH  20  23
ATOM     23  N   UNL     1       9.002   9.251  18.776  0.00  0.00    +0.000 NA
ATOM     24  H   UNL     1       9.929   9.182  18.367  0.00  0.00    +0.000 HD
BRANCH  23  25
ATOM     25  C   UNL     1       8.669  10.743  18.982  0.00  0.00    +0.000 C 
ATOM     26  C   UNL     1       9.180  11.247  20.331  0.00  0.00    +0.000 C 
ATOM     27  C   UNL     1      10.703  11.353  20.443  0.00  0.00    +0.000 C 
ATOM     28  C   UNL     1      11.482  11.791  19.199  0.00  0.00    +0.000 C 
ATOM     29  C   UNL     1      10.837  11.464  17.856  0.00  0.00    +0.000 C 
ATOM     30  C   UNL     1       9.299  11.594  17.830  0.00  0.00    +0.000 C 
BRANCH  30  31
ATOM     31  C   UNL     1       8.875  13.073  17.731  0.00  0.00    +0.000 A 
ATOM     32  C   UNL     1       9.834  14.084  17.894  0.00  0.00    +0.000 A 
ATOM     33  C   UNL     1       9.457  15.436  17.978  0.00  0.00    +0.000 A 
ATOM     34  C   UNL     1       8.116  15.805  17.902  0.00  0.00    +0.000 A 
ATOM     35  C   UNL     1       7.154  14.826  17.702  0.00  0.00    +0.000 A 
ATOM     36  C   UNL     1       7.535  13.485  17.599  0.00  0.00    +0.000 A 
ENDBRANCH  30  31
ENDBRANCH  23  25
ENDBRANCH  20  23
ENDBRANCH   1  20
TORSDOF 8
ENDMDL
MODEL 5
REMARK VINA RESULT:      -8.1      5.242      7.445
REMARK  Name = 
REMARK  8 active torsions:
REMARK  status: ('A' for Active; 'I' for Inactive)
REMARK    1  A    between atoms: S_2  and  N_4
REMARK    2  A    between atoms: S_2  and  N_17
REMARK    3  A    between atoms: N_4  and  C_5
REMARK    4  A    between atoms: C_10  and  C_11
REMARK    5  A    between atoms: N_17  and  S_18
REMARK    6  A    between atoms: S_18  and  N_21
REMARK    7  A    between atoms: N_21  and  C_22
REMARK    8  A    between atoms: C_27  and  C_28
REMARK                            x       y       z     vdW  Elec       q    Type
REMARK                         _______ _______ _______ _____ _____    ______ ____
ROOT
ATOM      1  N   UNL     1       7.749   7.153  16.469  0.00  0.00    +0.000 NA
ATOM      2  H   UNL     1       7.315   7.811  15.826  0.00  0.00    +0.000 HD
ENDROOT
BRANCH   1   4
ATOM      3  O   UNL     1       7.711   4.671  16.862  0.00  0.00    +0.000 OA
ATOM      4  S   UNL     1       6.884   5.743  16.379  0.00  0.00    +0.000 S 
ATOM      5  O   UNL     1       6.206   5.697  15.105  0.00  0.00    +0.000 OA
BRANCH   4   6
ATOM      6  N   UNL     1       5.636   6.040  17.546  0.00  0.00    +0.000 NA
ATOM      7  H   UNL     1       5.442   7.047  17.491  0.00  0.00    +0.000 HD
BRANCH   6   8
ATOM      8  C   UNL     1       4.322   5.307  17.228  0.00  0.00    +0.000 C 
ATOM      9  C   UNL     1       4.528   3.785  17.102  0.00  0.00    +0.000 C 
ATOM     10  C   UNL     1       4.778   3.118  18.451  0.00  0.00    +0.000 C 
ATOM     11  C   UNL     1       3.523   3.235  19.298  0.00  0.00    +0.000 C 
ATOM     12  C   UNL     1       3.193   4.701  19.542  0.00  0.00    +0.000 C 
ATOM     13  C   UNL     1       3.137   5.537  18.237  0.00  0.00    +0.000 C 
BRANCH  13  14
ATOM     14  C   UNL     1       2.704   6.961  18.559  0.00  0.00    +0.000 A 
ATOM     15  C   UNL     1       2.161   7.308  19.804  0.00  0.00    +0.000 A 
ATOM     16  C   UNL     1       1.603   8.573  20.013  0.00  0.00    +0.000 A 
ATOM     17  C   UNL     1       1.582   9.512  18.983  0.00  0.00    +0.000 A 
ATOM     18  C   UNL     1       2.125   9.190  17.744  0.00  0.00    +0.000 A 
ATOM     19  C   UNL     1       2.683   7.927  17.534  0.00  0.00    +0.000 A 
ENDBRANCH  13  14
ENDBRANCH   6   8
ENDBRANCH   4   6
ENDBRANCH   1   4
BRANCH   1  20
ATOM     20  S   UNL     1       7.760   7.968  17.928  0.00  0.00    +0.000 S 
ATOM     21  O   UNL     1       6.478   8.636  18.005  0.00  0.00    +0.000 OA
ATOM     22  O   UNL     1       8.155   7.042  18.964  0.00  0.00    +0.000 OA
BRANCH  20  23
ATOM     23  N   UNL     1       8.896   9.212  17.760  0.00  0.00    +0.000 NA
ATOM     24  H   UNL     1       9.066   9.313  16.763  0.00  0.00    +0.000 HD
BRANCH  23  25
ATOM     25  C   UNL     1       8.520  10.593  18.333  0.00  0.00    +0.000 C 
ATOM     26  C   UNL     1       8.886  10.702  19.812  0.00  0.00    +0.000 C 
ATOM     27  C   UNL     1      10.389  10.754  20.102  0.00  0.00    +0.000 C 
ATOM     28  C   UNL     1      11.281  11.508  19.110  0.00  0.00    +0.000 C 
ATOM     29  C   UNL     1      10.778  11.571  17.671  0.00  0.00    +0.000 C 
ATOM     30  C   UNL     1       9.248  11.721  17.528  0.00  0.00    +0.000 C 
BRANCH  30  31
ATOM     31  C   UNL     1       8.812  13.175  17.797  0.00  0.00    +0.000 A 
ATOM     32  C   UNL     1       7.466  13.538  17.639  0.00  0.00    +0.000 A 
ATOM     33  C   UNL     1       7.063  14.883  17.711  0.00  0.00    +0.000 A 
ATOM     34  C   UNL     1       7.995  15.892  17.941  0.00  0.00    +0.000 A 
ATOM     35  C   UNL     1       9.325  15.553  18.139  0.00  0.00    +0.000 A 
ATOM     36  C   UNL     1       9.718  14.213  18.086  0.00  0.00    +0.000 A 
ENDBRANCH  30  31
ENDBRANCH  23  25
ENDBRANCH  20  23
ENDBRANCH   1  20
TORSDOF 8
ENDMDL
MODEL 6
REMARK VINA RESULT:      -8.1      3.660      5.573
REMARK  Name = 
REMARK  8 active torsions:
REMARK  status: ('A' for Active; 'I' for Inactive)
REMARK    1  A    between atoms: S_2  and  N_4
REMARK    2  A    between atoms: S_2  and  N_17
REMARK    3  A    between atoms: N_4  and  C_5
REMARK    4  A    between atoms: C_10  and  C_11
REMARK    5  A    between atoms: N_17  and  S_18
REMARK    6  A    between atoms: S_18  and  N_21
REMARK    7  A    between atoms: N_21  and  C_22
REMARK    8  A    between atoms: C_27  and  C_28
REMARK                            x       y       z     vdW  Elec       q    Type
REMARK                         _______ _______ _______ _____ _____    ______ ____
ROOT
ATOM      1  N   UNL     1       1.145   9.164  19.799  0.00  0.00    +0.000 NA
ATOM      2  H   UNL     1       2.152   9.102  19.669  0.00  0.00    +0.000 HD
ENDROOT
BRANCH   1   4
ATOM      3  O   UNL     1       1.333  11.502  18.897  0.00  0.00    +0.000 OA
ATOM      4  S   UNL     1       0.778  10.767  20.001  0.00  0.00    +0.000 S 
ATOM      5  O   UNL     1       1.014  11.125  21.379  0.00  0.00    +0.000 OA
BRANCH   4   6
ATOM      6  N   UNL     1      -0.948  10.740  19.828  0.00  0.00    +0.000 NA
ATOM      7  H   UNL     1      -1.319  10.696  20.784  0.00  0.00    +0.000 HD
BRANCH   6   8
ATOM      8  C   UNL     1      -1.511  12.016  19.181  0.00  0.00    +0.000 C 
ATOM      9  C   UNL     1      -1.931  11.782  17.717  0.00  0.00    +0.000 C 
ATOM     10  C   UNL     1      -3.206  10.950  17.603  0.00  0.00    +0.000 C 
ATOM     11  C   UNL     1      -4.364  11.743  18.179  0.00  0.00    +0.000 C 
ATOM     12  C   UNL     1      -4.114  12.038  19.651  0.00  0.00    +0.000 C 
ATOM     13  C   UNL     1      -2.731  12.686  19.916  0.00  0.00    +0.000 C 
BRANCH  13  14
ATOM     14  C   UNL     1      -2.604  13.038  21.392  0.00  0.00    +0.000 A 
ATOM     15  C   UNL     1      -3.604  12.718  22.320  0.00  0.00    +0.000 A 
ATOM     16  C   UNL     1      -3.550  13.211  23.628  0.00  0.00    +0.000 A 
ATOM     17  C   UNL     1      -2.496  14.028  24.029  0.00  0.00    +0.000 A 
ATOM     18  C   UNL     1      -1.488  14.348  23.125  0.00  0.00    +0.000 A 
ATOM     19  C   UNL     1      -1.540  13.857  21.819  0.00  0.00    +0.000 A 
ENDBRANCH  13  14
ENDBRANCH   6   8
ENDBRANCH   4   6
ENDBRANCH   1   4
BRANCH   1  20
ATOM     20  S   UNL     1       0.843   8.129  21.077  0.00  0.00    +0.000 S 
ATOM     21  O   UNL     1       2.021   8.198  21.915  0.00  0.00    +0.000 OA
ATOM     22  O   UNL     1      -0.454   8.450  21.626  0.00  0.00    +0.000 OA
BRANCH  20  23
ATOM     23  N   UNL     1       0.857   6.566  20.425  0.00  0.00    +0.000 NA
ATOM     24  H   UNL     1       0.426   6.633  19.508  0.00  0.00    +0.000 HD
BRANCH  23  25
ATOM     25  C   UNL     1       2.228   5.878  20.271  0.00  0.00    +0.000 C 
ATOM     26  C   UNL     1       2.272   4.548  21.021  0.00  0.00    +0.000 C 
ATOM     27  C   UNL     1       1.409   3.438  20.414  0.00  0.00    +0.000 C 
ATOM     28  C   UNL     1       1.303   3.370  18.887  0.00  0.00    +0.000 C 
ATOM     29  C   UNL     1       1.482   4.691  18.145  0.00  0.00    +0.000 C 
ATOM     30  C   UNL     1       2.536   5.638  18.756  0.00  0.00    +0.000 C 
BRANCH  30  31
ATOM     31  C   UNL     1       3.963   5.181  18.389  0.00  0.00    +0.000 A 
ATOM     32  C   UNL     1       5.032   5.483  19.246  0.00  0.00    +0.000 A 
ATOM     33  C   UNL     1       6.361   5.232  18.865  0.00  0.00    +0.000 A 
ATOM     34  C   UNL     1       6.651   4.675  17.622  0.00  0.00    +0.000 A 
ATOM     35  C   UNL     1       5.608   4.332  16.774  0.00  0.00    +0.000 A 
ATOM     36  C   UNL     1       4.287   4.566  17.165  0.00  0.00    +0.000 A 
ENDBRANCH  30  31
ENDBRANCH  23  25
ENDBRANCH  20  23
ENDBRANCH   1  20
TORSDOF 8
ENDMDL
MODEL 7
REMARK VINA RESULT:      -8.1      3.074      9.162
REMARK  Name = 
REMARK  8 active torsions:
REMARK  status: ('A' for Active; 'I' for Inactive)
REMARK    1  A    between atoms: S_2  and  N_4
REMARK    2  A    between atoms: S_2  and  N_17
REMARK    3  A    between atoms: N_4  and  C_5
REMARK    4  A    between atoms: C_10  and  C_11
REMARK    5  A    between atoms: N_17  and  S_18
REMARK    6  A    between atoms: S_18  and  N_21
REMARK    7  A    between atoms: N_21  and  C_22
REMARK    8  A    between atoms: C_27  and  C_28
REMARK                            x       y       z     vdW  Elec       q    Type
REMARK                         _______ _______ _______ _____ _____    ______ ____
ROOT
ATOM      1  N   UNL     1       1.897   8.405  19.290  0.00  0.00    +0.000 NA
ATOM      2  H   UNL     1       2.733   8.823  19.691  0.00  0.00    +0.000 HD
ENDROOT
BRANCH   1   4
ATOM      3  O   UNL     1       1.540   6.374  17.855  0.00  0.00    +0.000 OA
ATOM      4  S   UNL     1       2.228   6.800  19.042  0.00  0.00    +0.000 S 
ATOM      5  O   UNL     1       2.118   6.106  20.304  0.00  0.00    +0.000 OA
BRANCH   4   6
ATOM      6  N   UNL     1       3.927   6.856  18.701  0.00  0.00    +0.000 NA
ATOM      7  H   UNL     1       4.379   6.347  19.470  0.00  0.00    +0.000 HD
BRANCH   6   8
ATOM      8  C   UNL     1       4.306   6.137  17.396  0.00  0.00    +0.000 C 
ATOM      9  C   UNL     1       5.445   6.859  16.650  0.00  0.00    +0.000 C 
ATOM     10  C   UNL     1       6.794   6.689  17.343  0.00  0.00    +0.000 C 
ATOM     11  C   UNL     1       7.201   5.228  17.277  0.00  0.00    +0.000 C 
ATOM     12  C   UNL     1       6.177   4.368  18.003  0.00  0.00    +0.000 C 
ATOM     13  C   UNL     1       4.722   4.625  17.533  0.00  0.00    +0.000 C 
BRANCH  13  14
ATOM     14  C   UNL     1       3.777   3.658  18.233  0.00  0.00    +0.000 A 
ATOM     15  C   UNL     1       2.597   3.205  17.628  0.00  0.00    +0.000 A 
ATOM     16  C   UNL     1       1.658   2.468  18.356  0.00  0.00    +0.000 A 
ATOM     17  C   UNL     1       1.885   2.167  19.698  0.00  0.00    +0.000 A 
ATOM     18  C   UNL     1       3.056   2.598  20.312  0.00  0.00    +0.000 A 
ATOM     19  C   UNL     1       3.995   3.336  19.587  0.00  0.00    +0.000 A 
ENDBRANCH  13  14
ENDBRANCH   6   8
ENDBRANCH   4   6
ENDBRANCH   1   4
BRANCH   1  20
ATOM     20  S   UNL     1       1.580   9.350  17.949  0.00  0.00    +0.000 S 
ATOM     21  O   UNL     1       2.680   9.109  17.039  0.00  0.00    +0.000 OA
ATOM     22  O   UNL     1       0.223   9.098  17.524  0.00  0.00    +0.000 OA
BRANCH  20  23
ATOM     23  N   UNL     1       1.770  10.955  18.453  0.00  0.00    +0.000 NA
ATOM     24  H   UNL     1       1.428  11.538  17.694  0.00  0.00    +0.000 HD
BRANCH  23  25
ATOM     25  C   UNL     1       1.052  11.376  19.752  0.00  0.00    +0.000 C 
ATOM     26  C   UNL     1       1.665  12.645  20.341  0.00  0.00    +0.000 C 
ATOM     27  C   UNL     1       1.407  13.921  19.534  0.00  0.00    +0.000 C 
ATOM     28  C   UNL     1       0.048  14.064  18.842  0.00  0.00    +0.000 C 
ATOM     29  C   UNL     1      -0.648  12.762  18.457  0.00  0.00    +0.000 C 
ATOM     30  C   UNL     1      -0.469  11.610  19.468  0.00  0.00    +0.000 C 
BRANCH  30  31
ATOM     31  C   UNL     1      -1.393  11.802  20.688  0.00  0.00    +0.000 A 
ATOM     32  C   UNL     1      -2.607  12.490  20.539  0.00  0.00    +0.000 A 
ATOM     33  C   UNL     1      -3.391  12.829  21.656  0.00  0.00    +0.000 A 
ATOM     34  C   UNL     1      -2.979  12.489  22.942  0.00  0.00    +0.000 A 
ATOM     35  C   UNL     1      -1.802  11.775  23.110  0.00  0.00    +0.000 A 
ATOM     36  C   UNL     1      -1.036  11.423  21.996  0.00  0.00    +0.000 A 
ENDBRANCH  30  31
ENDBRANCH  23  25
ENDBRANCH  20  23
ENDBRANCH   1  20
TORSDOF 8
ENDMDL
MODEL 8
REMARK VINA RESULT:      -8.1      2.999      9.651
REMARK  Name = 
REMARK  8 active torsions:
REMARK  status: ('A' for Active; 'I' for Inactive)
REMARK    1  A    between atoms: S_2  and  N_4
REMARK    2  A    between atoms: S_2  and  N_17
REMARK    3  A    between atoms: N_4  and  C_5
REMARK    4  A    between atoms: C_10  and  C_11
REMARK    5  A    between atoms: N_17  and  S_18
REMARK    6  A    between atoms: S_18  and  N_21
REMARK    7  A    between atoms: N_21  and  C_22
REMARK    8  A    between atoms: C_27  and  C_28
REMARK                            x       y       z     vdW  Elec       q    Type
REMARK                         _______ _______ _______ _____ _____    ______ ____
ROOT
ATOM      1  N   UNL     1       2.353   7.608  20.219  0.00  0.00    +0.000 NA
ATOM      2  H   UNL     1       3.240   8.009  20.515  0.00  0.00    +0.000 HD
ENDROOT
BRANCH   1   4
ATOM      3  O   UNL     1       3.694   7.865  18.109  0.00  0.00    +0.000 OA
ATOM      4  S   UNL     1       2.360   7.582  18.562  0.00  0.00    +0.000 S 
ATOM      5  O   UNL     1       1.201   8.298  18.084  0.00  0.00    +0.000 OA
BRANCH   4   6
ATOM      6  N   UNL     1       2.020   5.910  18.253  0.00  0.00    +0.000 NA
ATOM      7  H   UNL     1       2.534   5.679  17.394  0.00  0.00    +0.000 HD
BRANCH   6   8
ATOM      8  C   UNL     1       2.539   4.972  19.356  0.00  0.00    +0.000 C 
ATOM      9  C   UNL     1       1.414   4.100  19.947  0.00  0.00    +0.000 C 
ATOM     10  C   UNL     1       0.960   3.006  18.986  0.00  0.00    +0.000 C 
ATOM     11  C   UNL     1       2.099   2.023  18.786  0.00  0.00    +0.000 C 
ATOM     12  C   UNL     1       3.299   2.731  18.174  0.00  0.00    +0.000 C 
ATOM     13  C   UNL     1       3.714   4.007  18.950  0.00  0.00    +0.000 C 
BRANCH  13  14
ATOM     14  C   UNL     1       4.977   4.595  18.334  0.00  0.00    +0.000 A 
ATOM     15  C   UNL     1       5.959   5.222  19.112  0.00  0.00    +0.000 A 
ATOM     16  C   UNL     1       7.014   5.914  18.509  0.00  0.00    +0.000 A 
ATOM     17  C   UNL     1       7.107   5.986  17.121  0.00  0.00    +0.000 A 
ATOM     18  C   UNL     1       6.147   5.361  16.332  0.00  0.00    +0.000 A 
ATOM     19  C   UNL     1       5.092   4.670  16.932  0.00  0.00    +0.000 A 
ENDBRANCH  13  14
ENDBRANCH   6   8
ENDBRANCH   4   6
ENDBRANCH   1   4
BRANCH   1  20
ATOM     20  S   UNL     1       1.210   8.564  20.978  0.00  0.00    +0.000 S 
ATOM     21  O   UNL     1      -0.035   7.835  20.867  0.00  0.00    +0.000 OA
ATOM     22  O   UNL     1       1.717   8.935  22.278  0.00  0.00    +0.000 OA
BRANCH  20  23
ATOM     23  N   UNL     1       1.012   9.926  19.992  0.00  0.00    +0.000 NA
ATOM     24  H   UNL     1       0.307   9.682  19.302  0.00  0.00    +0.000 HD
BRANCH  23  25
ATOM     25  C   UNL     1       0.587  11.239  20.680  0.00  0.00    +0.000 C 
ATOM     26  C   UNL     1       1.183  12.457  19.976  0.00  0.00    +0.000 C 
ATOM     27  C   UNL     1       0.601  12.747  18.589  0.00  0.00    +0.000 C 
ATOM     28  C   UNL     1      -0.892  12.482  18.371  0.00  0.00    +0.000 C 
ATOM     29  C   UNL     1      -1.515  11.401  19.250  0.00  0.00    +0.000 C 
ATOM     30  C   UNL     1      -0.974  11.352  20.694  0.00  0.00    +0.000 C 
BRANCH  30  31
ATOM     31  C   UNL     1      -1.593  12.475  21.551  0.00  0.00    +0.000 A 
ATOM     32  C   UNL     1      -0.963  12.872  22.740  0.00  0.00    +0.000 A 
ATOM     33  C   UNL     1      -1.583  13.769  23.627  0.00  0.00    +0.000 A 
ATOM     34  C   UNL     1      -2.844  14.288  23.345  0.00  0.00    +0.000 A 
ATOM     35  C   UNL     1      -3.469  13.942  22.156  0.00  0.00    +0.000 A 
ATOM     36  C   UNL     1      -2.840  13.064  21.268  0.00  0.00    +0.000 A 
ENDBRANCH  30  31
ENDBRANCH  23  25
ENDBRANCH  20  23
ENDBRANCH   1  20
TORSDOF 8
ENDMDL
MODEL 9
REMARK VINA RESULT:      -8.1      3.223      9.247
REMARK  Name = 
REMARK  8 active torsions:
REMARK  status: ('A' for Active; 'I' for Inactive)
REMARK    1  A    between atoms: S_2  and  N_4
REMARK    2  A    between atoms: S_2  and  N_17
REMARK    3  A    between atoms: N_4  and  C_5
REMARK    4  A    between atoms: C_10  and  C_11
REMARK    5  A    between atoms: N_17  and  S_18
REMARK    6  A    between atoms: S_18  and  N_21
REMARK    7  A    between atoms: N_21  and  C_22
REMARK    8  A    between atoms: C_27  and  C_28
REMARK                            x       y       z     vdW  Elec       q    Type
REMARK                         _______ _______ _______ _____ _____    ______ ____
ROOT
ATOM      1  N   UNL     1       2.647   7.669  20.073  0.00  0.00    +0.000 NA
ATOM      2  H   UNL     1       3.406   8.329  20.227  0.00  0.00    +0.000 HD
ENDROOT
BRANCH   1   4
ATOM      3  O   UNL     1       3.875   7.426  17.895  0.00  0.00    +0.000 OA
ATOM      4  S   UNL     1       2.545   7.416  18.439  0.00  0.00    +0.000 S 
ATOM      5  O   UNL     1       1.476   8.231  17.912  0.00  0.00    +0.000 OA
BRANCH   4   6
ATOM      6  N   UNL     1       1.945   5.790  18.388  0.00  0.00    +0.000 NA
ATOM      7  H   UNL     1       2.193   5.434  17.457  0.00  0.00    +0.000 HD
BRANCH   6   8
ATOM      8  C   UNL     1       2.614   4.865  19.419  0.00  0.00    +0.000 C 
ATOM      9  C   UNL     1       1.579   4.164  20.320  0.00  0.00    +0.000 C 
ATOM     10  C   UNL     1       0.806   3.075  19.581  0.00  0.00    +0.000 C 
ATOM     11  C   UNL     1       1.765   1.957  19.211  0.00  0.00    +0.000 C 
ATOM     12  C   UNL     1       2.851   2.487  18.286  0.00  0.00    +0.000 C 
ATOM     13  C   UNL     1       3.560   3.750  18.839  0.00  0.00    +0.000 C 
BRANCH  13  14
ATOM     14  C   UNL     1       4.694   4.153  17.905  0.00  0.00    +0.000 A 
ATOM     15  C   UNL     1       4.603   3.993  16.516  0.00  0.00    +0.000 A 
ATOM     16  C   UNL     1       5.719   4.196  15.698  0.00  0.00    +0.000 A 
ATOM     17  C   UNL     1       6.941   4.565  16.255  0.00  0.00    +0.000 A 
ATOM     18  C   UNL     1       7.049   4.738  17.631  0.00  0.00    +0.000 A 
ATOM     19  C   UNL     1       5.935   4.536  18.449  0.00  0.00    +0.000 A 
ENDBRANCH  13  14
ENDBRANCH   6   8
ENDBRANCH   4   6
ENDBRANCH   1   4
BRANCH   1  20
ATOM     20  S   UNL     1       1.339   8.378  20.835  0.00  0.00    +0.000 S 
ATOM     21  O   UNL     1       0.243   7.448  20.663  0.00  0.00    +0.000 OA
ATOM     22  O   UNL     1       1.746   8.778  22.161  0.00  0.00    +0.000 OA
BRANCH  20  23
ATOM     23  N   UNL     1       0.925   9.725  19.895  0.00  0.00    +0.000 NA
ATOM     24  H   UNL     1       1.083   9.459  18.927  0.00  0.00    +0.000 HD
BRANCH  23  25
ATOM     25  C   UNL     1      -0.514  10.261  20.025  0.00  0.00    +0.000 C 
ATOM     26  C   UNL     1      -0.685  11.101  21.289  0.00  0.00    +0.000 C 
ATOM     27  C   UNL     1       0.042  12.449  21.269  0.00  0.00    +0.000 C 
ATOM     28  C   UNL     1       0.108  13.205  19.938  0.00  0.00    +0.000 C 
ATOM     29  C   UNL     1       0.056  12.347  18.678  0.00  0.00    +0.000 C 
ATOM     30  C   UNL     1      -0.878  11.121  18.769  0.00  0.00    +0.000 C 
BRANCH  30  31
ATOM     31  C   UNL     1      -2.353  11.542  18.604  0.00  0.00    +0.000 A 
ATOM     32  C   UNL     1      -3.012  12.197  19.656  0.00  0.00    +0.000 A 
ATOM     33  C   UNL     1      -4.394  12.442  19.606  0.00  0.00    +0.000 A 
ATOM     34  C   UNL     1      -5.148  12.039  18.506  0.00  0.00    +0.000 A 
ATOM     35  C   UNL     1      -4.512  11.425  17.438  0.00  0.00    +0.000 A 
ATOM     36  C   UNL     1      -3.133  11.200  17.483  0.00  0.00    +0.000 A 
ENDBRANCH  30  31
ENDBRANCH  23  25
ENDBRANCH  20  23
ENDBRANCH   1  20
TORSDOF 8
ENDMDL
