MODEL 1
REMARK VINA RESULT:      -7.9      0.000      0.000
REMARK  Name = 
REMARK  7 active torsions:
REMARK  status: ('A' for Active; 'I' for Inactive)
REMARK    1  A    between atoms: C_1  and  C_2
REMARK    2  A    between atoms: C_6  and  C_7
REMARK    3  A    between atoms: C_7  and  N_8
REMARK    4  A    between atoms: C_11  and  N_12
REMARK    5  A    between atoms: N_12  and  C_13
REMARK    6  A    between atoms: C_13  and  C_14
REMARK    7  A    between atoms: C_19  and  C_20
REMARK                            x       y       z     vdW  Elec       q    Type
REMARK                         _______ _______ _______ _____ _____    ______ ____
ROOT
ATOM      1  N   UNL     1       5.288   3.723  17.257  0.00  0.00    +0.000 NA
ATOM      2  C   UNL     1       4.927   4.318  15.965  0.00  0.00    +0.000 C 
ATOM      3  C   UNL     1       5.813   5.504  15.577  0.00  0.00    +0.000 C 
ATOM      4  C   UNL     1       5.888   6.559  16.688  0.00  0.00    +0.000 C 
ATOM      5  C   UNL     1       6.392   5.836  17.947  0.00  0.00    +0.000 C 
ATOM      6  C   UNL     1       5.464   4.688  18.344  0.00  0.00    +0.000 C 
ENDROOT
BRANCH   4   7
ATOM      7  N   UNL     1       4.595   7.274  16.850  0.00  0.00    +0.000 NA
ATOM      8  H   UNL     1       3.976   7.044  16.067  0.00  0.00    +0.000 HD
BRANCH   7   9
ATOM      9  C   UNL     1       3.947   6.916  18.113  0.00  0.00    +0.000 C 
BRANCH   9  10
ATOM     10  C   UNL     1       2.478   7.353  18.275  0.00  0.00    +0.000 C 
ATOM     11  C   UNL     1       2.257   8.790  17.774  0.00  0.00    +0.000 C 
ATOM     12  N   UNL     1       1.140   9.475  18.426  0.00  0.00    +0.000 N 
ATOM     13  C   UNL     1       0.950   9.304  19.755  0.00  0.00    +0.000 A 
ATOM     14  C   UNL     1       0.362  10.069  20.730  0.00  0.00    +0.000 A 
ATOM     15  C   UNL     1       0.487   9.304  21.922  0.00  0.00    +0.000 A 
ATOM     16  C   UNL     1       0.019   9.640  23.287  0.00  0.00    +0.000 C 
ATOM     17  N   UNL     1       1.120   8.144  21.702  0.00  0.00    +0.000 NA
ATOM     18  N   UNL     1       1.379   8.176  20.385  0.00  0.00    +0.000 N 
ATOM     19  C   UNL     1       2.123   7.119  19.759  0.00  0.00    +0.000 C 
ATOM     20  H   UNL     1       0.953  10.400  18.040  0.00  0.00    +0.000 HD
ENDBRANCH   9  10
ENDBRANCH   7   9
ENDBRANCH   4   7
BRANCH   1  21
ATOM     21  C   UNL     1       4.418   2.591  17.633  0.00  0.00    +0.000 C 
BRANCH  21  27
ATOM     22  C   UNL     1       1.773   2.712  21.940  0.00  0.00    +0.000 C 
ATOM     23  C   UNL     1       1.855   2.961  20.462  0.00  0.00    +0.000 A 
ATOM     24  C   UNL     1       0.784   3.547  19.781  0.00  0.00    +0.000 A 
ATOM     25  C   UNL     1       0.878   3.816  18.416  0.00  0.00    +0.000 A 
ATOM     26  C   UNL     1       2.046   3.506  17.721  0.00  0.00    +0.000 A 
ATOM     27  C   UNL     1       3.138   2.921  18.379  0.00  0.00    +0.000 A 
ATOM     28  C   UNL     1       3.028   2.662  19.756  0.00  0.00    +0.000 A 
ENDBRANCH  21  27
ENDBRANCH   1  21
TORSDOF 5
ENDMDL
MODEL 2
REMARK VINA RESULT:      -7.8      1.814      6.284
REMARK  Name = 
REMARK  7 active torsions:
REMARK  status: ('A' for Active; 'I' for Inactive)
REMARK    1  A    between atoms: C_1  and  C_2
REMARK    2  A    between atoms: C_6  and  C_7
REMARK    3  A    between atoms: C_7  and  N_8
REMARK    4  A    between atoms: C_11  and  N_12
REMARK    5  A    between atoms: N_12  and  C_13
REMARK    6  A    between atoms: C_13  and  C_14
REMARK    7  A    between atoms: C_19  and  C_20
REMARK                            x       y       z     vdW  Elec       q    Type
REMARK                         _______ _______ _______ _____ _____    ______ ____
ROOT
ATOM      1  N   UNL     1       1.824   5.310  19.663  0.00  0.00    +0.000 NA
ATOM      2  C   UNL     1       2.040   5.495  18.223  0.00  0.00    +0.000 C 
ATOM      3  C   UNL     1       1.514   4.332  17.379  0.00  0.00    +0.000 C 
ATOM      4  C   UNL     1       2.046   2.976  17.865  0.00  0.00    +0.000 C 
ATOM      5  C   UNL     1       1.649   2.855  19.345  0.00  0.00    +0.000 C 
ATOM      6  C   UNL     1       2.228   4.001  20.176  0.00  0.00    +0.000 C 
ENDROOT
BRANCH   4   7
ATOM      7  N   UNL     1       3.499   2.830  17.590  0.00  0.00    +0.000 NA
ATOM      8  H   UNL     1       3.673   1.928  17.138  0.00  0.00    +0.000 HD
BRANCH   7   9
ATOM      9  C   UNL     1       3.989   3.914  16.737  0.00  0.00    +0.000 C 
BRANCH   9  10
ATOM     10  C   UNL     1       5.509   4.163  16.754  0.00  0.00    +0.000 C 
ATOM     11  C   UNL     1       6.124   3.817  18.120  0.00  0.00    +0.000 C 
ATOM     12  N   UNL     1       7.344   4.568  18.424  0.00  0.00    +0.000 N 
ATOM     13  C   UNL     1       7.408   5.877  18.089  0.00  0.00    +0.000 A 
ATOM     14  C   UNL     1       8.121   6.942  18.581  0.00  0.00    +0.000 A 
ATOM     15  C   UNL     1       7.735   8.046  17.771  0.00  0.00    +0.000 A 
ATOM     16  C   UNL     1       8.199   9.451  17.847  0.00  0.00    +0.000 C 
ATOM     17  N   UNL     1       6.835   7.691  16.845  0.00  0.00    +0.000 NA
ATOM     18  N   UNL     1       6.667   6.377  17.063  0.00  0.00    +0.000 N 
ATOM     19  C   UNL     1       5.709   5.625  16.301  0.00  0.00    +0.000 C 
ATOM     20  H   UNL     1       7.786   4.283  19.297  0.00  0.00    +0.000 HD
ENDBRANCH   9  10
ENDBRANCH   7   9
ENDBRANCH   4   7
BRANCH   1  21
ATOM     21  C   UNL     1       2.349   6.427  20.472  0.00  0.00    +0.000 C 
BRANCH  21  27
ATOM     22  C   UNL     1      -0.444  10.158  22.432  0.00  0.00    +0.000 C 
ATOM     23  C   UNL     1       0.296   9.568  21.267  0.00  0.00    +0.000 A 
ATOM     24  C   UNL     1       0.407  10.275  20.066  0.00  0.00    +0.000 A 
ATOM     25  C   UNL     1       1.130   9.743  18.999  0.00  0.00    +0.000 A 
ATOM     26  C   UNL     1       1.754   8.502  19.125  0.00  0.00    +0.000 A 
ATOM     27  C   UNL     1       1.663   7.773  20.321  0.00  0.00    +0.000 A 
ATOM     28  C   UNL     1       0.935   8.326  21.388  0.00  0.00    +0.000 A 
ENDBRANCH  21  27
ENDBRANCH   1  21
TORSDOF 5
ENDMDL
MODEL 3
REMARK VINA RESULT:      -7.8      1.681      4.567
REMARK  Name = 
REMARK  7 active torsions:
REMARK  status: ('A' for Active; 'I' for Inactive)
REMARK    1  A    between atoms: C_1  and  C_2
REMARK    2  A    between atoms: C_6  and  C_7
REMARK    3  A    between atoms: C_7  and  N_8
REMARK    4  A    between atoms: C_11  and  N_12
REMARK    5  A    between atoms: N_12  and  C_13
REMARK    6  A    between atoms: C_13  and  C_14
REMARK    7  A    between atoms: C_19  and  C_20
REMARK                            x       y       z     vdW  Elec       q    Type
REMARK                         _______ _______ _______ _____ _____    ______ ____
ROOT
ATOM      1  N   UNL     1       3.183   3.165  18.545  0.00  0.00    +0.000 NA
ATOM      2  C   UNL     1       3.778   3.205  19.886  0.00  0.00    +0.000 C 
ATOM      3  C   UNL     1       2.740   3.165  21.009  0.00  0.00    +0.000 C 
ATOM      4  C   UNL     1       1.656   4.238  20.836  0.00  0.00    +0.000 C 
ATOM      5  C   UNL     1       1.032   4.010  19.450  0.00  0.00    +0.000 C 
ATOM      6  C   UNL     1       2.080   4.104  18.340  0.00  0.00    +0.000 C 
ENDROOT
BRANCH   4   7
ATOM      7  N   UNL     1       2.199   5.603  21.063  0.00  0.00    +0.000 NA
ATOM      8  H   UNL     1       3.027   5.744  20.478  0.00  0.00    +0.000 HD
BRANCH   7   9
ATOM      9  C   UNL     1       1.198   6.627  20.760  0.00  0.00    +0.000 C 
BRANCH   9  10
ATOM     10  C   UNL     1       1.656   8.092  20.902  0.00  0.00    +0.000 C 
ATOM     11  C   UNL     1       1.015   8.769  22.125  0.00  0.00    +0.000 C 
ATOM     12  N   UNL     1       0.881  10.221  21.990  0.00  0.00    +0.000 N 
ATOM     13  C   UNL     1       0.510  10.739  20.797  0.00  0.00    +0.000 A 
ATOM     14  C   UNL     1      -0.124  11.898  20.428  0.00  0.00    +0.000 A 
ATOM     15  C   UNL     1      -0.202  11.838  19.010  0.00  0.00    +0.000 A 
ATOM     16  C   UNL     1      -0.782  12.831  18.075  0.00  0.00    +0.000 C 
ATOM     17  N   UNL     1       0.339  10.710  18.530  0.00  0.00    +0.000 NA
ATOM     18  N   UNL     1       0.762  10.076  19.636  0.00  0.00    +0.000 N 
ATOM     19  C   UNL     1       1.352   8.768  19.549  0.00  0.00    +0.000 C 
ATOM     20  H   UNL     1       0.523  10.672  22.831  0.00  0.00    +0.000 HD
ENDBRANCH   9  10
ENDBRANCH   7   9
ENDBRANCH   4   7
BRANCH   1  21
ATOM     21  C   UNL     1       4.189   3.222  17.466  0.00  0.00    +0.000 C 
BRANCH  21  27
ATOM     22  C   UNL     1       8.044   6.004  19.185  0.00  0.00    +0.000 C 
ATOM     23  C   UNL     1       6.900   5.825  18.230  0.00  0.00    +0.000 A 
ATOM     24  C   UNL     1       6.655   6.772  17.232  0.00  0.00    +0.000 A 
ATOM     25  C   UNL     1       5.617   6.582  16.320  0.00  0.00    +0.000 A 
ATOM     26  C   UNL     1       4.819   5.442  16.395  0.00  0.00    +0.000 A 
ATOM     27  C   UNL     1       5.045   4.473  17.384  0.00  0.00    +0.000 A 
ATOM     28  C   UNL     1       6.098   4.676  18.292  0.00  0.00    +0.000 A 
ENDBRANCH  21  27
ENDBRANCH   1  21
TORSDOF 5
ENDMDL
MODEL 4
REMARK VINA RESULT:      -7.7      4.782      5.904
REMARK  Name = 
REMARK  7 active torsions:
REMARK  status: ('A' for Active; 'I' for Inactive)
REMARK    1  A    between atoms: C_1  and  C_2
REMARK    2  A    between atoms: C_6  and  C_7
REMARK    3  A    between atoms: C_7  and  N_8
REMARK    4  A    between atoms: C_11  and  N_12
REMARK    5  A    between atoms: N_12  and  C_13
REMARK    6  A    between atoms: C_13  and  C_14
REMARK    7  A    between atoms: C_19  and  C_20
REMARK                            x       y       z     vdW  Elec       q    Type
REMARK                         _______ _______ _______ _____ _____    ______ ____
ROOT
ATOM      1  N   UNL     1       4.928   5.978  18.300  0.00  0.00    +0.000 NA
ATOM      2  C   UNL     1       5.238   7.139  17.458  0.00  0.00    +0.000 C 
ATOM      3  C   UNL     1       6.570   7.009  16.716  0.00  0.00    +0.000 C 
ATOM      4  C   UNL     1       7.729   6.667  17.661  0.00  0.00    +0.000 C 
ATOM      5  C   UNL     1       7.333   5.373  18.390  0.00  0.00    +0.000 C 
ATOM      6  C   UNL     1       6.026   5.542  19.164  0.00  0.00    +0.000 C 
ENDROOT
BRANCH   4   7
ATOM      7  N   UNL     1       8.064   7.810  18.550  0.00  0.00    +0.000 NA
ATOM      8  H   UNL     1       8.979   7.651  18.983  0.00  0.00    +0.000 HD
BRANCH   7   9
ATOM      9  C   UNL     1       8.081   9.071  17.807  0.00  0.00    +0.000 C 
BRANCH   9  10
ATOM     10  C   UNL     1       9.135  10.107  18.245  0.00  0.00    +0.000 C 
ATOM     11  C   UNL     1       9.362  10.076  19.765  0.00  0.00    +0.000 C 
ATOM     12  N   UNL     1       9.820  11.353  20.318  0.00  0.00    +0.000 N 
ATOM     13  C   UNL     1       9.282  12.502  19.849  0.00  0.00    +0.000 A 
ATOM     14  C   UNL     1       9.115  13.753  20.386  0.00  0.00    +0.000 A 
ATOM     15  C   UNL     1       8.487  14.512  19.361  0.00  0.00    +0.000 A 
ATOM     16  C   UNL     1       8.078  15.936  19.386  0.00  0.00    +0.000 C 
ATOM     17  N   UNL     1       8.268  13.776  18.263  0.00  0.00    +0.000 NA
ATOM     18  N   UNL     1       8.765  12.573  18.592  0.00  0.00    +0.000 N 
ATOM     19  C   UNL     1       8.659  11.464  17.684  0.00  0.00    +0.000 C 
ATOM     20  H   UNL     1      10.037  11.306  21.313  0.00  0.00    +0.000 HD
ENDBRANCH   9  10
ENDBRANCH   7   9
ENDBRANCH   4   7
BRANCH   1  21
ATOM     21  C   UNL     1       3.651   6.118  19.027  0.00  0.00    +0.000 C 
BRANCH  21  27
ATOM     22  C   UNL     1       1.411   2.534  21.801  0.00  0.00    +0.000 C 
ATOM     23  C   UNL     1       1.701   3.143  20.460  0.00  0.00    +0.000 A 
ATOM     24  C   UNL     1       1.117   2.619  19.303  0.00  0.00    +0.000 A 
ATOM     25  C   UNL     1       1.354   3.212  18.063  0.00  0.00    +0.000 A 
ATOM     26  C   UNL     1       2.172   4.337  17.970  0.00  0.00    +0.000 A 
ATOM     27  C   UNL     1       2.768   4.886  19.116  0.00  0.00    +0.000 A 
ATOM     28  C   UNL     1       2.514   4.280  20.358  0.00  0.00    +0.000 A 
ENDBRANCH  21  27
ENDBRANCH   1  21
TORSDOF 5
ENDMDL
MODEL 5
REMARK VINA RESULT:      -7.7      2.388      7.435
REMARK  Name = 
REMARK  7 active torsions:
REMARK  status: ('A' for Active; 'I' for Inactive)
REMARK    1  A    between atoms: C_1  and  C_2
REMARK    2  A    between atoms: C_6  and  C_7
REMARK    3  A    between atoms: C_7  and  N_8
REMARK    4  A    between atoms: C_11  and  N_12
REMARK    5  A    between atoms: N_12  and  C_13
REMARK    6  A    between atoms: C_13  and  C_14
REMARK    7  A    between atoms: C_19  and  C_20
REMARK                            x       y       z     vdW  Elec       q    Type
REMARK                         _______ _______ _______ _____ _____    ______ ____
ROOT
ATOM      1  N   UNL     1       2.027   7.952  18.287  0.00  0.00    +0.000 NA
ATOM      2  C   UNL     1       3.060   7.353  17.434  0.00  0.00    +0.000 C 
ATOM      3  C   UNL     1       3.250   5.854  17.677  0.00  0.00    +0.000 C 
ATOM      4  C   UNL     1       3.478   5.532  19.160  0.00  0.00    +0.000 C 
ATOM      5  C   UNL     1       2.273   6.103  19.923  0.00  0.00    +0.000 C 
ATOM      6  C   UNL     1       2.134   7.610  19.706  0.00  0.00    +0.000 C 
ENDROOT
BRANCH   4   7
ATOM      7  N   UNL     1       4.804   6.016  19.626  0.00  0.00    +0.000 NA
ATOM      8  H   UNL     1       4.720   6.380  20.580  0.00  0.00    +0.000 HD
BRANCH   7   9
ATOM      9  C   UNL     1       5.802   4.946  19.591  0.00  0.00    +0.000 C 
BRANCH   9  10
ATOM     10  C   UNL     1       6.844   5.021  18.458  0.00  0.00    +0.000 C 
ATOM     11  C   UNL     1       6.912   6.429  17.844  0.00  0.00    +0.000 C 
ATOM     12  N   UNL     1       7.358   6.442  16.449  0.00  0.00    +0.000 N 
ATOM     13  C   UNL     1       6.916   5.479  15.609  0.00  0.00    +0.000 A 
ATOM     14  C   UNL     1       6.743   5.420  14.249  0.00  0.00    +0.000 A 
ATOM     15  C   UNL     1       6.252   4.109  13.998  0.00  0.00    +0.000 A 
ATOM     16  C   UNL     1       5.898   3.490  12.700  0.00  0.00    +0.000 C 
ATOM     17  N   UNL     1       6.120   3.404  15.130  0.00  0.00    +0.000 NA
ATOM     18  N   UNL     1       6.535   4.259  16.078  0.00  0.00    +0.000 N 
ATOM     19  C   UNL     1       6.480   3.895  17.467  0.00  0.00    +0.000 C 
ATOM     20  H   UNL     1       7.470   7.382  16.071  0.00  0.00    +0.000 HD
ENDBRANCH   9  10
ENDBRANCH   7   9
ENDBRANCH   4   7
BRANCH   1  21
ATOM     21  C   UNL     1       1.861   9.401  18.060  0.00  0.00    +0.000 C 
BRANCH  21  27
ATOM     22  C   UNL     1      -3.067   9.956  17.075  0.00  0.00    +0.000 C 
ATOM     23  C   UNL     1      -1.868  10.286  17.916  0.00  0.00    +0.000 A 
ATOM     24  C   UNL     1      -1.997  11.098  19.047  0.00  0.00    +0.000 A 
ATOM     25  C   UNL     1      -0.890  11.370  19.850  0.00  0.00    +0.000 A 
ATOM     26  C   UNL     1       0.355  10.828  19.533  0.00  0.00    +0.000 A 
ATOM     27  C   UNL     1       0.512  10.006  18.407  0.00  0.00    +0.000 A 
ATOM     28  C   UNL     1      -0.615   9.738  17.611  0.00  0.00    +0.000 A 
ENDBRANCH  21  27
ENDBRANCH   1  21
TORSDOF 5
ENDMDL
MODEL 6
REMARK VINA RESULT:      -7.6      4.057      6.637
REMARK  Name = 
REMARK  7 active torsions:
REMARK  status: ('A' for Active; 'I' for Inactive)
REMARK    1  A    between atoms: C_1  and  C_2
REMARK    2  A    between atoms: C_6  and  C_7
REMARK    3  A    between atoms: C_7  and  N_8
REMARK    4  A    between atoms: C_11  and  N_12
REMARK    5  A    between atoms: N_12  and  C_13
REMARK    6  A    between atoms: C_13  and  C_14
REMARK    7  A    between atoms: C_19  and  C_20
REMARK                            x       y       z     vdW  Elec       q    Type
REMARK                         _______ _______ _______ _____ _____    ______ ____
ROOT
ATOM      1  N   UNL     1       1.205   8.297  20.349  0.00  0.00    +0.000 NA
ATOM      2  C   UNL     1       1.491   8.833  21.685  0.00  0.00    +0.000 C 
ATOM      3  C   UNL     1       0.374   9.725  22.230  0.00  0.00    +0.000 C 
ATOM      4  C   UNL     1      -0.015  10.835  21.243  0.00  0.00    +0.000 C 
ATOM      5  C   UNL     1      -0.407  10.136  19.931  0.00  0.00    +0.000 C 
ATOM      6  C   UNL     1       0.741   9.291  19.381  0.00  0.00    +0.000 C 
ENDROOT
BRANCH   4   7
ATOM      7  N   UNL     1       1.061  11.853  21.115  0.00  0.00    +0.000 NA
ATOM      8  H   UNL     1       1.776  11.515  20.465  0.00  0.00    +0.000 HD
BRANCH   7   9
ATOM      9  C   UNL     1       0.526  13.131  20.643  0.00  0.00    +0.000 C 
BRANCH   9  10
ATOM     10  C   UNL     1       1.130  13.682  19.337  0.00  0.00    +0.000 C 
ATOM     11  C   UNL     1       2.026  12.643  18.644  0.00  0.00    +0.000 C 
ATOM     12  N   UNL     1       3.077  13.232  17.812  0.00  0.00    +0.000 N 
ATOM     13  C   UNL     1       3.726  14.333  18.257  0.00  0.00    +0.000 A 
ATOM     14  C   UNL     1       4.971  14.855  18.015  0.00  0.00    +0.000 A 
ATOM     15  C   UNL     1       5.027  16.044  18.792  0.00  0.00    +0.000 A 
ATOM     16  C   UNL     1       6.138  17.018  18.908  0.00  0.00    +0.000 C 
ATOM     17  N   UNL     1       3.894  16.242  19.479  0.00  0.00    +0.000 NA
ATOM     18  N   UNL     1       3.132  15.194  19.127  0.00  0.00    +0.000 N 
ATOM     19  C   UNL     1       1.835  15.002  19.715  0.00  0.00    +0.000 C 
ATOM     20  H   UNL     1       3.621  12.539  17.300  0.00  0.00    +0.000 HD
ENDBRANCH   9  10
ENDBRANCH   7   9
ENDBRANCH   4   7
BRANCH   1  21
ATOM     21  C   UNL     1       2.294   7.451  19.823  0.00  0.00    +0.000 C 
BRANCH  21  27
ATOM     22  C   UNL     1       2.575   3.182  17.129  0.00  0.00    +0.000 C 
ATOM     23  C   UNL     1       2.131   3.906  18.367  0.00  0.00    +0.000 A 
ATOM     24  C   UNL     1       1.514   3.213  19.412  0.00  0.00    +0.000 A 
ATOM     25  C   UNL     1       1.141   3.881  20.577  0.00  0.00    +0.000 A 
ATOM     26  C   UNL     1       1.388   5.246  20.712  0.00  0.00    +0.000 A 
ATOM     27  C   UNL     1       2.010   5.966  19.681  0.00  0.00    +0.000 A 
ATOM     28  C   UNL     1       2.384   5.277  18.515  0.00  0.00    +0.000 A 
ENDBRANCH  21  27
ENDBRANCH   1  21
TORSDOF 5
ENDMDL
MODEL 7
REMARK VINA RESULT:      -7.5      1.818      7.385
REMARK  Name = 
REMARK  7 active torsions:
REMARK  status: ('A' for Active; 'I' for Inactive)
REMARK    1  A    between atoms: C_1  and  C_2
REMARK    2  A    between atoms: C_6  and  C_7
REMARK    3  A    between atoms: C_7  and  N_8
REMARK    4  A    between atoms: C_11  and  N_12
REMARK    5  A    between atoms: N_12  and  C_13
REMARK    6  A    between atoms: C_13  and  C_14
REMARK    7  A    between atoms: C_19  and  C_20
REMARK                            x       y       z     vdW  Elec       q    Type
REMARK                         _______ _______ _______ _____ _____    ______ ____
ROOT
ATOM      1  N   UNL     1       1.797   6.999  19.967  0.00  0.00    +0.000 NA
ATOM      2  C   UNL     1       2.792   7.007  18.889  0.00  0.00    +0.000 C 
ATOM      3  C   UNL     1       2.709   5.777  17.981  0.00  0.00    +0.000 C 
ATOM      4  C   UNL     1       2.743   4.466  18.777  0.00  0.00    +0.000 C 
ATOM      5  C   UNL     1       1.583   4.534  19.783  0.00  0.00    +0.000 C 
ATOM      6  C   UNL     1       1.714   5.741  20.711  0.00  0.00    +0.000 C 
ENDROOT
BRANCH   4   7
ATOM      7  N   UNL     1       4.081   4.226  19.378  0.00  0.00    +0.000 NA
ATOM      8  H   UNL     1       4.486   3.373  18.984  0.00  0.00    +0.000 HD
BRANCH   7   9
ATOM      9  C   UNL     1       4.980   5.357  19.138  0.00  0.00    +0.000 C 
BRANCH   9  10
ATOM     10  C   UNL     1       6.210   5.075  18.254  0.00  0.00    +0.000 C 
ATOM     11  C   UNL     1       6.763   6.364  17.624  0.00  0.00    +0.000 C 
ATOM     12  N   UNL     1       7.468   6.146  16.359  0.00  0.00    +0.000 N 
ATOM     13  C   UNL     1       6.967   5.253  15.475  0.00  0.00    +0.000 A 
ATOM     14  C   UNL     1       7.061   5.121  14.112  0.00  0.00    +0.000 A 
ATOM     15  C   UNL     1       6.307   3.956  13.804  0.00  0.00    +0.000 A 
ATOM     16  C   UNL     1       6.071   3.334  12.480  0.00  0.00    +0.000 C 
ATOM     17  N   UNL     1       5.772   3.406  14.902  0.00  0.00    +0.000 NA
ATOM     18  N   UNL     1       6.196   4.211  15.889  0.00  0.00    +0.000 N 
ATOM     19  C   UNL     1       5.772   3.992  17.245  0.00  0.00    +0.000 C 
ATOM     20  H   UNL     1       7.893   6.992  15.984  0.00  0.00    +0.000 HD
ENDBRANCH   9  10
ENDBRANCH   7   9
ENDBRANCH   4   7
BRANCH   1  21
ATOM     21  C   UNL     1       1.894   8.179  20.849  0.00  0.00    +0.000 C 
BRANCH  21  27
ATOM     22  C   UNL     1      -1.325  11.528  22.845  0.00  0.00    +0.000 C 
ATOM     23  C   UNL     1      -0.720  10.872  21.637  0.00  0.00    +0.000 A 
ATOM     24  C   UNL     1      -1.069  11.296  20.352  0.00  0.00    +0.000 A 
ATOM     25  C   UNL     1      -0.475  10.713  19.232  0.00  0.00    +0.000 A 
ATOM     26  C   UNL     1       0.477   9.707  19.389  0.00  0.00    +0.000 A 
ATOM     27  C   UNL     1       0.849   9.266  20.668  0.00  0.00    +0.000 A 
ATOM     28  C   UNL     1       0.245   9.866  21.785  0.00  0.00    +0.000 A 
ENDBRANCH  21  27
ENDBRANCH   1  21
TORSDOF 5
ENDMDL
MODEL 8
REMARK VINA RESULT:      -7.5      3.732      6.573
REMARK  Name = 
REMARK  7 active torsions:
REMARK  status: ('A' for Active; 'I' for Inactive)
REMARK    1  A    between atoms: C_1  and  C_2
REMARK    2  A    between atoms: C_6  and  C_7
REMARK    3  A    between atoms: C_7  and  N_8
REMARK    4  A    between atoms: C_11  and  N_12
REMARK    5  A    between atoms: N_12  and  C_13
REMARK    6  A    between atoms: C_13  and  C_14
REMARK    7  A    between atoms: C_19  and  C_20
REMARK                            x       y       z     vdW  Elec       q    Type
REMARK                         _______ _______ _______ _____ _____    ______ ____
ROOT
ATOM      1  N   UNL     1       1.071   8.463  20.447  0.00  0.00    +0.000 NA
ATOM      2  C   UNL     1       1.114   8.855  21.861  0.00  0.00    +0.000 C 
ATOM      3  C   UNL     1      -0.124   9.634  22.310  0.00  0.00    +0.000 C 
ATOM      4  C   UNL     1      -0.418  10.832  21.396  0.00  0.00    +0.000 C 
ATOM      5  C   UNL     1      -0.560  10.272  19.972  0.00  0.00    +0.000 C 
ATOM      6  C   UNL     1       0.707   9.541  19.527  0.00  0.00    +0.000 C 
ENDROOT
BRANCH   4   7
ATOM      7  N   UNL     1       0.604  11.900  21.551  0.00  0.00    +0.000 NA
ATOM      8  H   UNL     1       1.128  12.003  20.677  0.00  0.00    +0.000 HD
BRANCH   7   9
ATOM      9  C   UNL     1      -0.016  13.177  21.910  0.00  0.00    +0.000 C 
BRANCH   9  10
ATOM     10  C   UNL     1       0.490  14.418  21.150  0.00  0.00    +0.000 C 
ATOM     11  C   UNL     1      -0.135  14.518  19.749  0.00  0.00    +0.000 C 
ATOM     12  N   UNL     1       0.700  15.234  18.782  0.00  0.00    +0.000 N 
ATOM     13  C   UNL     1       2.037  15.031  18.792  0.00  0.00    +0.000 A 
ATOM     14  C   UNL     1       3.015  15.139  17.835  0.00  0.00    +0.000 A 
ATOM     15  C   UNL     1       4.221  14.794  18.503  0.00  0.00    +0.000 A 
ATOM     16  C   UNL     1       5.597  14.747  17.956  0.00  0.00    +0.000 C 
ATOM     17  N   UNL     1       4.005  14.482  19.788  0.00  0.00    +0.000 NA
ATOM     18  N   UNL     1       2.679  14.642  19.927  0.00  0.00    +0.000 N 
ATOM     19  C   UNL     1       2.031  14.334  21.171  0.00  0.00    +0.000 C 
ATOM     20  H   UNL     1       0.250  15.360  17.876  0.00  0.00    +0.000 HD
ENDBRANCH   9  10
ENDBRANCH   7   9
ENDBRANCH   4   7
BRANCH   1  21
ATOM     21  C   UNL     1       2.276   7.727  20.016  0.00  0.00    +0.000 C 
BRANCH  21  27
ATOM     22  C   UNL     1       1.269   2.922  21.224  0.00  0.00    +0.000 C 
ATOM     23  C   UNL     1       1.620   3.952  20.190  0.00  0.00    +0.000 A 
ATOM     24  C   UNL     1       1.718   3.598  18.841  0.00  0.00    +0.000 A 
ATOM     25  C   UNL     1       2.004   4.565  17.878  0.00  0.00    +0.000 A 
ATOM     26  C   UNL     1       2.187   5.895  18.253  0.00  0.00    +0.000 A 
ATOM     27  C   UNL     1       2.089   6.279  19.599  0.00  0.00    +0.000 A 
ATOM     28  C   UNL     1       1.796   5.293  20.557  0.00  0.00    +0.000 A 
ENDBRANCH  21  27
ENDBRANCH   1  21
TORSDOF 5
ENDMDL
MODEL 9
REMARK VINA RESULT:      -7.5      4.275      6.317
REMARK  Name = 
REMARK  7 active torsions:
REMARK  status: ('A' for Active; 'I' for Inactive)
REMARK    1  A    between atoms: C_1  and  C_2
REMARK    2  A    between atoms: C_6  and  C_7
REMARK    3  A    between atoms: C_7  and  N_8
REMARK    4  A    between atoms: C_11  and  N_12
REMARK    5  A    between atoms: N_12  and  C_13
REMARK    6  A    between atoms: C_13  and  C_14
REMARK    7  A    between atoms: C_19  and  C_20
REMARK                            x       y       z     vdW  Elec       q    Type
REMARK                         _______ _______ _______ _____ _____    ______ ____
ROOT
ATOM      1  N   UNL     1       1.454   8.142  19.451  0.00  0.00    +0.000 NA
ATOM      2  C   UNL     1       1.120   8.629  20.795  0.00  0.00    +0.000 C 
ATOM      3  C   UNL     1      -0.025   9.644  20.803  0.00  0.00    +0.000 C 
ATOM      4  C   UNL     1       0.217  10.799  19.822  0.00  0.00    +0.000 C 
ATOM      5  C   UNL     1       0.430  10.163  18.439  0.00  0.00    +0.000 C 
ATOM      6  C   UNL     1       1.610   9.192  18.444  0.00  0.00    +0.000 C 
ENDROOT
BRANCH   4   7
ATOM      7  N   UNL     1       1.319  11.684  20.283  0.00  0.00    +0.000 NA
ATOM      8  H   UNL     1       2.139  11.548  19.685  0.00  0.00    +0.000 HD
BRANCH   7   9
ATOM      9  C   UNL     1       0.915  13.091  20.257  0.00  0.00    +0.000 C 
BRANCH   9  10
ATOM     10  C   UNL     1       1.651  13.994  19.249  0.00  0.00    +0.000 C 
ATOM     11  C   UNL     1       2.474  13.170  18.245  0.00  0.00    +0.000 C 
ATOM     12  N   UNL     1       3.629  13.886  17.702  0.00  0.00    +0.000 N 
ATOM     13  C   UNL     1       4.363  14.669  18.526  0.00  0.00    +0.000 A 
ATOM     14  C   UNL     1       5.668  15.090  18.512  0.00  0.00    +0.000 A 
ATOM     15  C   UNL     1       5.802  15.909  19.667  0.00  0.00    +0.000 A 
ATOM     16  C   UNL     1       7.000  16.636  20.148  0.00  0.00    +0.000 C 
ATOM     17  N   UNL     1       4.657  15.983  20.358  0.00  0.00    +0.000 NA
ATOM     18  N   UNL     1       3.811  15.229  19.637  0.00  0.00    +0.000 N 
ATOM     19  C   UNL     1       2.468  14.997  20.092  0.00  0.00    +0.000 C 
ATOM     20  H   UNL     1       4.128  13.361  16.985  0.00  0.00    +0.000 HD
ENDBRANCH   9  10
ENDBRANCH   7   9
ENDBRANCH   4   7
BRANCH   1  21
ATOM     21  C   UNL     1       2.571   7.178  19.449  0.00  0.00    +0.000 C 
BRANCH  21  27
ATOM     22  C   UNL     1       1.427   2.741  21.585  0.00  0.00    +0.000 C 
ATOM     23  C   UNL     1       1.681   3.558  20.352  0.00  0.00    +0.000 A 
ATOM     24  C   UNL     1       1.535   2.991  19.082  0.00  0.00    +0.000 A 
ATOM     25  C   UNL     1       1.731   3.763  17.938  0.00  0.00    +0.000 A 
ATOM     26  C   UNL     1       2.068   5.111  18.053  0.00  0.00    +0.000 A 
ATOM     27  C   UNL     1       2.216   5.708  19.314  0.00  0.00    +0.000 A 
ATOM     28  C   UNL     1       2.010   4.916  20.457  0.00  0.00    +0.000 A 
ENDBRANCH  21  27
ENDBRANCH   1  21
TORSDOF 5
ENDMDL
