MODEL 1
REMARK VINA RESULT:      -8.0      0.000      0.000
REMARK  Name = 
REMARK  9 active torsions:
REMARK  status: ('A' for Active; 'I' for Inactive)
REMARK    1  A    between atoms: C_1  and  C_2
REMARK    2  A    between atoms: C_2  and  C_3
REMARK    3  A    between atoms: C_3  and  C_4
REMARK    4  A    between atoms: C_4  and  O_5
REMARK    5  A    between atoms: O_5  and  C_6
REMARK    6  A    between atoms: C_13  and  C_14
REMARK    7  A    between atoms: C_14  and  N_15
REMARK    8  A    between atoms: C_14  and  C_16
REMARK    9  A    between atoms: C_16  and  C_17
REMARK                            x       y       z     vdW  Elec       q    Type
REMARK                         _______ _______ _______ _____ _____    ______ ____
ROOT
ATOM      1  C   UNL     1       7.237   6.809  16.803  0.00  0.00    +0.000 A 
ATOM      2  C   UNL     1       5.986   6.944  17.356  0.00  0.00    +0.000 A 
ATOM      3  C   UNL     1       5.144   5.836  17.349  0.00  0.00    +0.000 A 
ATOM      4  C   UNL     1       5.590   4.628  16.828  0.00  0.00    +0.000 A 
ATOM      5  N   UNL     1       4.849   3.444  16.829  0.00  0.00    +0.000 N 
ATOM      6  C   UNL     1       3.879   3.117  17.706  0.00  0.00    +0.000 A 
ATOM      7  N   UNL     1       3.094   3.950  18.351  0.00  0.00    +0.000 NA
ATOM      8  C   UNL     1       2.282   3.287  19.260  0.00  0.00    +0.000 A 
ATOM      9  C   UNL     1       2.421   1.912  19.237  0.00  0.00    +0.000 A 
ATOM     10  S   UNL     1       3.595   1.454  18.078  0.00  0.00    +0.000 S 
ATOM     11  N   UNL     1       6.827   4.554  16.286  0.00  0.00    +0.000 NA
ATOM     12  N   UNL     1       7.660   5.645  16.276  0.00  0.00    +0.000 NA
ATOM     13  H   UNL     1       5.417   2.696  16.451  0.00  0.00    +0.000 HD
ENDROOT
BRANCH   1  14
ATOM     14  O   UNL     1       8.066   7.912  16.827  0.00  0.00    +0.000 OA
BRANCH  14  15
ATOM     15  C   UNL     1       8.254   8.401  18.156  0.00  0.00    +0.000 C 
BRANCH  15  16
ATOM     16  C   UNL     1       8.331   9.923  18.100  0.00  0.00    +0.000 C 
BRANCH  16  18
ATOM     17  C   UNL     1      10.403  11.305  18.481  0.00  0.00    +0.000 C 
ATOM     18  C   UNL     1       9.327  10.453  19.128  0.00  0.00    +0.000 C 
ENDBRANCH  16  18
ENDBRANCH  15  16
ENDBRANCH  14  15
ENDBRANCH   1  14
BRANCH   8  19
ATOM     19  C   UNL     1       1.344   4.127  20.088  0.00  0.00    +0.000 C 
BRANCH  19  20
ATOM     20  N   UNL     1       0.617   3.213  20.991  0.00  0.00    +0.000 NA
ATOM     21  H   UNL     1       0.615   2.277  20.589  0.00  0.00    +0.000 HD
ATOM     22  H   UNL     1      -0.362   3.508  20.993  0.00  0.00    +0.000 HD
ENDBRANCH  19  20
BRANCH  19  23
ATOM     23  C   UNL     1       2.012   5.260  20.891  0.00  0.00    +0.000 C 
BRANCH  23  24
ATOM     24  C   UNL     1       1.823   6.645  20.307  0.00  0.00    +0.000 A 
ATOM     25  C   UNL     1       2.321   6.970  19.034  0.00  0.00    +0.000 A 
ATOM     26  C   UNL     1       2.134   8.247  18.504  0.00  0.00    +0.000 A 
ATOM     27  C   UNL     1       1.447   9.200  19.243  0.00  0.00    +0.000 A 
ATOM     28  F   UNL     1       1.266  10.427  18.732  0.00  0.00    +0.000 F 
ATOM     29  C   UNL     1       0.933   8.898  20.498  0.00  0.00    +0.000 A 
ATOM     30  C   UNL     1       1.120   7.624  21.031  0.00  0.00    +0.000 A 
ENDBRANCH  23  24
ENDBRANCH  19  23
ENDBRANCH   8  19
TORSDOF 8
ENDMDL
MODEL 2
REMARK VINA RESULT:      -7.8      3.324      5.983
REMARK  Name = 
REMARK  9 active torsions:
REMARK  status: ('A' for Active; 'I' for Inactive)
REMARK    1  A    between atoms: C_1  and  C_2
REMARK    2  A    between atoms: C_2  and  C_3
REMARK    3  A    between atoms: C_3  and  C_4
REMARK    4  A    between atoms: C_4  and  O_5
REMARK    5  A    between atoms: O_5  and  C_6
REMARK    6  A    between atoms: C_13  and  C_14
REMARK    7  A    between atoms: C_14  and  N_15
REMARK    8  A    between atoms: C_14  and  C_16
REMARK    9  A    between atoms: C_16  and  C_17
REMARK                            x       y       z     vdW  Elec       q    Type
REMARK                         _______ _______ _______ _____ _____    ______ ____
ROOT
ATOM      1  C   UNL     1       1.218   9.463  18.958  0.00  0.00    +0.000 A 
ATOM      2  C   UNL     1       2.074   8.555  18.383  0.00  0.00    +0.000 A 
ATOM      3  C   UNL     1       2.409   7.418  19.112  0.00  0.00    +0.000 A 
ATOM      4  C   UNL     1       1.851   7.208  20.367  0.00  0.00    +0.000 A 
ATOM      5  N   UNL     1       2.071   6.075  21.152  0.00  0.00    +0.000 N 
ATOM      6  C   UNL     1       2.397   4.847  20.698  0.00  0.00    +0.000 A 
ATOM      7  N   UNL     1       3.059   4.571  19.597  0.00  0.00    +0.000 NA
ATOM      8  C   UNL     1       3.126   3.204  19.371  0.00  0.00    +0.000 A 
ATOM      9  C   UNL     1       2.555   2.441  20.372  0.00  0.00    +0.000 A 
ATOM     10  S   UNL     1       1.913   3.453  21.595  0.00  0.00    +0.000 S 
ATOM     11  N   UNL     1       1.022   8.141  20.890  0.00  0.00    +0.000 NA
ATOM     12  N   UNL     1       0.697   9.272  20.184  0.00  0.00    +0.000 NA
ATOM     13  H   UNL     1       1.504   6.134  21.989  0.00  0.00    +0.000 HD
ENDROOT
BRANCH   1  14
ATOM     14  O   UNL     1       0.886  10.581  18.220  0.00  0.00    +0.000 OA
BRANCH  14  15
ATOM     15  C   UNL     1       1.176  11.787  18.930  0.00  0.00    +0.000 C 
BRANCH  15  16
ATOM     16  C   UNL     1       2.413  12.424  18.308  0.00  0.00    +0.000 C 
BRANCH  16  18
ATOM     17  C   UNL     1       0.989  14.422  18.884  0.00  0.00    +0.000 C 
ATOM     18  C   UNL     1       2.354  13.945  18.420  0.00  0.00    +0.000 C 
ENDBRANCH  16  18
ENDBRANCH  15  16
ENDBRANCH  14  15
ENDBRANCH   1  14
BRANCH   8  19
ATOM     19  C   UNL     1       3.840   2.744  18.126  0.00  0.00    +0.000 C 
BRANCH  19  20
ATOM     20  N   UNL     1       3.180   1.505  17.672  0.00  0.00    +0.000 NA
ATOM     21  H   UNL     1       3.484   0.729  18.260  0.00  0.00    +0.000 HD
ATOM     22  H   UNL     1       3.541   1.295  16.740  0.00  0.00    +0.000 HD
ENDBRANCH  19  20
BRANCH  19  23
ATOM     23  C   UNL     1       3.896   3.775  16.982  0.00  0.00    +0.000 C 
BRANCH  23  24
ATOM     24  C   UNL     1       5.009   4.796  17.104  0.00  0.00    +0.000 A 
ATOM     25  C   UNL     1       4.808   6.136  16.731  0.00  0.00    +0.000 A 
ATOM     26  C   UNL     1       5.839   7.069  16.856  0.00  0.00    +0.000 A 
ATOM     27  C   UNL     1       7.069   6.665  17.356  0.00  0.00    +0.000 A 
ATOM     28  F   UNL     1       8.058   7.563  17.477  0.00  0.00    +0.000 F 
ATOM     29  C   UNL     1       7.286   5.349  17.745  0.00  0.00    +0.000 A 
ATOM     30  C   UNL     1       6.260   4.415  17.620  0.00  0.00    +0.000 A 
ENDBRANCH  23  24
ENDBRANCH  19  23
ENDBRANCH   8  19
TORSDOF 8
ENDMDL
MODEL 3
REMARK VINA RESULT:      -7.7      3.336      6.622
REMARK  Name = 
REMARK  9 active torsions:
REMARK  status: ('A' for Active; 'I' for Inactive)
REMARK    1  A    between atoms: C_1  and  C_2
REMARK    2  A    between atoms: C_2  and  C_3
REMARK    3  A    between atoms: C_3  and  C_4
REMARK    4  A    between atoms: C_4  and  O_5
REMARK    5  A    between atoms: O_5  and  C_6
REMARK    6  A    between atoms: C_13  and  C_14
REMARK    7  A    between atoms: C_14  and  N_15
REMARK    8  A    between atoms: C_14  and  C_16
REMARK    9  A    between atoms: C_16  and  C_17
REMARK                            x       y       z     vdW  Elec       q    Type
REMARK                         _______ _______ _______ _____ _____    ______ ____
ROOT
ATOM      1  C   UNL     1       1.086   9.483  19.122  0.00  0.00    +0.000 A 
ATOM      2  C   UNL     1       1.927   8.599  18.490  0.00  0.00    +0.000 A 
ATOM      3  C   UNL     1       2.304   7.449  19.177  0.00  0.00    +0.000 A 
ATOM      4  C   UNL     1       1.802   7.203  20.448  0.00  0.00    +0.000 A 
ATOM      5  N   UNL     1       2.067   6.054  21.196  0.00  0.00    +0.000 N 
ATOM      6  C   UNL     1       2.387   4.842  20.700  0.00  0.00    +0.000 A 
ATOM      7  N   UNL     1       3.005   4.599  19.566  0.00  0.00    +0.000 NA
ATOM      8  C   UNL     1       3.077   3.239  19.304  0.00  0.00    +0.000 A 
ATOM      9  C   UNL     1       2.556   2.446  20.309  0.00  0.00    +0.000 A 
ATOM     10  S   UNL     1       1.956   3.421  21.582  0.00  0.00    +0.000 S 
ATOM     11  N   UNL     1       0.986   8.113  21.028  0.00  0.00    +0.000 NA
ATOM     12  N   UNL     1       0.619   9.257  20.364  0.00  0.00    +0.000 NA
ATOM     13  H   UNL     1       1.536   6.087  22.057  0.00  0.00    +0.000 HD
ENDROOT
BRANCH   1  14
ATOM     14  O   UNL     1       0.712  10.614  18.425  0.00  0.00    +0.000 OA
BRANCH  14  15
ATOM     15  C   UNL     1      -0.687  10.613  18.132  0.00  0.00    +0.000 C 
BRANCH  15  16
ATOM     16  C   UNL     1      -1.218  12.029  18.322  0.00  0.00    +0.000 C 
BRANCH  16  18
ATOM     17  C   UNL     1      -1.877  13.143  20.484  0.00  0.00    +0.000 C 
ATOM     18  C   UNL     1      -2.232  12.079  19.461  0.00  0.00    +0.000 C 
ENDBRANCH  16  18
ENDBRANCH  15  16
ENDBRANCH  14  15
ENDBRANCH   1  14
BRANCH   8  19
ATOM     19  C   UNL     1       3.742   2.817  18.019  0.00  0.00    +0.000 C 
BRANCH  19  20
ATOM     20  N   UNL     1       2.983   1.669  17.487  0.00  0.00    +0.000 NA
ATOM     21  H   UNL     1       2.713   1.864  16.524  0.00  0.00    +0.000 HD
ATOM     22  H   UNL     1       2.106   1.620  18.008  0.00  0.00    +0.000 HD
ENDBRANCH  19  20
BRANCH  19  23
ATOM     23  C   UNL     1       3.870   3.921  16.952  0.00  0.00    +0.000 C 
BRANCH  23  24
ATOM     24  C   UNL     1       5.017   4.886  17.174  0.00  0.00    +0.000 A 
ATOM     25  C   UNL     1       6.241   4.448  17.707  0.00  0.00    +0.000 A 
ATOM     26  C   UNL     1       7.292   5.346  17.899  0.00  0.00    +0.000 A 
ATOM     27  C   UNL     1       7.123   6.680  17.555  0.00  0.00    +0.000 A 
ATOM     28  F   UNL     1       8.136   7.541  17.739  0.00  0.00    +0.000 F 
ATOM     29  C   UNL     1       5.928   7.133  17.012  0.00  0.00    +0.000 A 
ATOM     30  C   UNL     1       4.876   6.240  16.821  0.00  0.00    +0.000 A 
ENDBRANCH  23  24
ENDBRANCH  19  23
ENDBRANCH   8  19
TORSDOF 8
ENDMDL
MODEL 4
REMARK VINA RESULT:      -7.6      3.916      7.303
REMARK  Name = 
REMARK  9 active torsions:
REMARK  status: ('A' for Active; 'I' for Inactive)
REMARK    1  A    between atoms: C_1  and  C_2
REMARK    2  A    between atoms: C_2  and  C_3
REMARK    3  A    between atoms: C_3  and  C_4
REMARK    4  A    between atoms: C_4  and  O_5
REMARK    5  A    between atoms: O_5  and  C_6
REMARK    6  A    between atoms: C_13  and  C_14
REMARK    7  A    between atoms: C_14  and  N_15
REMARK    8  A    between atoms: C_14  and  C_16
REMARK    9  A    between atoms: C_16  and  C_17
REMARK                            x       y       z     vdW  Elec       q    Type
REMARK                         _______ _______ _______ _____ _____    ______ ____
ROOT
ATOM      1  C   UNL     1       0.981   9.436  19.018  0.00  0.00    +0.000 A 
ATOM      2  C   UNL     1       1.925   8.614  18.450  0.00  0.00    +0.000 A 
ATOM      3  C   UNL     1       2.333   7.493  19.167  0.00  0.00    +0.000 A 
ATOM      4  C   UNL     1       1.761   7.211  20.401  0.00  0.00    +0.000 A 
ATOM      5  N   UNL     1       2.053   6.083  21.170  0.00  0.00    +0.000 N 
ATOM      6  C   UNL     1       2.491   4.897  20.703  0.00  0.00    +0.000 A 
ATOM      7  N   UNL     1       3.203   4.699  19.616  0.00  0.00    +0.000 NA
ATOM      8  C   UNL     1       3.388   3.347  19.365  0.00  0.00    +0.000 A 
ATOM      9  C   UNL     1       2.856   2.519  20.335  0.00  0.00    +0.000 A 
ATOM     10  S   UNL     1       2.101   3.449  21.559  0.00  0.00    +0.000 S 
ATOM     11  N   UNL     1       0.844   8.061  20.918  0.00  0.00    +0.000 NA
ATOM     12  N   UNL     1       0.445   9.177  20.225  0.00  0.00    +0.000 NA
ATOM     13  H   UNL     1       1.461   6.078  21.992  0.00  0.00    +0.000 HD
ENDROOT
BRANCH   1  14
ATOM     14  O   UNL     1       0.578  10.538  18.293  0.00  0.00    +0.000 OA
BRANCH  14  15
ATOM     15  C   UNL     1      -0.807  10.825  18.495  0.00  0.00    +0.000 C 
BRANCH  15  16
ATOM     16  C   UNL     1      -1.589  10.285  17.302  0.00  0.00    +0.000 C 
BRANCH  16  18
ATOM     17  C   UNL     1      -4.034  10.687  16.848  0.00  0.00    +0.000 C 
ATOM     18  C   UNL     1      -3.022   9.946  17.702  0.00  0.00    +0.000 C 
ENDBRANCH  16  18
ENDBRANCH  15  16
ENDBRANCH  14  15
ENDBRANCH   1  14
BRANCH   8  19
ATOM     19  C   UNL     1       4.170   2.974  18.132  0.00  0.00    +0.000 C 
BRANCH  19  20
ATOM     20  N   UNL     1       3.986   1.527  17.915  0.00  0.00    +0.000 NA
ATOM     21  H   UNL     1       3.227   1.193  18.509  0.00  0.00    +0.000 HD
ATOM     22  H   UNL     1       4.826   1.060  18.264  0.00  0.00    +0.000 HD
ENDBRANCH  19  20
BRANCH  19  23
ATOM     23  C   UNL     1       3.805   3.762  16.859  0.00  0.00    +0.000 C 
BRANCH  23  24
ATOM     24  C   UNL     1       4.989   4.174  16.007  0.00  0.00    +0.000 A 
ATOM     25  C   UNL     1       5.063   3.821  14.650  0.00  0.00    +0.000 A 
ATOM     26  C   UNL     1       6.155   4.213  13.874  0.00  0.00    +0.000 A 
ATOM     27  C   UNL     1       7.171   4.960  14.453  0.00  0.00    +0.000 A 
ATOM     28  F   UNL     1       8.219   5.338  13.706  0.00  0.00    +0.000 F 
ATOM     29  C   UNL     1       7.113   5.333  15.790  0.00  0.00    +0.000 A 
ATOM     30  C   UNL     1       6.025   4.942  16.567  0.00  0.00    +0.000 A 
ENDBRANCH  23  24
ENDBRANCH  19  23
ENDBRANCH   8  19
TORSDOF 8
ENDMDL
MODEL 5
REMARK VINA RESULT:      -7.6      3.307      6.103
REMARK  Name = 
REMARK  9 active torsions:
REMARK  status: ('A' for Active; 'I' for Inactive)
REMARK    1  A    between atoms: C_1  and  C_2
REMARK    2  A    between atoms: C_2  and  C_3
REMARK    3  A    between atoms: C_3  and  C_4
REMARK    4  A    between atoms: C_4  and  O_5
REMARK    5  A    between atoms: O_5  and  C_6
REMARK    6  A    between atoms: C_13  and  C_14
REMARK    7  A    between atoms: C_14  and  N_15
REMARK    8  A    between atoms: C_14  and  C_16
REMARK    9  A    between atoms: C_16  and  C_17
REMARK                            x       y       z     vdW  Elec       q    Type
REMARK                         _______ _______ _______ _____ _____    ______ ____
ROOT
ATOM      1  C   UNL     1       1.350   9.390  18.897  0.00  0.00    +0.000 A 
ATOM      2  C   UNL     1       2.258   8.491  18.393  0.00  0.00    +0.000 A 
ATOM      3  C   UNL     1       2.546   7.358  19.149  0.00  0.00    +0.000 A 
ATOM      4  C   UNL     1       1.893   7.144  20.356  0.00  0.00    +0.000 A 
ATOM      5  N   UNL     1       2.062   6.013  21.158  0.00  0.00    +0.000 N 
ATOM      6  C   UNL     1       2.435   4.789  20.734  0.00  0.00    +0.000 A 
ATOM      7  N   UNL     1       3.185   4.518  19.689  0.00  0.00    +0.000 NA
ATOM      8  C   UNL     1       3.284   3.152  19.472  0.00  0.00    +0.000 A 
ATOM      9  C   UNL     1       2.643   2.384  20.426  0.00  0.00    +0.000 A 
ATOM     10  S   UNL     1       1.897   3.391  21.593  0.00  0.00    +0.000 S 
ATOM     11  N   UNL     1       1.016   8.068  20.811  0.00  0.00    +0.000 NA
ATOM     12  N   UNL     1       0.735   9.195  20.079  0.00  0.00    +0.000 NA
ATOM     13  H   UNL     1       1.431   6.068  21.948  0.00  0.00    +0.000 HD
ENDROOT
BRANCH   1  14
ATOM     14  O   UNL     1       1.065  10.503  18.133  0.00  0.00    +0.000 OA
BRANCH  14  15
ATOM     15  C   UNL     1       0.862  11.662  18.945  0.00  0.00    +0.000 C 
BRANCH  15  16
ATOM     16  C   UNL     1       1.775  12.771  18.434  0.00  0.00    +0.000 C 
BRANCH  16  18
ATOM     17  C   UNL     1      -0.080  14.445  18.762  0.00  0.00    +0.000 C 
ATOM     18  C   UNL     1       1.377  14.118  19.032  0.00  0.00    +0.000 C 
ENDBRANCH  16  18
ENDBRANCH  15  16
ENDBRANCH  14  15
ENDBRANCH   1  14
BRANCH   8  19
ATOM     19  C   UNL     1       4.098   2.698  18.288  0.00  0.00    +0.000 C 
BRANCH  19  20
ATOM     20  N   UNL     1       3.577   1.381  17.873  0.00  0.00    +0.000 NA
ATOM     21  H   UNL     1       2.670   1.227  18.312  0.00  0.00    +0.000 HD
ATOM     22  H   UNL     1       4.194   0.673  18.276  0.00  0.00    +0.000 HD
ENDBRANCH  19  20
BRANCH  19  23
ATOM     23  C   UNL     1       4.118   3.671  17.092  0.00  0.00    +0.000 C 
BRANCH  23  24
ATOM     24  C   UNL     1       5.167   4.760  17.180  0.00  0.00    +0.000 A 
ATOM     25  C   UNL     1       6.433   4.505  17.733  0.00  0.00    +0.000 A 
ATOM     26  C   UNL     1       7.394   5.515  17.801  0.00  0.00    +0.000 A 
ATOM     27  C   UNL     1       7.092   6.779  17.313  0.00  0.00    +0.000 A 
ATOM     28  F   UNL     1       8.018   7.748  17.377  0.00  0.00    +0.000 F 
ATOM     29  C   UNL     1       5.853   7.051  16.747  0.00  0.00    +0.000 A 
ATOM     30  C   UNL     1       4.891   6.045  16.680  0.00  0.00    +0.000 A 
ENDBRANCH  23  24
ENDBRANCH  19  23
ENDBRANCH   8  19
TORSDOF 8
ENDMDL
MODEL 6
REMARK VINA RESULT:      -7.4      3.343      6.555
REMARK  Name = 
REMARK  9 active torsions:
REMARK  status: ('A' for Active; 'I' for Inactive)
REMARK    1  A    between atoms: C_1  and  C_2
REMARK    2  A    between atoms: C_2  and  C_3
REMARK    3  A    between atoms: C_3  and  C_4
REMARK    4  A    between atoms: C_4  and  O_5
REMARK    5  A    between atoms: O_5  and  C_6
REMARK    6  A    between atoms: C_13  and  C_14
REMARK    7  A    between atoms: C_14  and  N_15
REMARK    8  A    between atoms: C_14  and  C_16
REMARK    9  A    between atoms: C_16  and  C_17
REMARK                            x       y       z     vdW  Elec       q    Type
REMARK                         _______ _______ _______ _____ _____    ______ ____
ROOT
ATOM      1  C   UNL     1       1.190   9.652  19.040  0.00  0.00    +0.000 A 
ATOM      2  C   UNL     1       1.804   8.678  18.290  0.00  0.00    +0.000 A 
ATOM      3  C   UNL     1       2.175   7.498  18.927  0.00  0.00    +0.000 A 
ATOM      4  C   UNL     1       1.889   7.316  20.274  0.00  0.00    +0.000 A 
ATOM      5  N   UNL     1       2.161   6.149  20.991  0.00  0.00    +0.000 N 
ATOM      6  C   UNL     1       2.255   4.906  20.477  0.00  0.00    +0.000 A 
ATOM      7  N   UNL     1       2.628   4.591  19.257  0.00  0.00    +0.000 NA
ATOM      8  C   UNL     1       2.507   3.229  19.021  0.00  0.00    +0.000 A 
ATOM      9  C   UNL     1       2.096   2.504  20.124  0.00  0.00    +0.000 A 
ATOM     10  S   UNL     1       1.844   3.546  21.458  0.00  0.00    +0.000 S 
ATOM     11  N   UNL     1       1.292   8.313  20.967  0.00  0.00    +0.000 NA
ATOM     12  N   UNL     1       0.935   9.486  20.351  0.00  0.00    +0.000 NA
ATOM     13  H   UNL     1       1.802   6.245  21.932  0.00  0.00    +0.000 HD
ENDROOT
BRANCH   1  14
ATOM     14  O   UNL     1       0.817  10.813  18.393  0.00  0.00    +0.000 OA
BRANCH  14  15
ATOM     15  C   UNL     1      -0.270  11.460  19.057  0.00  0.00    +0.000 C 
BRANCH  15  16
ATOM     16  C   UNL     1      -1.431  11.578  18.075  0.00  0.00    +0.000 C 
BRANCH  16  18
ATOM     17  C   UNL     1      -2.461   9.916  16.486  0.00  0.00    +0.000 C 
ATOM     18  C   UNL     1      -2.161  10.245  17.937  0.00  0.00    +0.000 C 
ENDBRANCH  16  18
ENDBRANCH  15  16
ENDBRANCH  14  15
ENDBRANCH   1  14
BRANCH   8  19
ATOM     19  C   UNL     1       2.880   2.730  17.649  0.00  0.00    +0.000 C 
BRANCH  19  20
ATOM     20  N   UNL     1       2.134   3.541  16.667  0.00  0.00    +0.000 NA
ATOM     21  H   UNL     1       1.183   3.683  17.005  0.00  0.00    +0.000 HD
ATOM     22  H   UNL     1       2.038   2.976  15.821  0.00  0.00    +0.000 HD
ENDBRANCH  19  20
BRANCH  19  23
ATOM     23  C   UNL     1       4.387   2.748  17.330  0.00  0.00    +0.000 C 
BRANCH  23  24
ATOM     24  C   UNL     1       5.021   4.124  17.348  0.00  0.00    +0.000 A 
ATOM     25  C   UNL     1       5.881   4.514  18.388  0.00  0.00    +0.000 A 
ATOM     26  C   UNL     1       6.465   5.781  18.389  0.00  0.00    +0.000 A 
ATOM     27  C   UNL     1       6.194   6.659  17.348  0.00  0.00    +0.000 A 
ATOM     28  F   UNL     1       6.757   7.876  17.349  0.00  0.00    +0.000 F 
ATOM     29  C   UNL     1       5.359   6.291  16.301  0.00  0.00    +0.000 A 
ATOM     30  C   UNL     1       4.772   5.027  16.299  0.00  0.00    +0.000 A 
ENDBRANCH  23  24
ENDBRANCH  19  23
ENDBRANCH   8  19
TORSDOF 8
ENDMDL
MODEL 7
REMARK VINA RESULT:      -7.3      4.354      6.661
REMARK  Name = 
REMARK  9 active torsions:
REMARK  status: ('A' for Active; 'I' for Inactive)
REMARK    1  A    between atoms: C_1  and  C_2
REMARK    2  A    between atoms: C_2  and  C_3
REMARK    3  A    between atoms: C_3  and  C_4
REMARK    4  A    between atoms: C_4  and  O_5
REMARK    5  A    between atoms: O_5  and  C_6
REMARK    6  A    between atoms: C_13  and  C_14
REMARK    7  A    between atoms: C_14  and  N_15
REMARK    8  A    between atoms: C_14  and  C_16
REMARK    9  A    between atoms: C_16  and  C_17
REMARK                            x       y       z     vdW  Elec       q    Type
REMARK                         _______ _______ _______ _____ _____    ______ ____
ROOT
ATOM      1  C   UNL     1       3.523   4.313  18.214  0.00  0.00    +0.000 A 
ATOM      2  C   UNL     1       2.724   5.315  17.718  0.00  0.00    +0.000 A 
ATOM      3  C   UNL     1       2.061   6.135  18.627  0.00  0.00    +0.000 A 
ATOM      4  C   UNL     1       2.248   5.951  19.992  0.00  0.00    +0.000 A 
ATOM      5  N   UNL     1       1.681   6.755  20.983  0.00  0.00    +0.000 N 
ATOM      6  C   UNL     1       1.314   8.045  20.845  0.00  0.00    +0.000 A 
ATOM      7  N   UNL     1       0.922   8.632  19.736  0.00  0.00    +0.000 NA
ATOM      8  C   UNL     1       0.727   9.993  19.921  0.00  0.00    +0.000 A 
ATOM      9  C   UNL     1       0.914  10.415  21.223  0.00  0.00    +0.000 A 
ATOM     10  S   UNL     1       1.356   9.093  22.217  0.00  0.00    +0.000 S 
ATOM     11  N   UNL     1       3.037   4.942  20.425  0.00  0.00    +0.000 NA
ATOM     12  N   UNL     1       3.684   4.120  19.537  0.00  0.00    +0.000 NA
ATOM     13  H   UNL     1       2.018   6.454  21.889  0.00  0.00    +0.000 HD
ENDROOT
BRANCH   1  14
ATOM     14  O   UNL     1       4.183   3.516  17.302  0.00  0.00    +0.000 OA
BRANCH  14  15
ATOM     15  C   UNL     1       5.364   4.149  16.806  0.00  0.00    +0.000 C 
BRANCH  15  16
ATOM     16  C   UNL     1       5.216   4.324  15.298  0.00  0.00    +0.000 C 
BRANCH  16  18
ATOM     17  C   UNL     1       6.607   4.044  13.215  0.00  0.00    +0.000 C 
ATOM     18  C   UNL     1       6.575   4.556  14.644  0.00  0.00    +0.000 C 
ENDBRANCH  16  18
ENDBRANCH  15  16
ENDBRANCH  14  15
ENDBRANCH   1  14
BRANCH   8  19
ATOM     19  C   UNL     1       0.297  10.797  18.721  0.00  0.00    +0.000 C 
BRANCH  19  20
ATOM     20  N   UNL     1       1.514  11.372  18.117  0.00  0.00    +0.000 NA
ATOM     21  H   UNL     1       1.668  10.945  17.204  0.00  0.00    +0.000 HD
ATOM     22  H   UNL     1       2.305  11.074  18.691  0.00  0.00    +0.000 HD
ENDBRANCH  19  20
BRANCH  19  23
ATOM     23  C   UNL     1      -0.515  10.021  17.666  0.00  0.00    +0.000 C 
BRANCH  23  24
ATOM     24  C   UNL     1      -1.915  10.550  17.428  0.00  0.00    +0.000 A 
ATOM     25  C   UNL     1      -2.633  11.188  18.453  0.00  0.00    +0.000 A 
ATOM     26  C   UNL     1      -3.918  11.678  18.220  0.00  0.00    +0.000 A 
ATOM     27  C   UNL     1      -4.486  11.534  16.962  0.00  0.00    +0.000 A 
ATOM     28  F   UNL     1      -5.721  12.007  16.738  0.00  0.00    +0.000 F 
ATOM     29  C   UNL     1      -3.790  10.920  15.928  0.00  0.00    +0.000 A 
ATOM     30  C   UNL     1      -2.507  10.428  16.159  0.00  0.00    +0.000 A 
ENDBRANCH  23  24
ENDBRANCH  19  23
ENDBRANCH   8  19
TORSDOF 8
ENDMDL
MODEL 8
REMARK VINA RESULT:      -7.3      3.888      6.510
REMARK  Name = 
REMARK  9 active torsions:
REMARK  status: ('A' for Active; 'I' for Inactive)
REMARK    1  A    between atoms: C_1  and  C_2
REMARK    2  A    between atoms: C_2  and  C_3
REMARK    3  A    between atoms: C_3  and  C_4
REMARK    4  A    between atoms: C_4  and  O_5
REMARK    5  A    between atoms: O_5  and  C_6
REMARK    6  A    between atoms: C_13  and  C_14
REMARK    7  A    between atoms: C_14  and  N_15
REMARK    8  A    between atoms: C_14  and  C_16
REMARK    9  A    between atoms: C_16  and  C_17
REMARK                            x       y       z     vdW  Elec       q    Type
REMARK                         _______ _______ _______ _____ _____    ______ ____
ROOT
ATOM      1  C   UNL     1       1.096   9.538  19.002  0.00  0.00    +0.000 A 
ATOM      2  C   UNL     1       2.026   8.691  18.450  0.00  0.00    +0.000 A 
ATOM      3  C   UNL     1       2.385   7.554  19.168  0.00  0.00    +0.000 A 
ATOM      4  C   UNL     1       1.778   7.283  20.388  0.00  0.00    +0.000 A 
ATOM      5  N   UNL     1       2.019   6.143  21.157  0.00  0.00    +0.000 N 
ATOM      6  C   UNL     1       2.432   4.946  20.691  0.00  0.00    +0.000 A 
ATOM      7  N   UNL     1       3.161   4.733  19.619  0.00  0.00    +0.000 NA
ATOM      8  C   UNL     1       3.312   3.378  19.364  0.00  0.00    +0.000 A 
ATOM      9  C   UNL     1       2.734   2.561  20.318  0.00  0.00    +0.000 A 
ATOM     10  S   UNL     1       1.980   3.506  21.530  0.00  0.00    +0.000 S 
ATOM     11  N   UNL     1       0.876   8.157  20.890  0.00  0.00    +0.000 NA
ATOM     12  N   UNL     1       0.526   9.288  20.196  0.00  0.00    +0.000 NA
ATOM     13  H   UNL     1       1.410   6.151  21.965  0.00  0.00    +0.000 HD
ENDROOT
BRANCH   1  14
ATOM     14  O   UNL     1       0.741  10.655  18.275  0.00  0.00    +0.000 OA
BRANCH  14  15
ATOM     15  C   UNL     1       0.018  11.596  19.071  0.00  0.00    +0.000 C 
BRANCH  15  16
ATOM     16  C   UNL     1       0.658  12.968  18.894  0.00  0.00    +0.000 C 
BRANCH  16  18
ATOM     17  C   UNL     1       3.006  13.872  18.758  0.00  0.00    +0.000 C 
ATOM     18  C   UNL     1       2.024  12.846  18.223  0.00  0.00    +0.000 C 
ENDBRANCH  16  18
ENDBRANCH  15  16
ENDBRANCH  14  15
ENDBRANCH   1  14
BRANCH   8  19
ATOM     19  C   UNL     1       4.109   2.988  18.146  0.00  0.00    +0.000 C 
BRANCH  19  20
ATOM     20  N   UNL     1       3.941   1.534  17.957  0.00  0.00    +0.000 NA
ATOM     21  H   UNL     1       3.257   1.186  18.628  0.00  0.00    +0.000 HD
ATOM     22  H   UNL     1       4.825   1.093  18.219  0.00  0.00    +0.000 HD
ENDBRANCH  19  20
BRANCH  19  23
ATOM     23  C   UNL     1       3.747   3.746  16.854  0.00  0.00    +0.000 C 
BRANCH  23  24
ATOM     24  C   UNL     1       4.936   4.178  16.020  0.00  0.00    +0.000 A 
ATOM     25  C   UNL     1       5.082   3.750  14.690  0.00  0.00    +0.000 A 
ATOM     26  C   UNL     1       6.178   4.161  13.929  0.00  0.00    +0.000 A 
ATOM     27  C   UNL     1       7.125   5.003  14.495  0.00  0.00    +0.000 A 
ATOM     28  F   UNL     1       8.176   5.399  13.761  0.00  0.00    +0.000 F 
ATOM     29  C   UNL     1       6.994   5.451  15.803  0.00  0.00    +0.000 A 
ATOM     30  C   UNL     1       5.903   5.041  16.566  0.00  0.00    +0.000 A 
ENDBRANCH  23  24
ENDBRANCH  19  23
ENDBRANCH   8  19
TORSDOF 8
ENDMDL
MODEL 9
REMARK VINA RESULT:      -7.2      4.307      6.180
REMARK  Name = 
REMARK  9 active torsions:
REMARK  status: ('A' for Active; 'I' for Inactive)
REMARK    1  A    between atoms: C_1  and  C_2
REMARK    2  A    between atoms: C_2  and  C_3
REMARK    3  A    between atoms: C_3  and  C_4
REMARK    4  A    between atoms: C_4  and  O_5
REMARK    5  A    between atoms: O_5  and  C_6
REMARK    6  A    between atoms: C_13  and  C_14
REMARK    7  A    between atoms: C_14  and  N_15
REMARK    8  A    between atoms: C_14  and  C_16
REMARK    9  A    between atoms: C_16  and  C_17
REMARK                            x       y       z     vdW  Elec       q    Type
REMARK                         _______ _______ _______ _____ _____    ______ ____
ROOT
ATOM      1  C   UNL     1       4.064   4.732  17.962  0.00  0.00    +0.000 A 
ATOM      2  C   UNL     1       3.180   5.678  17.503  0.00  0.00    +0.000 A 
ATOM      3  C   UNL     1       2.424   6.377  18.440  0.00  0.00    +0.000 A 
ATOM      4  C   UNL     1       2.604   6.137  19.797  0.00  0.00    +0.000 A 
ATOM      5  N   UNL     1       1.944   6.825  20.817  0.00  0.00    +0.000 N 
ATOM      6  C   UNL     1       1.456   8.079  20.740  0.00  0.00    +0.000 A 
ATOM      7  N   UNL     1       1.027   8.686  19.656  0.00  0.00    +0.000 NA
ATOM      8  C   UNL     1       0.696  10.010  19.909  0.00  0.00    +0.000 A 
ATOM      9  C   UNL     1       0.818  10.375  21.237  0.00  0.00    +0.000 A 
ATOM     10  S   UNL     1       1.371   9.048  22.167  0.00  0.00    +0.000 S 
ATOM     11  N   UNL     1       3.481   5.186  20.193  0.00  0.00    +0.000 NA
ATOM     12  N   UNL     1       4.221   4.482  19.276  0.00  0.00    +0.000 NA
ATOM     13  H   UNL     1       2.294   6.508  21.712  0.00  0.00    +0.000 HD
ENDROOT
BRANCH   1  14
ATOM     14  O   UNL     1       4.815   4.055  17.024  0.00  0.00    +0.000 OA
BRANCH  14  15
ATOM     15  C   UNL     1       5.434   4.949  16.097  0.00  0.00    +0.000 C 
BRANCH  15  16
ATOM     16  C   UNL     1       6.375   5.866  16.871  0.00  0.00    +0.000 C 
BRANCH  16  18
ATOM     17  C   UNL     1       7.779   5.593  18.946  0.00  0.00    +0.000 C 
ATOM     18  C   UNL     1       7.473   5.059  17.558  0.00  0.00    +0.000 C 
ENDBRANCH  16  18
ENDBRANCH  15  16
ENDBRANCH  14  15
ENDBRANCH   1  14
BRANCH   8  19
ATOM     19  C   UNL     1       0.209  10.834  18.745  0.00  0.00    +0.000 C 
BRANCH  19  20
ATOM     20  N   UNL     1       1.388  11.489  18.146  0.00  0.00    +0.000 NA
ATOM     21  H   UNL     1       1.076  12.189  17.474  0.00  0.00    +0.000 HD
ATOM     22  H   UNL     1       1.876  10.783  17.592  0.00  0.00    +0.000 HD
ENDBRANCH  19  20
BRANCH  19  23
ATOM     23  C   UNL     1      -0.579  10.057  17.673  0.00  0.00    +0.000 C 
BRANCH  23  24
ATOM     24  C   UNL     1      -1.978  10.578  17.413  0.00  0.00    +0.000 A 
ATOM     25  C   UNL     1      -2.607  10.382  16.173  0.00  0.00    +0.000 A 
ATOM     26  C   UNL     1      -3.899  10.860  15.949  0.00  0.00    +0.000 A 
ATOM     27  C   UNL     1      -4.564  11.531  16.964  0.00  0.00    +0.000 A 
ATOM     28  F   UNL     1      -5.807  11.989  16.748  0.00  0.00    +0.000 F 
ATOM     29  C   UNL     1      -3.969  11.725  18.205  0.00  0.00    +0.000 A 
ATOM     30  C   UNL     1      -2.679  11.251  18.431  0.00  0.00    +0.000 A 
ENDBRANCH  23  24
ENDBRANCH  19  23
ENDBRANCH   8  19
TORSDOF 8
ENDMDL
