MODEL 1
REMARK VINA RESULT:      -7.1      0.000      0.000
REMARK  Name = 
REMARK  10 active torsions:
REMARK  status: ('A' for Active; 'I' for Inactive)
REMARK    1  A    between atoms: C_1  and  C_2
REMARK    2  A    between atoms: C_4  and  N_5
REMARK    3  A    between atoms: N_5  and  C_6
REMARK    4  A    between atoms: C_6  and  N_8
REMARK    5  A    between atoms: N_8  and  C_9
REMARK    6  A    between atoms: N_8  and  C_18
REMARK    7  A    between atoms: C_9  and  C_10
REMARK    8  A    between atoms: C_10  and  C_11
REMARK    9  A    between atoms: C_11  and  N_12
REMARK   10  A    between atoms: C_18  and  C_19
REMARK                            x       y       z     vdW  Elec       q    Type
REMARK                         _______ _______ _______ _____ _____    ______ ____
ROOT
ATOM      1  N   UNL     1       5.394   5.170  16.277  0.00  0.00    +0.000 N 
ENDROOT
BRANCH   1   2
ATOM      2  C   UNL     1       5.395   6.490  16.804  0.00  0.00    +0.000 C 
ATOM      3  S   UNL     1       6.757   7.272  17.383  0.00  0.00    +0.000 S 
BRANCH   2   4
ATOM      4  N   UNL     1       4.099   7.014  16.809  0.00  0.00    +0.000 N 
ATOM      5  H   UNL     1       3.675   7.004  15.891  0.00  0.00    +0.000 HD
BRANCH   4   9
ATOM      6  C   UNL     1       0.815  10.312  18.641  0.00  0.00    +0.000 C 
ATOM      7  C   UNL     1       1.609   9.045  18.786  0.00  0.00    +0.000 A 
ATOM      8  C   UNL     1       2.497   8.673  17.758  0.00  0.00    +0.000 A 
ATOM      9  C   UNL     1       3.254   7.506  17.835  0.00  0.00    +0.000 A 
ATOM     10  C   UNL     1       3.117   6.693  18.967  0.00  0.00    +0.000 A 
ATOM     11  C   UNL     1       2.229   7.039  19.992  0.00  0.00    +0.000 A 
ATOM     12  C   UNL     1       1.476   8.207  19.900  0.00  0.00    +0.000 A 
ATOM     13 CL   UNL     1       0.379   8.569  21.183  0.00  0.00    +0.000 Cl
ENDBRANCH   4   9
ENDBRANCH   2   4
ENDBRANCH   1   2
BRANCH   1  14
ATOM     14  C   UNL     1       4.481   4.087  16.681  0.00  0.00    +0.000 C 
BRANCH  14  15
ATOM     15  C   UNL     1       4.802   3.116  17.819  0.00  0.00    +0.000 C 
BRANCH  15  16
ATOM     16  C   UNL     1       4.384   3.462  19.261  0.00  0.00    +0.000 C 
BRANCH  16  17
ATOM     17  N   UNL     1       3.367   2.485  19.692  0.00  0.00    +0.000 NA
ATOM     18  C   UNL     1       2.411   2.047  18.658  0.00  0.00    +0.000 C 
ATOM     19  C   UNL     1       1.156   2.917  18.557  0.00  0.00    +0.000 C 
ATOM     20  O   UNL     1       0.462   2.920  19.805  0.00  0.00    +0.000 OA
ATOM     21  C   UNL     1       1.293   3.491  20.821  0.00  0.00    +0.000 C 
ATOM     22  C   UNL     1       2.660   2.787  20.947  0.00  0.00    +0.000 C 
ENDBRANCH  16  17
ENDBRANCH  15  16
ENDBRANCH  14  15
ENDBRANCH   1  14
BRANCH   1  23
ATOM     23  C   UNL     1       6.604   4.708  15.545  0.00  0.00    +0.000 C 
BRANCH  23  24
ATOM     24  C   UNL     1       6.383   4.283  14.129  0.00  0.00    +0.000 A 
ATOM     25  C   UNL     1       5.456   3.523  13.441  0.00  0.00    +0.000 A 
ATOM     26  C   UNL     1       5.893   3.464  12.092  0.00  0.00    +0.000 A 
ATOM     27  C   UNL     1       7.067   4.175  12.040  0.00  0.00    +0.000 A 
ATOM     28  O   UNL     1       7.366   4.680  13.262  0.00  0.00    +0.000 OA
ENDBRANCH  23  24
ENDBRANCH   1  23
TORSDOF 9
ENDMDL
MODEL 2
REMARK VINA RESULT:      -7.1      1.404      1.927
REMARK  Name = 
REMARK  10 active torsions:
REMARK  status: ('A' for Active; 'I' for Inactive)
REMARK    1  A    between atoms: C_1  and  C_2
REMARK    2  A    between atoms: C_4  and  N_5
REMARK    3  A    between atoms: N_5  and  C_6
REMARK    4  A    between atoms: C_6  and  N_8
REMARK    5  A    between atoms: N_8  and  C_9
REMARK    6  A    between atoms: N_8  and  C_18
REMARK    7  A    between atoms: C_9  and  C_10
REMARK    8  A    between atoms: C_10  and  C_11
REMARK    9  A    between atoms: C_11  and  N_12
REMARK   10  A    between atoms: C_18  and  C_19
REMARK                            x       y       z     vdW  Elec       q    Type
REMARK                         _______ _______ _______ _____ _____    ______ ____
ROOT
ATOM      1  N   UNL     1       5.747   4.757  17.082  0.00  0.00    +0.000 N 
ENDROOT
BRANCH   1   2
ATOM      2  C   UNL     1       5.771   5.295  18.397  0.00  0.00    +0.000 C 
ATOM      3  S   UNL     1       7.170   5.695  19.225  0.00  0.00    +0.000 S 
BRANCH   2   4
ATOM      4  N   UNL     1       4.474   5.395  18.907  0.00  0.00    +0.000 N 
ATOM      5  H   UNL     1       4.188   4.561  19.404  0.00  0.00    +0.000 HD
BRANCH   4   9
ATOM      6  C   UNL     1       0.969   8.183  21.135  0.00  0.00    +0.000 C 
ATOM      7  C   UNL     1       1.820   7.872  19.937  0.00  0.00    +0.000 A 
ATOM      8  C   UNL     1       2.691   6.765  19.986  0.00  0.00    +0.000 A 
ATOM      9  C   UNL     1       3.508   6.432  18.908  0.00  0.00    +0.000 A 
ATOM     10  C   UNL     1       3.453   7.227  17.756  0.00  0.00    +0.000 A 
ATOM     11  C   UNL     1       2.605   8.339  17.694  0.00  0.00    +0.000 A 
ATOM     12  C   UNL     1       1.796   8.661  18.781  0.00  0.00    +0.000 A 
ATOM     13 CL   UNL     1       0.789  10.058  18.657  0.00  0.00    +0.000 Cl
ENDBRANCH   4   9
ENDBRANCH   2   4
ENDBRANCH   1   2
BRANCH   1  14
ATOM     14  C   UNL     1       4.629   4.008  16.483  0.00  0.00    +0.000 C 
BRANCH  14  15
ATOM     15  C   UNL     1       3.847   2.938  17.248  0.00  0.00    +0.000 C 
BRANCH  15  16
ATOM     16  C   UNL     1       2.318   3.061  17.388  0.00  0.00    +0.000 C 
BRANCH  16  17
ATOM     17  N   UNL     1       1.893   2.226  18.527  0.00  0.00    +0.000 NA
ATOM     18  C   UNL     1       0.625   2.612  19.173  0.00  0.00    +0.000 C 
ATOM     19  C   UNL     1       0.785   3.623  20.312  0.00  0.00    +0.000 C 
ATOM     20  O   UNL     1       1.636   3.087  21.326  0.00  0.00    +0.000 OA
ATOM     21  C   UNL     1       2.940   2.845  20.787  0.00  0.00    +0.000 C 
ATOM     22  C   UNL     1       2.918   1.933  19.542  0.00  0.00    +0.000 C 
ENDBRANCH  16  17
ENDBRANCH  15  16
ENDBRANCH  14  15
ENDBRANCH   1  14
BRANCH   1  23
ATOM     23  C   UNL     1       7.042   4.599  16.367  0.00  0.00    +0.000 C 
BRANCH  23  24
ATOM     24  C   UNL     1       6.958   4.536  14.875  0.00  0.00    +0.000 A 
ATOM     25  C   UNL     1       6.282   3.778  13.938  0.00  0.00    +0.000 A 
ATOM     26  C   UNL     1       6.727   4.209  12.662  0.00  0.00    +0.000 A 
ATOM     27  C   UNL     1       7.659   5.191  12.895  0.00  0.00    +0.000 A 
ATOM     28  O   UNL     1       7.798   5.401  14.228  0.00  0.00    +0.000 OA
ENDBRANCH  23  24
ENDBRANCH   1  23
TORSDOF 9
ENDMDL
MODEL 3
REMARK VINA RESULT:      -7.0      1.094      1.712
REMARK  Name = 
REMARK  10 active torsions:
REMARK  status: ('A' for Active; 'I' for Inactive)
REMARK    1  A    between atoms: C_1  and  C_2
REMARK    2  A    between atoms: C_4  and  N_5
REMARK    3  A    between atoms: N_5  and  C_6
REMARK    4  A    between atoms: C_6  and  N_8
REMARK    5  A    between atoms: N_8  and  C_9
REMARK    6  A    between atoms: N_8  and  C_18
REMARK    7  A    between atoms: C_9  and  C_10
REMARK    8  A    between atoms: C_10  and  C_11
REMARK    9  A    between atoms: C_11  and  N_12
REMARK   10  A    between atoms: C_18  and  C_19
REMARK                            x       y       z     vdW  Elec       q    Type
REMARK                         _______ _______ _______ _____ _____    ______ ____
ROOT
ATOM      1  N   UNL     1       6.257   5.331  17.723  0.00  0.00    +0.000 N 
ENDROOT
BRANCH   1   2
ATOM      2  C   UNL     1       5.916   6.679  17.428  0.00  0.00    +0.000 C 
ATOM      3  S   UNL     1       7.003   7.951  17.450  0.00  0.00    +0.000 S 
BRANCH   2   4
ATOM      4  N   UNL     1       4.548   6.789  17.166  0.00  0.00    +0.000 N 
ATOM      5  H   UNL     1       4.280   6.324  16.309  0.00  0.00    +0.000 HD
BRANCH   4   9
ATOM      6  C   UNL     1       1.382   7.009  21.033  0.00  0.00    +0.000 C 
ATOM      7  C   UNL     1       1.917   7.582  19.751  0.00  0.00    +0.000 A 
ATOM      8  C   UNL     1       2.931   6.888  19.061  0.00  0.00    +0.000 A 
ATOM      9  C   UNL     1       3.468   7.375  17.872  0.00  0.00    +0.000 A 
ATOM     10  C   UNL     1       2.981   8.586  17.364  0.00  0.00    +0.000 A 
ATOM     11  C   UNL     1       1.984   9.297  18.043  0.00  0.00    +0.000 A 
ATOM     12  C   UNL     1       1.458   8.799  19.232  0.00  0.00    +0.000 A 
ATOM     13 CL   UNL     1       0.249   9.732  20.038  0.00  0.00    +0.000 Cl
ENDBRANCH   4   9
ENDBRANCH   2   4
ENDBRANCH   1   2
BRANCH   1  14
ATOM     14  C   UNL     1       5.977   4.633  18.990  0.00  0.00    +0.000 C 
BRANCH  14  15
ATOM     15  C   UNL     1       4.587   4.106  19.352  0.00  0.00    +0.000 C 
BRANCH  15  16
ATOM     16  C   UNL     1       3.952   2.981  18.512  0.00  0.00    +0.000 C 
BRANCH  16  17
ATOM     17  N   UNL     1       3.108   2.163  19.403  0.00  0.00    +0.000 NA
ATOM     18  C   UNL     1       1.682   2.073  19.040  0.00  0.00    +0.000 C 
ATOM     19  C   UNL     1       0.809   3.170  19.653  0.00  0.00    +0.000 C 
ATOM     20  O   UNL     1       0.891   3.121  21.078  0.00  0.00    +0.000 OA
ATOM     21  C   UNL     1       2.238   3.368  21.496  0.00  0.00    +0.000 C 
ATOM     22  C   UNL     1       3.256   2.405  20.847  0.00  0.00    +0.000 C 
ENDBRANCH  16  17
ENDBRANCH  15  16
ENDBRANCH  14  15
ENDBRANCH   1  14
BRANCH   1  23
ATOM     23  C   UNL     1       7.282   4.667  16.873  0.00  0.00    +0.000 C 
BRANCH  23  24
ATOM     24  C   UNL     1       6.924   4.504  15.431  0.00  0.00    +0.000 A 
ATOM     25  C   UNL     1       6.005   3.775  14.699  0.00  0.00    +0.000 A 
ATOM     26  C   UNL     1       6.262   4.046  13.330  0.00  0.00    +0.000 A 
ATOM     27  C   UNL     1       7.331   4.908  13.306  0.00  0.00    +0.000 A 
ATOM     28  O   UNL     1       7.732   5.197  14.569  0.00  0.00    +0.000 OA
ENDBRANCH  23  24
ENDBRANCH   1  23
TORSDOF 9
ENDMDL
MODEL 4
REMARK VINA RESULT:      -7.0      2.621      5.800
REMARK  Name = 
REMARK  10 active torsions:
REMARK  status: ('A' for Active; 'I' for Inactive)
REMARK    1  A    between atoms: C_1  and  C_2
REMARK    2  A    between atoms: C_4  and  N_5
REMARK    3  A    between atoms: N_5  and  C_6
REMARK    4  A    between atoms: C_6  and  N_8
REMARK    5  A    between atoms: N_8  and  C_9
REMARK    6  A    between atoms: N_8  and  C_18
REMARK    7  A    between atoms: C_9  and  C_10
REMARK    8  A    between atoms: C_10  and  C_11
REMARK    9  A    between atoms: C_11  and  N_12
REMARK   10  A    between atoms: C_18  and  C_19
REMARK                            x       y       z     vdW  Elec       q    Type
REMARK                         _______ _______ _______ _____ _____    ______ ____
ROOT
ATOM      1  N   UNL     1       2.696   6.511  18.525  0.00  0.00    +0.000 N 
ENDROOT
BRANCH   1   2
ATOM      2  C   UNL     1       2.209   7.822  18.778  0.00  0.00    +0.000 C 
ATOM      3  S   UNL     1       2.227   9.065  17.657  0.00  0.00    +0.000 S 
BRANCH   2   4
ATOM      4  N   UNL     1       1.761   7.929  20.097  0.00  0.00    +0.000 N 
ATOM      5  H   UNL     1       2.098   7.176  20.682  0.00  0.00    +0.000 HD
BRANCH   4   9
ATOM      6  C   UNL     1      -1.440  11.771  20.206  0.00  0.00    +0.000 C 
ATOM      7  C   UNL     1      -0.622  10.735  20.923  0.00  0.00    +0.000 A 
ATOM      8  C   UNL     1       0.202   9.874  20.172  0.00  0.00    +0.000 A 
ATOM      9  C   UNL     1       0.978   8.892  20.782  0.00  0.00    +0.000 A 
ATOM     10  C   UNL     1       0.924   8.767  22.176  0.00  0.00    +0.000 A 
ATOM     11  C   UNL     1       0.101   9.603  22.937  0.00  0.00    +0.000 A 
ATOM     12  C   UNL     1      -0.672  10.580  22.313  0.00  0.00    +0.000 A 
ATOM     13 CL   UNL     1      -1.688  11.565  23.302  0.00  0.00    +0.000 Cl
ENDBRANCH   4   9
ENDBRANCH   2   4
ENDBRANCH   1   2
BRANCH   1  14
ATOM     14  C   UNL     1       4.082   6.166  18.165  0.00  0.00    +0.000 C 
BRANCH  14  15
ATOM     15  C   UNL     1       5.081   5.598  19.175  0.00  0.00    +0.000 C 
BRANCH  15  16
ATOM     16  C   UNL     1       5.768   4.247  18.895  0.00  0.00    +0.000 C 
BRANCH  16  17
ATOM     17  N   UNL     1       7.076   4.517  18.271  0.00  0.00    +0.000 NA
ATOM     18  C   UNL     1       7.742   5.767  18.679  0.00  0.00    +0.000 C 
ATOM     19  C   UNL     1       7.377   6.981  17.822  0.00  0.00    +0.000 C 
ATOM     20  O   UNL     1       7.723   6.739  16.458  0.00  0.00    +0.000 OA
ATOM     21  C   UNL     1       6.976   5.625  15.957  0.00  0.00    +0.000 C 
ATOM     22  C   UNL     1       7.150   4.350  16.810  0.00  0.00    +0.000 C 
ENDBRANCH  16  17
ENDBRANCH  15  16
ENDBRANCH  14  15
ENDBRANCH   1  14
BRANCH   1  23
ATOM     23  C   UNL     1       1.705   5.440  18.234  0.00  0.00    +0.000 C 
BRANCH  23  24
ATOM     24  C   UNL     1       1.609   4.349  19.252  0.00  0.00    +0.000 A 
ATOM     25  C   UNL     1       1.073   4.202  20.518  0.00  0.00    +0.000 A 
ATOM     26  C   UNL     1       1.406   2.893  20.955  0.00  0.00    +0.000 A 
ATOM     27  C   UNL     1       2.137   2.327  19.939  0.00  0.00    +0.000 A 
ATOM     28  O   UNL     1       2.257   3.195  18.904  0.00  0.00    +0.000 OA
ENDBRANCH  23  24
ENDBRANCH   1  23
TORSDOF 9
ENDMDL
MODEL 5
REMARK VINA RESULT:      -6.9      2.845      5.283
REMARK  Name = 
REMARK  10 active torsions:
REMARK  status: ('A' for Active; 'I' for Inactive)
REMARK    1  A    between atoms: C_1  and  C_2
REMARK    2  A    between atoms: C_4  and  N_5
REMARK    3  A    between atoms: N_5  and  C_6
REMARK    4  A    between atoms: C_6  and  N_8
REMARK    5  A    between atoms: N_8  and  C_9
REMARK    6  A    between atoms: N_8  and  C_18
REMARK    7  A    between atoms: C_9  and  C_10
REMARK    8  A    between atoms: C_10  and  C_11
REMARK    9  A    between atoms: C_11  and  N_12
REMARK   10  A    between atoms: C_18  and  C_19
REMARK                            x       y       z     vdW  Elec       q    Type
REMARK                         _______ _______ _______ _____ _____    ______ ____
ROOT
ATOM      1  N   UNL     1       3.176   6.155  19.259  0.00  0.00    +0.000 N 
ENDROOT
BRANCH   1   2
ATOM      2  C   UNL     1       2.110   6.193  20.199  0.00  0.00    +0.000 C 
ATOM      3  S   UNL     1       0.975   4.976  20.383  0.00  0.00    +0.000 S 
BRANCH   2   4
ATOM      4  N   UNL     1       2.123   7.399  20.904  0.00  0.00    +0.000 N 
ATOM      5  H   UNL     1       2.920   7.477  21.522  0.00  0.00    +0.000 HD
BRANCH   4   9
ATOM      6  C   UNL     1      -0.526  10.931  18.552  0.00  0.00    +0.000 C 
ATOM      7  C   UNL     1      -0.077  10.267  19.823  0.00  0.00    +0.000 A 
ATOM      8  C   UNL     1       0.834   9.196  19.750  0.00  0.00    +0.000 A 
ATOM      9  C   UNL     1       1.281   8.539  20.894  0.00  0.00    +0.000 A 
ATOM     10  C   UNL     1       0.801   8.964  22.140  0.00  0.00    +0.000 A 
ATOM     11  C   UNL     1      -0.117  10.017  22.231  0.00  0.00    +0.000 A 
ATOM     12  C   UNL     1      -0.556  10.663  21.078  0.00  0.00    +0.000 A 
ATOM     13 CL   UNL     1      -1.707  11.938  21.250  0.00  0.00    +0.000 Cl
ENDBRANCH   4   9
ENDBRANCH   2   4
ENDBRANCH   1   2
BRANCH   1  14
ATOM     14  C   UNL     1       3.230   6.909  17.995  0.00  0.00    +0.000 C 
BRANCH  14  15
ATOM     15  C   UNL     1       4.547   7.322  17.335  0.00  0.00    +0.000 C 
BRANCH  15  16
ATOM     16  C   UNL     1       5.067   6.543  16.111  0.00  0.00    +0.000 C 
BRANCH  16  17
ATOM     17  N   UNL     1       6.531   6.415  16.236  0.00  0.00    +0.000 NA
ATOM     18  C   UNL     1       7.081   5.062  16.039  0.00  0.00    +0.000 C 
ATOM     19  C   UNL     1       7.161   4.225  17.318  0.00  0.00    +0.000 C 
ATOM     20  O   UNL     1       7.984   4.884  18.282  0.00  0.00    +0.000 OA
ATOM     21  C   UNL     1       7.404   6.144  18.635  0.00  0.00    +0.000 C 
ATOM     22  C   UNL     1       7.145   7.051  17.413  0.00  0.00    +0.000 C 
ENDBRANCH  16  17
ENDBRANCH  15  16
ENDBRANCH  14  15
ENDBRANCH   1  14
BRANCH   1  23
ATOM     23  C   UNL     1       4.140   5.026  19.340  0.00  0.00    +0.000 C 
BRANCH  23  24
ATOM     24  C   UNL     1       3.724   3.765  18.653  0.00  0.00    +0.000 A 
ATOM     25  C   UNL     1       3.031   3.428  17.505  0.00  0.00    +0.000 A 
ATOM     26  C   UNL     1       2.931   2.013  17.486  0.00  0.00    +0.000 A 
ATOM     27  C   UNL     1       3.553   1.572  18.628  0.00  0.00    +0.000 A 
ATOM     28  O   UNL     1       4.042   2.621  19.334  0.00  0.00    +0.000 OA
ENDBRANCH  23  24
ENDBRANCH   1  23
TORSDOF 9
ENDMDL
MODEL 6
REMARK VINA RESULT:      -6.9      2.780      5.984
REMARK  Name = 
REMARK  10 active torsions:
REMARK  status: ('A' for Active; 'I' for Inactive)
REMARK    1  A    between atoms: C_1  and  C_2
REMARK    2  A    between atoms: C_4  and  N_5
REMARK    3  A    between atoms: N_5  and  C_6
REMARK    4  A    between atoms: C_6  and  N_8
REMARK    5  A    between atoms: N_8  and  C_9
REMARK    6  A    between atoms: N_8  and  C_18
REMARK    7  A    between atoms: C_9  and  C_10
REMARK    8  A    between atoms: C_10  and  C_11
REMARK    9  A    between atoms: C_11  and  N_12
REMARK   10  A    between atoms: C_18  and  C_19
REMARK                            x       y       z     vdW  Elec       q    Type
REMARK                         _______ _______ _______ _____ _____    ______ ____
ROOT
ATOM      1  N   UNL     1       2.404   6.449  20.004  0.00  0.00    +0.000 N 
ENDROOT
BRANCH   1   2
ATOM      2  C   UNL     1       1.975   7.799  19.886  0.00  0.00    +0.000 C 
ATOM      3  S   UNL     1       1.817   8.612  18.432  0.00  0.00    +0.000 S 
BRANCH   2   4
ATOM      4  N   UNL     1       1.752   8.353  21.150  0.00  0.00    +0.000 N 
ATOM      5  H   UNL     1       2.324   7.923  21.866  0.00  0.00    +0.000 HD
BRANCH   4   9
ATOM      6  C   UNL     1      -0.187  12.949  20.783  0.00  0.00    +0.000 C 
ATOM      7  C   UNL     1      -0.098  11.624  21.485  0.00  0.00    +0.000 A 
ATOM      8  C   UNL     1       0.811  10.658  21.010  0.00  0.00    +0.000 A 
ATOM      9  C   UNL     1       0.932   9.410  21.617  0.00  0.00    +0.000 A 
ATOM     10  C   UNL     1       0.121   9.122  22.722  0.00  0.00    +0.000 A 
ATOM     11  C   UNL     1      -0.798  10.063  23.199  0.00  0.00    +0.000 A 
ATOM     12  C   UNL     1      -0.910  11.306  22.580  0.00  0.00    +0.000 A 
ATOM     13 CL   UNL     1      -2.080  12.417  23.196  0.00  0.00    +0.000 Cl
ENDBRANCH   4   9
ENDBRANCH   2   4
ENDBRANCH   1   2
BRANCH   1  14
ATOM     14  C   UNL     1       3.467   5.815  19.206  0.00  0.00    +0.000 C 
BRANCH  14  15
ATOM     15  C   UNL     1       3.321   5.536  17.709  0.00  0.00    +0.000 C 
BRANCH  15  16
ATOM     16  C   UNL     1       4.051   4.334  17.080  0.00  0.00    +0.000 C 
BRANCH  16  17
ATOM     17  N   UNL     1       5.087   4.851  16.167  0.00  0.00    +0.000 NA
ATOM     18  C   UNL     1       6.372   4.129  16.172  0.00  0.00    +0.000 C 
ATOM     19  C   UNL     1       7.382   4.656  17.195  0.00  0.00    +0.000 C 
ATOM     20  O   UNL     1       7.666   6.031  16.938  0.00  0.00    +0.000 OA
ATOM     21  C   UNL     1       6.472   6.809  17.082  0.00  0.00    +0.000 C 
ATOM     22  C   UNL     1       5.315   6.305  16.193  0.00  0.00    +0.000 C 
ENDBRANCH  16  17
ENDBRANCH  15  16
ENDBRANCH  14  15
ENDBRANCH   1  14
BRANCH   1  23
ATOM     23  C   UNL     1       1.508   5.489  20.701  0.00  0.00    +0.000 C 
BRANCH  23  24
ATOM     24  C   UNL     1       1.571   4.074  20.221  0.00  0.00    +0.000 A 
ATOM     25  C   UNL     1       2.248   2.923  20.575  0.00  0.00    +0.000 A 
ATOM     26  C   UNL     1       1.884   1.926  19.633  0.00  0.00    +0.000 A 
ATOM     27  C   UNL     1       1.022   2.531  18.752  0.00  0.00    +0.000 A 
ATOM     28  O   UNL     1       0.820   3.825  19.104  0.00  0.00    +0.000 OA
ENDBRANCH  23  24
ENDBRANCH   1  23
TORSDOF 9
ENDMDL
MODEL 7
REMARK VINA RESULT:      -6.8      2.465      5.108
REMARK  Name = 
REMARK  10 active torsions:
REMARK  status: ('A' for Active; 'I' for Inactive)
REMARK    1  A    between atoms: C_1  and  C_2
REMARK    2  A    between atoms: C_4  and  N_5
REMARK    3  A    between atoms: N_5  and  C_6
REMARK    4  A    between atoms: C_6  and  N_8
REMARK    5  A    between atoms: N_8  and  C_9
REMARK    6  A    between atoms: N_8  and  C_18
REMARK    7  A    between atoms: C_9  and  C_10
REMARK    8  A    between atoms: C_10  and  C_11
REMARK    9  A    between atoms: C_11  and  N_12
REMARK   10  A    between atoms: C_18  and  C_19
REMARK                            x       y       z     vdW  Elec       q    Type
REMARK                         _______ _______ _______ _____ _____    ______ ____
ROOT
ATOM      1  N   UNL     1       5.507   6.115  17.807  0.00  0.00    +0.000 N 
ENDROOT
BRANCH   1   2
ATOM      2  C   UNL     1       6.288   5.246  18.616  0.00  0.00    +0.000 C 
ATOM      3  S   UNL     1       7.663   5.716  19.446  0.00  0.00    +0.000 S 
BRANCH   2   4
ATOM      4  N   UNL     1       5.771   3.948  18.579  0.00  0.00    +0.000 N 
ATOM      5  H   UNL     1       6.485   3.252  18.405  0.00  0.00    +0.000 HD
BRANCH   4   9
ATOM      6  C   UNL     1       1.755   3.002  21.406  0.00  0.00    +0.000 C 
ATOM      7  C   UNL     1       2.453   2.956  20.077  0.00  0.00    +0.000 A 
ATOM      8  C   UNL     1       3.779   3.426  19.984  0.00  0.00    +0.000 A 
ATOM      9  C   UNL     1       4.474   3.413  18.778  0.00  0.00    +0.000 A 
ATOM     10  C   UNL     1       3.826   2.922  17.637  0.00  0.00    +0.000 A 
ATOM     11  C   UNL     1       2.505   2.465  17.706  0.00  0.00    +0.000 A 
ATOM     12  C   UNL     1       1.821   2.486  18.920  0.00  0.00    +0.000 A 
ATOM     13 CL   UNL     1       0.186   1.933  18.939  0.00  0.00    +0.000 Cl
ENDBRANCH   4   9
ENDBRANCH   2   4
ENDBRANCH   1   2
BRANCH   1  14
ATOM     14  C   UNL     1       4.050   6.306  17.916  0.00  0.00    +0.000 C 
BRANCH  14  15
ATOM     15  C   UNL     1       3.388   7.682  17.812  0.00  0.00    +0.000 C 
BRANCH  15  16
ATOM     16  C   UNL     1       1.911   7.853  18.214  0.00  0.00    +0.000 C 
BRANCH  16  17
ATOM     17  N   UNL     1       1.775   9.134  18.931  0.00  0.00    +0.000 NA
ATOM     18  C   UNL     1       1.447   9.039  20.366  0.00  0.00    +0.000 C 
ATOM     19  C   UNL     1      -0.053   9.012  20.665  0.00  0.00    +0.000 C 
ATOM     20  O   UNL     1      -0.674  10.196  20.163  0.00  0.00    +0.000 OA
ATOM     21  C   UNL     1      -0.527  10.255  18.740  0.00  0.00    +0.000 C 
ATOM     22  C   UNL     1       0.944  10.162  18.283  0.00  0.00    +0.000 C 
ENDBRANCH  16  17
ENDBRANCH  15  16
ENDBRANCH  14  15
ENDBRANCH   1  14
BRANCH   1  23
ATOM     23  C   UNL     1       6.093   6.596  16.528  0.00  0.00    +0.000 C 
BRANCH  23  24
ATOM     24  C   UNL     1       6.156   5.591  15.423  0.00  0.00    +0.000 A 
ATOM     25  C   UNL     1       5.363   4.559  14.956  0.00  0.00    +0.000 A 
ATOM     26  C   UNL     1       6.068   3.950  13.887  0.00  0.00    +0.000 A 
ATOM     27  C   UNL     1       7.255   4.632  13.775  0.00  0.00    +0.000 A 
ATOM     28  O   UNL     1       7.313   5.630  14.692  0.00  0.00    +0.000 OA
ENDBRANCH  23  24
ENDBRANCH   1  23
TORSDOF 9
ENDMDL
MODEL 8
REMARK VINA RESULT:      -6.8      1.270      1.800
REMARK  Name = 
REMARK  10 active torsions:
REMARK  status: ('A' for Active; 'I' for Inactive)
REMARK    1  A    between atoms: C_1  and  C_2
REMARK    2  A    between atoms: C_4  and  N_5
REMARK    3  A    between atoms: N_5  and  C_6
REMARK    4  A    between atoms: C_6  and  N_8
REMARK    5  A    between atoms: N_8  and  C_9
REMARK    6  A    between atoms: N_8  and  C_18
REMARK    7  A    between atoms: C_9  and  C_10
REMARK    8  A    between atoms: C_10  and  C_11
REMARK    9  A    between atoms: C_11  and  N_12
REMARK   10  A    between atoms: C_18  and  C_19
REMARK                            x       y       z     vdW  Elec       q    Type
REMARK                         _______ _______ _______ _____ _____    ______ ____
ROOT
ATOM      1  N   UNL     1       5.400   4.859  17.736  0.00  0.00    +0.000 N 
ENDROOT
BRANCH   1   2
ATOM      2  C   UNL     1       4.977   6.208  17.882  0.00  0.00    +0.000 C 
ATOM      3  S   UNL     1       5.854   7.531  17.351  0.00  0.00    +0.000 S 
BRANCH   2   4
ATOM      4  N   UNL     1       3.759   6.267  18.565  0.00  0.00    +0.000 N 
ATOM      5  H   UNL     1       3.535   5.396  19.029  0.00  0.00    +0.000 HD
BRANCH   4   9
ATOM      6  C   UNL     1       0.575   8.844  21.435  0.00  0.00    +0.000 C 
ATOM      7  C   UNL     1       1.274   8.641  20.121  0.00  0.00    +0.000 A 
ATOM      8  C   UNL     1       2.133   7.534  19.966  0.00  0.00    +0.000 A 
ATOM      9  C   UNL     1       2.811   7.299  18.773  0.00  0.00    +0.000 A 
ATOM     10  C   UNL     1       2.628   8.194  17.711  0.00  0.00    +0.000 A 
ATOM     11  C   UNL     1       1.790   9.306  17.851  0.00  0.00    +0.000 A 
ATOM     12  C   UNL     1       1.120   9.530  19.051  0.00  0.00    +0.000 A 
ATOM     13 CL   UNL     1       0.120  10.933  19.173  0.00  0.00    +0.000 Cl
ENDBRANCH   4   9
ENDBRANCH   2   4
ENDBRANCH   1   2
BRANCH   1  14
ATOM     14  C   UNL     1       4.873   3.710  18.492  0.00  0.00    +0.000 C 
BRANCH  14  15
ATOM     15  C   UNL     1       3.762   2.805  17.954  0.00  0.00    +0.000 C 
BRANCH  15  16
ATOM     16  C   UNL     1       3.389   1.517  18.712  0.00  0.00    +0.000 C 
BRANCH  16  17
ATOM     17  N   UNL     1       2.111   1.747  19.410  0.00  0.00    +0.000 NA
ATOM     18  C   UNL     1       1.067   2.443  18.635  0.00  0.00    +0.000 C 
ATOM     19  C   UNL     1       1.108   3.968  18.757  0.00  0.00    +0.000 C 
ATOM     20  O   UNL     1       0.954   4.354  20.123  0.00  0.00    +0.000 OA
ATOM     21  C   UNL     1       2.039   3.837  20.900  0.00  0.00    +0.000 C 
ATOM     22  C   UNL     1       2.199   2.307  20.768  0.00  0.00    +0.000 C 
ENDBRANCH  16  17
ENDBRANCH  15  16
ENDBRANCH  14  15
ENDBRANCH   1  14
BRANCH   1  23
ATOM     23  C   UNL     1       6.699   4.601  17.060  0.00  0.00    +0.000 C 
BRANCH  23  24
ATOM     24  C   UNL     1       6.644   4.471  15.572  0.00  0.00    +0.000 A 
ATOM     25  C   UNL     1       5.935   3.718  14.655  0.00  0.00    +0.000 A 
ATOM     26  C   UNL     1       6.439   4.052  13.372  0.00  0.00    +0.000 A 
ATOM     27  C   UNL     1       7.435   4.974  13.581  0.00  0.00    +0.000 A 
ATOM     28  O   UNL     1       7.560   5.240  14.905  0.00  0.00    +0.000 OA
ENDBRANCH  23  24
ENDBRANCH   1  23
TORSDOF 9
ENDMDL
MODEL 9
REMARK VINA RESULT:      -6.8      2.980      6.361
REMARK  Name = 
REMARK  10 active torsions:
REMARK  status: ('A' for Active; 'I' for Inactive)
REMARK    1  A    between atoms: C_1  and  C_2
REMARK    2  A    between atoms: C_4  and  N_5
REMARK    3  A    between atoms: N_5  and  C_6
REMARK    4  A    between atoms: C_6  and  N_8
REMARK    5  A    between atoms: N_8  and  C_9
REMARK    6  A    between atoms: N_8  and  C_18
REMARK    7  A    between atoms: C_9  and  C_10
REMARK    8  A    between atoms: C_10  and  C_11
REMARK    9  A    between atoms: C_11  and  N_12
REMARK   10  A    between atoms: C_18  and  C_19
REMARK                            x       y       z     vdW  Elec       q    Type
REMARK                         _______ _______ _______ _____ _____    ______ ____
ROOT
ATOM      1  N   UNL     1       2.084   6.957  19.876  0.00  0.00    +0.000 N 
ENDROOT
BRANCH   1   2
ATOM      2  C   UNL     1       1.757   8.335  19.760  0.00  0.00    +0.000 C 
ATOM      3  S   UNL     1       1.582   9.142  18.305  0.00  0.00    +0.000 S 
BRANCH   2   4
ATOM      4  N   UNL     1       1.648   8.918  21.026  0.00  0.00    +0.000 N 
ATOM      5  H   UNL     1       2.383   8.618  21.654  0.00  0.00    +0.000 HD
BRANCH   4   9
ATOM      6  C   UNL     1      -0.628  13.372  21.066  0.00  0.00    +0.000 C 
ATOM      7  C   UNL     1      -0.436  12.001  21.649  0.00  0.00    +0.000 A 
ATOM      8  C   UNL     1       0.538  11.150  21.090  0.00  0.00    +0.000 A 
ATOM      9  C   UNL     1       0.757   9.867  21.585  0.00  0.00    +0.000 A 
ATOM     10  C   UNL     1      -0.021   9.425  22.663  0.00  0.00    +0.000 A 
ATOM     11  C   UNL     1      -1.003  10.250  23.222  0.00  0.00    +0.000 A 
ATOM     12  C   UNL     1      -1.212  11.530  22.715  0.00  0.00    +0.000 A 
ATOM     13 CL   UNL     1      -2.454  12.493  23.429  0.00  0.00    +0.000 Cl
ENDBRANCH   4   9
ENDBRANCH   2   4
ENDBRANCH   1   2
BRANCH   1  14
ATOM     14  C   UNL     1       2.828   6.166  18.880  0.00  0.00    +0.000 C 
BRANCH  14  15
ATOM     15  C   UNL     1       4.158   6.630  18.284  0.00  0.00    +0.000 C 
BRANCH  15  16
ATOM     16  C   UNL     1       4.535   6.226  16.845  0.00  0.00    +0.000 C 
BRANCH  16  17
ATOM     17  N   UNL     1       5.107   4.867  16.885  0.00  0.00    +0.000 NA
ATOM     18  C   UNL     1       6.015   4.580  18.010  0.00  0.00    +0.000 C 
ATOM     19  C   UNL     1       7.484   4.908  17.730  0.00  0.00    +0.000 C 
ATOM     20  O   UNL     1       7.947   4.158  16.606  0.00  0.00    +0.000 OA
ATOM     21  C   UNL     1       7.201   4.521  15.439  0.00  0.00    +0.000 C 
ATOM     22  C   UNL     1       5.677   4.361  15.625  0.00  0.00    +0.000 C 
ENDBRANCH  16  17
ENDBRANCH  15  16
ENDBRANCH  14  15
ENDBRANCH   1  14
BRANCH   1  23
ATOM     23  C   UNL     1       1.335   6.141  20.869  0.00  0.00    +0.000 C 
BRANCH  23  24
ATOM     24  C   UNL     1       1.506   4.660  20.755  0.00  0.00    +0.000 A 
ATOM     25  C   UNL     1       0.942   3.637  20.015  0.00  0.00    +0.000 A 
ATOM     26  C   UNL     1       1.535   2.429  20.465  0.00  0.00    +0.000 A 
ATOM     27  C   UNL     1       2.411   2.783  21.462  0.00  0.00    +0.000 A 
ATOM     28  O   UNL     1       2.407   4.128  21.638  0.00  0.00    +0.000 OA
ENDBRANCH  23  24
ENDBRANCH   1  23
TORSDOF 9
ENDMDL
