MODEL 1
REMARK VINA RESULT:      -6.7      0.000      0.000
REMARK  Name = 
REMARK  4 active torsions:
REMARK  status: ('A' for Active; 'I' for Inactive)
REMARK    1  A    between atoms: C_1  and  C_2
REMARK    2  A    between atoms: C_2  and  C_3
REMARK    3  A    between atoms: C_2  and  N_13
REMARK    4  A    between atoms: N_5  and  C_6
REMARK                            x       y       z     vdW  Elec       q    Type
REMARK                         _______ _______ _______ _____ _____    ______ ____
ROOT
ATOM      1  N   UNL     1       5.481   6.176  18.278  0.00  0.00    +0.000 N 
ATOM      2  C   UNL     1       4.070   5.820  18.435  0.00  0.00    +0.000 A 
ATOM      3  C   UNL     1       2.952   6.538  18.011  0.00  0.00    +0.000 A 
ATOM      4  C   UNL     1       1.677   6.020  18.295  0.00  0.00    +0.000 A 
ATOM      5  C   UNL     1       1.502   4.821  18.996  0.00  0.00    +0.000 A 
ATOM      6  C   UNL     1       2.618   4.103  19.435  0.00  0.00    +0.000 A 
ATOM      7  C   UNL     1       2.559   2.895  20.150  0.00  0.00    +0.000 A 
ATOM      8  C   UNL     1       3.741   2.244  20.544  0.00  0.00    +0.000 A 
ATOM      9  C   UNL     1       5.005   2.769  20.238  0.00  0.00    +0.000 A 
ATOM     10  C   UNL     1       5.025   3.966  19.533  0.00  0.00    +0.000 A 
ATOM     11  C   UNL     1       3.868   4.620  19.146  0.00  0.00    +0.000 A 
ATOM     12  S   UNL     1       6.391   4.900  18.950  0.00  0.00    +0.000 S 
ATOM     13  O   UNL     1       6.929   3.976  17.990  0.00  0.00    +0.000 OA
ATOM     14  O   UNL     1       6.997   5.277  20.204  0.00  0.00    +0.000 OA
ENDROOT
BRANCH   1  16
ATOM     15  C   UNL     1       7.645   7.315  17.600  0.00  0.00    +0.000 C 
ATOM     16  C   UNL     1       6.178   7.046  17.312  0.00  0.00    +0.000 C 
BRANCH  16  17
ATOM     17  C   UNL     1       6.108   6.522  15.875  0.00  0.00    +0.000 C 
ATOM     18  O   UNL     1       5.261   6.966  15.098  0.00  0.00    +0.000 OA
ATOM     19  N   UNL     1       7.090   5.603  15.507  0.00  0.00    +0.000 N 
ATOM     20  H   UNL     1       7.265   4.913  16.233  0.00  0.00    +0.000 HD
BRANCH  19  21
ATOM     21  C   UNL     1       7.016   5.082  14.192  0.00  0.00    +0.000 A 
ATOM     22  C   UNL     1       7.841   5.645  13.215  0.00  0.00    +0.000 A 
ATOM     23  C   UNL     1       7.917   5.060  11.950  0.00  0.00    +0.000 A 
ATOM     24  C   UNL     1       7.139   3.943  11.644  0.00  0.00    +0.000 A 
ATOM     25  C   UNL     1       6.268   3.414  12.598  0.00  0.00    +0.000 A 
ATOM     26  C   UNL     1       6.211   3.976  13.876  0.00  0.00    +0.000 A 
ATOM     27 BR   UNL     1       4.974   3.244  15.120  0.00  0.00    +0.000 Br
ENDBRANCH  19  21
ENDBRANCH  16  17
ENDBRANCH   1  16
TORSDOF 3
ENDMDL
MODEL 2
REMARK VINA RESULT:      -6.6      9.793     12.929
REMARK  Name = 
REMARK  4 active torsions:
REMARK  status: ('A' for Active; 'I' for Inactive)
REMARK    1  A    between atoms: C_1  and  C_2
REMARK    2  A    between atoms: C_2  and  C_3
REMARK    3  A    between atoms: C_2  and  N_13
REMARK    4  A    between atoms: N_5  and  C_6
REMARK                            x       y       z     vdW  Elec       q    Type
REMARK                         _______ _______ _______ _____ _____    ______ ____
ROOT
ATOM      1  N   UNL     1      -0.852  12.664  22.414  0.00  0.00    +0.000 N 
ATOM      2  C   UNL     1      -0.558  11.245  22.204  0.00  0.00    +0.000 A 
ATOM      3  C   UNL     1      -0.784  10.184  23.082  0.00  0.00    +0.000 A 
ATOM      4  C   UNL     1      -0.396   8.894  22.684  0.00  0.00    +0.000 A 
ATOM      5  C   UNL     1       0.216   8.650  21.450  0.00  0.00    +0.000 A 
ATOM      6  C   UNL     1       0.457   9.710  20.572  0.00  0.00    +0.000 A 
ATOM      7  C   UNL     1       1.067   9.581  19.312  0.00  0.00    +0.000 A 
ATOM      8  C   UNL     1       1.262  10.709  18.497  0.00  0.00    +0.000 A 
ATOM      9  C   UNL     1       0.853  11.988  18.905  0.00  0.00    +0.000 A 
ATOM     10  C   UNL     1       0.256  12.078  20.156  0.00  0.00    +0.000 A 
ATOM     11  C   UNL     1       0.066  10.975  20.971  0.00  0.00    +0.000 A 
ATOM     12  S   UNL     1      -0.403  13.478  20.984  0.00  0.00    +0.000 S 
ATOM     13  O   UNL     1      -1.496  13.791  20.105  0.00  0.00    +0.000 OA
ATOM     14  O   UNL     1       0.797  14.257  21.165  0.00  0.00    +0.000 OA
ENDROOT
BRANCH   1  16
ATOM     15  C   UNL     1      -1.783  14.872  23.247  0.00  0.00    +0.000 C 
ATOM     16  C   UNL     1      -1.816  13.354  23.291  0.00  0.00    +0.000 C 
BRANCH  16  17
ATOM     17  C   UNL     1      -3.267  12.945  23.025  0.00  0.00    +0.000 C 
ATOM     18  O   UNL     1      -3.793  12.066  23.710  0.00  0.00    +0.000 OA
ATOM     19  N   UNL     1      -3.942  13.672  22.046  0.00  0.00    +0.000 N 
ATOM     20  H   UNL     1      -3.364  13.848  21.228  0.00  0.00    +0.000 HD
BRANCH  19  21
ATOM     21  C   UNL     1      -5.273  13.280  21.764  0.00  0.00    +0.000 A 
ATOM     22  C   UNL     1      -5.476  12.288  20.802  0.00  0.00    +0.000 A 
ATOM     23  C   UNL     1      -6.753  11.760  20.608  0.00  0.00    +0.000 A 
ATOM     24  C   UNL     1      -7.836  12.251  21.338  0.00  0.00    +0.000 A 
ATOM     25  C   UNL     1      -7.647  13.284  22.259  0.00  0.00    +0.000 A 
ATOM     26  C   UNL     1      -6.366  13.794  22.480  0.00  0.00    +0.000 A 
ATOM     27 BR   UNL     1      -6.177  15.232  23.709  0.00  0.00    +0.000 Br
ENDBRANCH  19  21
ENDBRANCH  16  17
ENDBRANCH   1  16
TORSDOF 3
ENDMDL
MODEL 3
REMARK VINA RESULT:      -6.6      8.284     11.356
REMARK  Name = 
REMARK  4 active torsions:
REMARK  status: ('A' for Active; 'I' for Inactive)
REMARK    1  A    between atoms: C_1  and  C_2
REMARK    2  A    between atoms: C_2  and  C_3
REMARK    3  A    between atoms: C_2  and  N_13
REMARK    4  A    between atoms: N_5  and  C_6
REMARK                            x       y       z     vdW  Elec       q    Type
REMARK                         _______ _______ _______ _____ _____    ______ ____
ROOT
ATOM      1  N   UNL     1      -0.359  12.410  20.643  0.00  0.00    +0.000 N 
ATOM      2  C   UNL     1      -0.069  11.077  21.175  0.00  0.00    +0.000 A 
ATOM      3  C   UNL     1      -0.360  10.579  22.445  0.00  0.00    +0.000 A 
ATOM      4  C   UNL     1       0.037   9.268  22.755  0.00  0.00    +0.000 A 
ATOM      5  C   UNL     1       0.720   8.461  21.837  0.00  0.00    +0.000 A 
ATOM      6  C   UNL     1       1.026   8.960  20.567  0.00  0.00    +0.000 A 
ATOM      7  C   UNL     1       1.710   8.242  19.572  0.00  0.00    +0.000 A 
ATOM      8  C   UNL     1       1.967   8.829  18.321  0.00  0.00    +0.000 A 
ATOM      9  C   UNL     1       1.549  10.135  18.025  0.00  0.00    +0.000 A 
ATOM     10  C   UNL     1       0.878  10.815  19.033  0.00  0.00    +0.000 A 
ATOM     11  C   UNL     1       0.626  10.250  20.271  0.00  0.00    +0.000 A 
ATOM     12  S   UNL     1       0.185  12.428  19.027  0.00  0.00    +0.000 S 
ATOM     13  O   UNL     1      -0.849  12.248  18.045  0.00  0.00    +0.000 OA
ATOM     14  O   UNL     1       1.381  13.219  18.872  0.00  0.00    +0.000 OA
ENDROOT
BRANCH   1  16
ATOM     15  C   UNL     1      -1.313  14.725  20.231  0.00  0.00    +0.000 C 
ATOM     16  C   UNL     1      -1.366  13.423  21.011  0.00  0.00    +0.000 C 
BRANCH  16  17
ATOM     17  C   UNL     1      -2.803  12.907  20.894  0.00  0.00    +0.000 C 
ATOM     18  O   UNL     1      -3.386  12.478  21.890  0.00  0.00    +0.000 OA
ATOM     19  N   UNL     1      -3.402  13.035  19.641  0.00  0.00    +0.000 N 
ATOM     20  H   UNL     1      -2.770  12.790  18.883  0.00  0.00    +0.000 HD
BRANCH  19  21
ATOM     21  C   UNL     1      -4.718  12.529  19.509  0.00  0.00    +0.000 A 
ATOM     22  C   UNL     1      -5.742  13.170  20.210  0.00  0.00    +0.000 A 
ATOM     23  C   UNL     1      -7.071  12.807  19.984  0.00  0.00    +0.000 A 
ATOM     24  C   UNL     1      -7.377  11.775  19.097  0.00  0.00    +0.000 A 
ATOM     25  C   UNL     1      -6.353  11.092  18.439  0.00  0.00    +0.000 A 
ATOM     26  C   UNL     1      -5.023  11.472  18.636  0.00  0.00    +0.000 A 
ATOM     27 BR   UNL     1      -3.668  10.475  17.751  0.00  0.00    +0.000 Br
ENDBRANCH  19  21
ENDBRANCH  16  17
ENDBRANCH   1  16
TORSDOF 3
ENDMDL
MODEL 4
REMARK VINA RESULT:      -6.5      8.841     11.824
REMARK  Name = 
REMARK  4 active torsions:
REMARK  status: ('A' for Active; 'I' for Inactive)
REMARK    1  A    between atoms: C_1  and  C_2
REMARK    2  A    between atoms: C_2  and  C_3
REMARK    3  A    between atoms: C_2  and  N_13
REMARK    4  A    between atoms: N_5  and  C_6
REMARK                            x       y       z     vdW  Elec       q    Type
REMARK                         _______ _______ _______ _____ _____    ______ ____
ROOT
ATOM      1  N   UNL     1      -0.554  12.524  20.795  0.00  0.00    +0.000 N 
ATOM      2  C   UNL     1      -0.226  11.215  21.362  0.00  0.00    +0.000 A 
ATOM      3  C   UNL     1      -0.473  10.755  22.656  0.00  0.00    +0.000 A 
ATOM      4  C   UNL     1      -0.044   9.463  22.999  0.00  0.00    +0.000 A 
ATOM      5  C   UNL     1       0.629   8.638  22.090  0.00  0.00    +0.000 A 
ATOM      6  C   UNL     1       0.891   9.097  20.796  0.00  0.00    +0.000 A 
ATOM      7  C   UNL     1       1.562   8.358  19.807  0.00  0.00    +0.000 A 
ATOM      8  C   UNL     1       1.773   8.907  18.530  0.00  0.00    +0.000 A 
ATOM      9  C   UNL     1       1.324  10.194  18.202  0.00  0.00    +0.000 A 
ATOM     10  C   UNL     1       0.668  10.897  19.205  0.00  0.00    +0.000 A 
ATOM     11  C   UNL     1       0.460  10.369  20.468  0.00  0.00    +0.000 A 
ATOM     12  S   UNL     1      -0.054  12.496  19.164  0.00  0.00    +0.000 S 
ATOM     13  O   UNL     1      -1.111  12.264  18.218  0.00  0.00    +0.000 OA
ATOM     14  O   UNL     1       1.122  13.302  18.950  0.00  0.00    +0.000 OA
ENDROOT
BRANCH   1  16
ATOM     15  C   UNL     1      -1.483  14.855  20.416  0.00  0.00    +0.000 C 
ATOM     16  C   UNL     1      -1.569  13.531  21.156  0.00  0.00    +0.000 C 
BRANCH  16  17
ATOM     17  C   UNL     1      -3.004  13.026  20.974  0.00  0.00    +0.000 C 
ATOM     18  O   UNL     1      -3.579  12.459  21.904  0.00  0.00    +0.000 OA
ATOM     19  N   UNL     1      -3.609  13.321  19.753  0.00  0.00    +0.000 N 
ATOM     20  H   UNL     1      -2.979  13.188  18.967  0.00  0.00    +0.000 HD
BRANCH  19  21
ATOM     21  C   UNL     1      -4.923  12.829  19.557  0.00  0.00    +0.000 A 
ATOM     22  C   UNL     1      -5.073  11.592  18.927  0.00  0.00    +0.000 A 
ATOM     23  C   UNL     1      -6.333  10.997  18.857  0.00  0.00    +0.000 A 
ATOM     24  C   UNL     1      -7.451  11.654  19.373  0.00  0.00    +0.000 A 
ATOM     25  C   UNL     1      -7.314  12.918  19.950  0.00  0.00    +0.000 A 
ATOM     26  C   UNL     1      -6.050  13.504  20.052  0.00  0.00    +0.000 A 
ATOM     27 BR   UNL     1      -5.931  15.246  20.803  0.00  0.00    +0.000 Br
ENDBRANCH  19  21
ENDBRANCH  16  17
ENDBRANCH   1  16
TORSDOF 3
ENDMDL
MODEL 5
REMARK VINA RESULT:      -6.4      8.505     10.951
REMARK  Name = 
REMARK  4 active torsions:
REMARK  status: ('A' for Active; 'I' for Inactive)
REMARK    1  A    between atoms: C_1  and  C_2
REMARK    2  A    between atoms: C_2  and  C_3
REMARK    3  A    between atoms: C_2  and  N_13
REMARK    4  A    between atoms: N_5  and  C_6
REMARK                            x       y       z     vdW  Elec       q    Type
REMARK                         _______ _______ _______ _____ _____    ______ ____
ROOT
ATOM      1  N   UNL     1      -2.962  11.786  18.772  0.00  0.00    +0.000 N 
ATOM      2  C   UNL     1      -3.492  12.515  19.925  0.00  0.00    +0.000 A 
ATOM      3  C   UNL     1      -2.778  13.187  20.917  0.00  0.00    +0.000 A 
ATOM      4  C   UNL     1      -3.495  13.800  21.958  0.00  0.00    +0.000 A 
ATOM      5  C   UNL     1      -4.891  13.744  22.031  0.00  0.00    +0.000 A 
ATOM      6  C   UNL     1      -5.612  13.061  21.048  0.00  0.00    +0.000 A 
ATOM      7  C   UNL     1      -7.012  12.937  21.025  0.00  0.00    +0.000 A 
ATOM      8  C   UNL     1      -7.647  12.232  19.987  0.00  0.00    +0.000 A 
ATOM      9  C   UNL     1      -6.914  11.640  18.948  0.00  0.00    +0.000 A 
ATOM     10  C   UNL     1      -5.533  11.780  19.005  0.00  0.00    +0.000 A 
ATOM     11  C   UNL     1      -4.897  12.465  20.025  0.00  0.00    +0.000 A 
ATOM     12  S   UNL     1      -4.303  11.214  17.888  0.00  0.00    +0.000 S 
ATOM     13  O   UNL     1      -4.639  12.001  16.733  0.00  0.00    +0.000 OA
ATOM     14  O   UNL     1      -4.468   9.788  18.027  0.00  0.00    +0.000 OA
ENDROOT
BRANCH   1  16
ATOM     15  C   UNL     1      -0.751  13.000  18.490  0.00  0.00    +0.000 C 
ATOM     16  C   UNL     1      -1.685  11.890  18.040  0.00  0.00    +0.000 C 
BRANCH  16  17
ATOM     17  C   UNL     1      -0.867  10.596  18.077  0.00  0.00    +0.000 C 
ATOM     18  O   UNL     1      -1.230   9.620  17.417  0.00  0.00    +0.000 OA
ATOM     19  N   UNL     1       0.313  10.634  18.817  0.00  0.00    +0.000 N 
ATOM     20  H   UNL     1       0.198  11.123  19.702  0.00  0.00    +0.000 HD
BRANCH  19  21
ATOM     21  C   UNL     1       1.060   9.434  18.890  0.00  0.00    +0.000 A 
ATOM     22  C   UNL     1       1.828   9.070  17.781  0.00  0.00    +0.000 A 
ATOM     23  C   UNL     1       2.701   7.984  17.868  0.00  0.00    +0.000 A 
ATOM     24  C   UNL     1       2.775   7.233  19.041  0.00  0.00    +0.000 A 
ATOM     25  C   UNL     1       1.965   7.557  20.131  0.00  0.00    +0.000 A 
ATOM     26  C   UNL     1       1.113   8.662  20.062  0.00  0.00    +0.000 A 
ATOM     27 BR   UNL     1      -0.001   9.026  21.558  0.00  0.00    +0.000 Br
ENDBRANCH  19  21
ENDBRANCH  16  17
ENDBRANCH   1  16
TORSDOF 3
ENDMDL
MODEL 6
REMARK VINA RESULT:      -6.3      7.845     10.164
REMARK  Name = 
REMARK  4 active torsions:
REMARK  status: ('A' for Active; 'I' for Inactive)
REMARK    1  A    between atoms: C_1  and  C_2
REMARK    2  A    between atoms: C_2  and  C_3
REMARK    3  A    between atoms: C_2  and  N_13
REMARK    4  A    between atoms: N_5  and  C_6
REMARK                            x       y       z     vdW  Elec       q    Type
REMARK                         _______ _______ _______ _____ _____    ______ ____
ROOT
ATOM      1  N   UNL     1      -1.739  12.344  18.904  0.00  0.00    +0.000 N 
ATOM      2  C   UNL     1      -3.045  11.930  18.391  0.00  0.00    +0.000 A 
ATOM      3  C   UNL     1      -3.357  11.466  17.112  0.00  0.00    +0.000 A 
ATOM      4  C   UNL     1      -4.694  11.149  16.825  0.00  0.00    +0.000 A 
ATOM      5  C   UNL     1      -5.713  11.295  17.773  0.00  0.00    +0.000 A 
ATOM      6  C   UNL     1      -5.410  11.772  19.051  0.00  0.00    +0.000 A 
ATOM      7  C   UNL     1      -6.352  11.962  20.077  0.00  0.00    +0.000 A 
ATOM      8  C   UNL     1      -5.946  12.442  21.334  0.00  0.00    +0.000 A 
ATOM      9  C   UNL     1      -4.603  12.740  21.607  0.00  0.00    +0.000 A 
ATOM     10  C   UNL     1      -3.701  12.542  20.570  0.00  0.00    +0.000 A 
ATOM     11  C   UNL     1      -4.089  12.077  19.325  0.00  0.00    +0.000 A 
ATOM     12  S   UNL     1      -1.961  12.769  20.540  0.00  0.00    +0.000 S 
ATOM     13  O   UNL     1      -1.565  11.757  21.481  0.00  0.00    +0.000 OA
ATOM     14  O   UNL     1      -1.886  14.195  20.739  0.00  0.00    +0.000 OA
ENDROOT
BRANCH   1  16
ATOM     15  C   UNL     1       0.746  12.771  19.193  0.00  0.00    +0.000 C 
ATOM     16  C   UNL     1      -0.363  12.007  18.491  0.00  0.00    +0.000 C 
BRANCH  16  17
ATOM     17  C   UNL     1      -0.036  10.520  18.657  0.00  0.00    +0.000 C 
ATOM     18  O   UNL     1      -0.921   9.676  18.511  0.00  0.00    +0.000 OA
ATOM     19  N   UNL     1       1.302  10.206  18.895  0.00  0.00    +0.000 N 
ATOM     20  H   UNL     1       1.735  10.843  19.559  0.00  0.00    +0.000 HD
BRANCH  19  21
ATOM     21  C   UNL     1       1.612   8.838  19.087  0.00  0.00    +0.000 A 
ATOM     22  C   UNL     1       2.069   8.107  17.988  0.00  0.00    +0.000 A 
ATOM     23  C   UNL     1       2.537   6.805  18.166  0.00  0.00    +0.000 A 
ATOM     24  C   UNL     1       2.506   6.213  19.430  0.00  0.00    +0.000 A 
ATOM     25  C   UNL     1       1.994   6.919  20.520  0.00  0.00    +0.000 A 
ATOM     26  C   UNL     1       1.555   8.235  20.354  0.00  0.00    +0.000 A 
ATOM     27 BR   UNL     1       0.824   9.130  21.862  0.00  0.00    +0.000 Br
ENDBRANCH  19  21
ENDBRANCH  16  17
ENDBRANCH   1  16
TORSDOF 3
ENDMDL
MODEL 7
REMARK VINA RESULT:      -6.3      8.437     10.624
REMARK  Name = 
REMARK  4 active torsions:
REMARK  status: ('A' for Active; 'I' for Inactive)
REMARK    1  A    between atoms: C_1  and  C_2
REMARK    2  A    between atoms: C_2  and  C_3
REMARK    3  A    between atoms: C_2  and  N_13
REMARK    4  A    between atoms: N_5  and  C_6
REMARK                            x       y       z     vdW  Elec       q    Type
REMARK                         _______ _______ _______ _____ _____    ______ ____
ROOT
ATOM      1  N   UNL     1      -1.621  13.173  19.885  0.00  0.00    +0.000 N 
ATOM      2  C   UNL     1      -2.992  12.856  20.288  0.00  0.00    +0.000 A 
ATOM      3  C   UNL     1      -4.037  12.395  19.487  0.00  0.00    +0.000 A 
ATOM      4  C   UNL     1      -5.291  12.181  20.082  0.00  0.00    +0.000 A 
ATOM      5  C   UNL     1      -5.520  12.427  21.440  0.00  0.00    +0.000 A 
ATOM      6  C   UNL     1      -4.481  12.901  22.246  0.00  0.00    +0.000 A 
ATOM      7  C   UNL     1      -4.600  13.186  23.617  0.00  0.00    +0.000 A 
ATOM      8  C   UNL     1      -3.492  13.654  24.345  0.00  0.00    +0.000 A 
ATOM      9  C   UNL     1      -2.244  13.848  23.735  0.00  0.00    +0.000 A 
ATOM     10  C   UNL     1      -2.164  13.559  22.379  0.00  0.00    +0.000 A 
ATOM     11  C   UNL     1      -3.250  13.104  21.651  0.00  0.00    +0.000 A 
ATOM     12  S   UNL     1      -0.787  13.645  21.295  0.00  0.00    +0.000 S 
ATOM     13  O   UNL     1       0.043  12.622  21.871  0.00  0.00    +0.000 OA
ATOM     14  O   UNL     1      -0.531  15.064  21.318  0.00  0.00    +0.000 OA
ENDROOT
BRANCH   1  16
ATOM     15  C   UNL     1       0.501  13.479  18.526  0.00  0.00    +0.000 C 
ATOM     16  C   UNL     1      -0.795  12.718  18.750  0.00  0.00    +0.000 C 
BRANCH  16  17
ATOM     17  C   UNL     1      -0.416  11.237  18.842  0.00  0.00    +0.000 C 
ATOM     18  O   UNL     1      -1.190  10.377  18.419  0.00  0.00    +0.000 OA
ATOM     19  N   UNL     1       0.854  10.957  19.343  0.00  0.00    +0.000 N 
ATOM     20  H   UNL     1       1.089  11.535  20.146  0.00  0.00    +0.000 HD
BRANCH  19  21
ATOM     21  C   UNL     1       1.203   9.590  19.467  0.00  0.00    +0.000 A 
ATOM     22  C   UNL     1       1.853   8.978  18.393  0.00  0.00    +0.000 A 
ATOM     23  C   UNL     1       2.357   7.684  18.533  0.00  0.00    +0.000 A 
ATOM     24  C   UNL     1       2.173   6.982  19.725  0.00  0.00    +0.000 A 
ATOM     25  C   UNL     1       1.471   7.568  20.780  0.00  0.00    +0.000 A 
ATOM     26  C   UNL     1       0.993   8.875  20.658  0.00  0.00    +0.000 A 
ATOM     27 BR   UNL     1       0.004   9.605  22.107  0.00  0.00    +0.000 Br
ENDBRANCH  19  21
ENDBRANCH  16  17
ENDBRANCH   1  16
TORSDOF 3
ENDMDL
MODEL 8
REMARK VINA RESULT:      -6.3      9.536     11.316
REMARK  Name = 
REMARK  4 active torsions:
REMARK  status: ('A' for Active; 'I' for Inactive)
REMARK    1  A    between atoms: C_1  and  C_2
REMARK    2  A    between atoms: C_2  and  C_3
REMARK    3  A    between atoms: C_2  and  N_13
REMARK    4  A    between atoms: N_5  and  C_6
REMARK                            x       y       z     vdW  Elec       q    Type
REMARK                         _______ _______ _______ _____ _____    ______ ____
ROOT
ATOM      1  N   UNL     1      -1.349  12.214  20.111  0.00  0.00    +0.000 N 
ATOM      2  C   UNL     1      -1.886  11.420  19.005  0.00  0.00    +0.000 A 
ATOM      3  C   UNL     1      -1.187  10.589  18.128  0.00  0.00    +0.000 A 
ATOM      4  C   UNL     1      -1.905   9.937  17.112  0.00  0.00    +0.000 A 
ATOM      5  C   UNL     1      -3.284  10.106  16.950  0.00  0.00    +0.000 A 
ATOM      6  C   UNL     1      -3.988  10.947  17.818  0.00  0.00    +0.000 A 
ATOM      7  C   UNL     1      -5.369  11.194  17.745  0.00  0.00    +0.000 A 
ATOM      8  C   UNL     1      -5.988  12.054  18.669  0.00  0.00    +0.000 A 
ATOM      9  C   UNL     1      -5.256  12.685  19.686  0.00  0.00    +0.000 A 
ATOM     10  C   UNL     1      -3.894  12.420  19.726  0.00  0.00    +0.000 A 
ATOM     11  C   UNL     1      -3.273  11.581  18.817  0.00  0.00    +0.000 A 
ATOM     12  S   UNL     1      -2.675  12.989  20.853  0.00  0.00    +0.000 S 
ATOM     13  O   UNL     1      -3.140  12.358  22.058  0.00  0.00    +0.000 OA
ATOM     14  O   UNL     1      -2.700  14.402  20.565  0.00  0.00    +0.000 OA
ENDROOT
BRANCH   1  16
ATOM     15  C   UNL     1       0.515  10.699  20.929  0.00  0.00    +0.000 C 
ATOM     16  C   UNL     1      -0.126  12.076  20.924  0.00  0.00    +0.000 C 
BRANCH  16  17
ATOM     17  C   UNL     1       0.974  13.064  20.523  0.00  0.00    +0.000 C 
ATOM     18  O   UNL     1       1.830  13.397  21.344  0.00  0.00    +0.000 OA
ATOM     19  N   UNL     1       0.979  13.472  19.190  0.00  0.00    +0.000 N 
ATOM     20  H   UNL     1       0.043  13.670  18.844  0.00  0.00    +0.000 HD
BRANCH  19  21
ATOM     21  C   UNL     1       1.968  14.412  18.814  0.00  0.00    +0.000 A 
ATOM     22  C   UNL     1       3.242  13.935  18.499  0.00  0.00    +0.000 A 
ATOM     23  C   UNL     1       4.198  14.805  17.971  0.00  0.00    +0.000 A 
ATOM     24  C   UNL     1       3.901  16.157  17.801  0.00  0.00    +0.000 A 
ATOM     25  C   UNL     1       2.648  16.650  18.171  0.00  0.00    +0.000 A 
ATOM     26  C   UNL     1       1.676  15.779  18.669  0.00  0.00    +0.000 A 
ATOM     27 BR   UNL     1       0.006  16.513  19.202  0.00  0.00    +0.000 Br
ENDBRANCH  19  21
ENDBRANCH  16  17
ENDBRANCH   1  16
TORSDOF 3
ENDMDL
MODEL 9
REMARK VINA RESULT:      -6.3      9.218     11.130
REMARK  Name = 
REMARK  4 active torsions:
REMARK  status: ('A' for Active; 'I' for Inactive)
REMARK    1  A    between atoms: C_1  and  C_2
REMARK    2  A    between atoms: C_2  and  C_3
REMARK    3  A    between atoms: C_2  and  N_13
REMARK    4  A    between atoms: N_5  and  C_6
REMARK                            x       y       z     vdW  Elec       q    Type
REMARK                         _______ _______ _______ _____ _____    ______ ____
ROOT
ATOM      1  N   UNL     1       7.663  15.143  19.918  0.00  0.00    +0.000 N 
ATOM      2  C   UNL     1       8.212  13.971  20.603  0.00  0.00    +0.000 A 
ATOM      3  C   UNL     1       8.114  13.645  21.956  0.00  0.00    +0.000 A 
ATOM      4  C   UNL     1       8.747  12.476  22.408  0.00  0.00    +0.000 A 
ATOM      5  C   UNL     1       9.476  11.645  21.549  0.00  0.00    +0.000 A 
ATOM      6  C   UNL     1       9.589  11.974  20.195  0.00  0.00    +0.000 A 
ATOM      7  C   UNL     1      10.299  11.218  19.247  0.00  0.00    +0.000 A 
ATOM      8  C   UNL     1      10.349  11.629  17.903  0.00  0.00    +0.000 A 
ATOM      9  C   UNL     1       9.698  12.792  17.468  0.00  0.00    +0.000 A 
ATOM     10  C   UNL     1       9.009  13.516  18.433  0.00  0.00    +0.000 A 
ATOM     11  C   UNL     1       8.958  13.125  19.760  0.00  0.00    +0.000 A 
ATOM     12  S   UNL     1       8.061  14.983  18.268  0.00  0.00    +0.000 S 
ATOM     13  O   UNL     1       6.993  14.494  17.439  0.00  0.00    +0.000 OA
ATOM     14  O   UNL     1       9.091  15.911  17.872  0.00  0.00    +0.000 OA
ENDROOT
BRANCH   1  16
ATOM     15  C   UNL     1       6.465  17.330  19.447  0.00  0.00    +0.000 C 
ATOM     16  C   UNL     1       6.535  16.037  20.242  0.00  0.00    +0.000 C 
BRANCH  16  17
ATOM     17  C   UNL     1       5.170  15.360  20.086  0.00  0.00    +0.000 C 
ATOM     18  O   UNL     1       4.699  14.706  21.018  0.00  0.00    +0.000 OA
ATOM     19  N   UNL     1       4.496  15.602  18.890  0.00  0.00    +0.000 N 
ATOM     20  H   UNL     1       5.115  15.564  18.084  0.00  0.00    +0.000 HD
BRANCH  19  21
ATOM     21  C   UNL     1       3.250  14.952  18.718  0.00  0.00    +0.000 A 
ATOM     22  C   UNL     1       3.255  13.625  18.280  0.00  0.00    +0.000 A 
ATOM     23  C   UNL     1       2.064  12.899  18.251  0.00  0.00    +0.000 A 
ATOM     24  C   UNL     1       0.861  13.506  18.612  0.00  0.00    +0.000 A 
ATOM     25  C   UNL     1       0.842  14.850  18.993  0.00  0.00    +0.000 A 
ATOM     26  C   UNL     1       2.036  15.572  19.055  0.00  0.00    +0.000 A 
ATOM     27 BR   UNL     1       1.945  17.410  19.533  0.00  0.00    +0.000 Br
ENDBRANCH  19  21
ENDBRANCH  16  17
ENDBRANCH   1  16
TORSDOF 3
ENDMDL
