MODEL 1
REMARK VINA RESULT:      -6.4      0.000      0.000
REMARK  Name = 
REMARK  8 active torsions:
REMARK  status: ('A' for Active; 'I' for Inactive)
REMARK    1  A    between atoms: C_1  and  C_2
REMARK    2  A    between atoms: C_2  and  N_3
REMARK    3  A    between atoms: C_5  and  C_6
REMARK    4  A    between atoms: C_7  and  N_8
REMARK    5  A    between atoms: C_9  and  C_11
REMARK    6  A    between atoms: C_11  and  C_12
REMARK    7  A    between atoms: C_11  and  C_13
REMARK    8  A    between atoms: C_14  and  C_15
REMARK                            x       y       z     vdW  Elec       q    Type
REMARK                         _______ _______ _______ _____ _____    ______ ____
ROOT
ATOM      1  N   UNL     1       7.308   6.193  17.529  0.00  0.00    +0.000 N 
ATOM      2  N   UNL     1       7.453   6.048  16.200  0.00  0.00    +0.000 NA
ATOM      3  C   UNL     1       6.623   5.044  15.879  0.00  0.00    +0.000 A 
ATOM      4  C   UNL     1       6.455   4.671  14.452  0.00  0.00    +0.000 C 
ATOM      5  C   UNL     1       5.922   4.577  17.023  0.00  0.00    +0.000 A 
ATOM      6  C   UNL     1       6.429   5.300  18.083  0.00  0.00    +0.000 A 
ATOM      7  C   UNL     1       6.218   5.154  19.542  0.00  0.00    +0.000 C 
ENDROOT
BRANCH   5   8
ATOM      8  N   UNL     1       4.931   3.623  17.169  0.00  0.00    +0.000 N 
ATOM      9  C   UNL     1       3.608   3.943  17.396  0.00  0.00    +0.000 C 
ATOM     10  O   UNL     1       3.155   5.083  17.443  0.00  0.00    +0.000 OA
ATOM     11  H   UNL     1       5.128   2.722  16.759  0.00  0.00    +0.000 HD
BRANCH   9  12
ATOM     12  C   UNL     1       2.681   2.742  17.582  0.00  0.00    +0.000 C 
ATOM     13  C   UNL     1       3.338   1.578  18.319  0.00  0.00    +0.000 C 
ATOM     14  C   UNL     1       1.389   3.176  18.263  0.00  0.00    +0.000 C 
ENDBRANCH   9  12
ENDBRANCH   5   8
BRANCH   1  16
ATOM     15  C   UNL     1       7.790   8.617  17.581  0.00  0.00    +0.000 C 
ATOM     16  C   UNL     1       8.046   7.252  18.193  0.00  0.00    +0.000 C 
ENDBRANCH   1  16
TORSDOF 3
ENDMDL
MODEL 2
REMARK VINA RESULT:      -6.2      2.041      4.592
REMARK  Name = 
REMARK  8 active torsions:
REMARK  status: ('A' for Active; 'I' for Inactive)
REMARK    1  A    between atoms: C_1  and  C_2
REMARK    2  A    between atoms: C_2  and  N_3
REMARK    3  A    between atoms: C_5  and  C_6
REMARK    4  A    between atoms: C_7  and  N_8
REMARK    5  A    between atoms: C_9  and  C_11
REMARK    6  A    between atoms: C_11  and  C_12
REMARK    7  A    between atoms: C_11  and  C_13
REMARK    8  A    between atoms: C_14  and  C_15
REMARK                            x       y       z     vdW  Elec       q    Type
REMARK                         _______ _______ _______ _____ _____    ______ ____
ROOT
ATOM      1  N   UNL     1       4.258   4.817  19.117  0.00  0.00    +0.000 N 
ATOM      2  N   UNL     1       5.423   5.331  19.550  0.00  0.00    +0.000 NA
ATOM      3  C   UNL     1       6.296   5.056  18.570  0.00  0.00    +0.000 A 
ATOM      4  C   UNL     1       7.685   5.569  18.671  0.00  0.00    +0.000 C 
ATOM      5  C   UNL     1       5.657   4.389  17.490  0.00  0.00    +0.000 A 
ATOM      6  C   UNL     1       4.354   4.198  17.899  0.00  0.00    +0.000 A 
ATOM      7  C   UNL     1       3.252   3.421  17.283  0.00  0.00    +0.000 C 
ENDROOT
BRANCH   5   8
ATOM      8  N   UNL     1       6.127   3.976  16.255  0.00  0.00    +0.000 N 
ATOM      9  C   UNL     1       6.123   4.788  15.140  0.00  0.00    +0.000 C 
ATOM     10  O   UNL     1       5.760   5.961  15.122  0.00  0.00    +0.000 OA
ATOM     11  H   UNL     1       6.786   3.212  16.273  0.00  0.00    +0.000 HD
BRANCH   9  12
ATOM     12  C   UNL     1       6.634   4.125  13.862  0.00  0.00    +0.000 C 
ATOM     13  C   UNL     1       5.518   3.626  12.949  0.00  0.00    +0.000 C 
ATOM     14  C   UNL     1       7.581   5.064  13.124  0.00  0.00    +0.000 C 
ENDBRANCH   9  12
ENDBRANCH   5   8
BRANCH   1  16
ATOM     15  C   UNL     1       2.410   6.342  19.728  0.00  0.00    +0.000 C 
ATOM     16  C   UNL     1       3.076   4.994  19.940  0.00  0.00    +0.000 C 
ENDBRANCH   1  16
TORSDOF 3
ENDMDL
MODEL 3
REMARK VINA RESULT:      -6.2      2.453      3.298
REMARK  Name = 
REMARK  8 active torsions:
REMARK  status: ('A' for Active; 'I' for Inactive)
REMARK    1  A    between atoms: C_1  and  C_2
REMARK    2  A    between atoms: C_2  and  N_3
REMARK    3  A    between atoms: C_5  and  C_6
REMARK    4  A    between atoms: C_7  and  N_8
REMARK    5  A    between atoms: C_9  and  C_11
REMARK    6  A    between atoms: C_11  and  C_12
REMARK    7  A    between atoms: C_11  and  C_13
REMARK    8  A    between atoms: C_14  and  C_15
REMARK                            x       y       z     vdW  Elec       q    Type
REMARK                         _______ _______ _______ _____ _____    ______ ____
ROOT
ATOM      1  N   UNL     1       5.179   6.177  17.090  0.00  0.00    +0.000 N 
ATOM      2  N   UNL     1       4.508   7.323  17.302  0.00  0.00    +0.000 NA
ATOM      3  C   UNL     1       3.315   6.930  17.775  0.00  0.00    +0.000 A 
ATOM      4  C   UNL     1       2.336   7.956  18.213  0.00  0.00    +0.000 C 
ATOM      5  C   UNL     1       3.254   5.516  17.893  0.00  0.00    +0.000 A 
ATOM      6  C   UNL     1       4.452   5.055  17.388  0.00  0.00    +0.000 A 
ATOM      7  C   UNL     1       4.911   3.677  17.092  0.00  0.00    +0.000 C 
ENDROOT
BRANCH   5   8
ATOM      8  N   UNL     1       2.273   4.674  18.388  0.00  0.00    +0.000 N 
ATOM      9  C   UNL     1       2.081   4.457  19.737  0.00  0.00    +0.000 C 
ATOM     10  O   UNL     1       2.708   5.009  20.637  0.00  0.00    +0.000 OA
ATOM     11  H   UNL     1       1.490   4.508  17.774  0.00  0.00    +0.000 HD
BRANCH   9  12
ATOM     12  C   UNL     1       0.981   3.452  20.074  0.00  0.00    +0.000 C 
ATOM     13  C   UNL     1       0.704   2.457  18.950  0.00  0.00    +0.000 C 
ATOM     14  C   UNL     1       1.303   2.739  21.382  0.00  0.00    +0.000 C 
ENDBRANCH   9  12
ENDBRANCH   5   8
BRANCH   1  16
ATOM     15  C   UNL     1       7.425   7.124  17.503  0.00  0.00    +0.000 C 
ATOM     16  C   UNL     1       6.549   6.257  16.617  0.00  0.00    +0.000 C 
ENDBRANCH   1  16
TORSDOF 3
ENDMDL
MODEL 4
REMARK VINA RESULT:      -6.1      2.278      5.687
REMARK  Name = 
REMARK  8 active torsions:
REMARK  status: ('A' for Active; 'I' for Inactive)
REMARK    1  A    between atoms: C_1  and  C_2
REMARK    2  A    between atoms: C_2  and  N_3
REMARK    3  A    between atoms: C_5  and  C_6
REMARK    4  A    between atoms: C_7  and  N_8
REMARK    5  A    between atoms: C_9  and  C_11
REMARK    6  A    between atoms: C_11  and  C_12
REMARK    7  A    between atoms: C_11  and  C_13
REMARK    8  A    between atoms: C_14  and  C_15
REMARK                            x       y       z     vdW  Elec       q    Type
REMARK                         _______ _______ _______ _____ _____    ______ ____
ROOT
ATOM      1  N   UNL     1       2.302   4.297  18.396  0.00  0.00    +0.000 N 
ATOM      2  N   UNL     1       1.772   5.523  18.243  0.00  0.00    +0.000 NA
ATOM      3  C   UNL     1       2.825   6.352  18.292  0.00  0.00    +0.000 A 
ATOM      4  C   UNL     1       2.616   7.803  18.059  0.00  0.00    +0.000 C 
ATOM      5  C   UNL     1       4.038   5.628  18.443  0.00  0.00    +0.000 A 
ATOM      6  C   UNL     1       3.661   4.307  18.566  0.00  0.00    +0.000 A 
ATOM      7  C   UNL     1       4.455   3.103  18.909  0.00  0.00    +0.000 C 
ENDROOT
BRANCH   5   8
ATOM      8  N   UNL     1       5.359   6.040  18.472  0.00  0.00    +0.000 N 
ATOM      9  C   UNL     1       6.033   6.479  17.351  0.00  0.00    +0.000 C 
ATOM     10  O   UNL     1       5.540   6.602  16.234  0.00  0.00    +0.000 OA
ATOM     11  H   UNL     1       5.701   6.346  19.371  0.00  0.00    +0.000 HD
BRANCH   9  12
ATOM     12  C   UNL     1       7.500   6.837  17.586  0.00  0.00    +0.000 C 
ATOM     13  C   UNL     1       7.760   8.341  17.615  0.00  0.00    +0.000 C 
ATOM     14  C   UNL     1       8.012   6.158  18.850  0.00  0.00    +0.000 C 
ENDBRANCH   9  12
ENDBRANCH   5   8
BRANCH   1  16
ATOM     15  C   UNL     1       0.787   2.825  19.682  0.00  0.00    +0.000 C 
ATOM     16  C   UNL     1       1.416   3.149  18.338  0.00  0.00    +0.000 C 
ENDBRANCH   1  16
TORSDOF 3
ENDMDL
MODEL 5
REMARK VINA RESULT:      -6.0      2.551      5.841
REMARK  Name = 
REMARK  8 active torsions:
REMARK  status: ('A' for Active; 'I' for Inactive)
REMARK    1  A    between atoms: C_1  and  C_2
REMARK    2  A    between atoms: C_2  and  N_3
REMARK    3  A    between atoms: C_5  and  C_6
REMARK    4  A    between atoms: C_7  and  N_8
REMARK    5  A    between atoms: C_9  and  C_11
REMARK    6  A    between atoms: C_11  and  C_12
REMARK    7  A    between atoms: C_11  and  C_13
REMARK    8  A    between atoms: C_14  and  C_15
REMARK                            x       y       z     vdW  Elec       q    Type
REMARK                         _______ _______ _______ _____ _____    ______ ____
ROOT
ATOM      1  N   UNL     1       2.232   3.753  19.873  0.00  0.00    +0.000 N 
ATOM      2  N   UNL     1       1.703   4.988  19.815  0.00  0.00    +0.000 NA
ATOM      3  C   UNL     1       2.756   5.797  19.624  0.00  0.00    +0.000 A 
ATOM      4  C   UNL     1       2.528   7.249  19.417  0.00  0.00    +0.000 C 
ATOM      5  C   UNL     1       3.960   5.050  19.526  0.00  0.00    +0.000 A 
ATOM      6  C   UNL     1       3.596   3.738  19.748  0.00  0.00    +0.000 A 
ATOM      7  C   UNL     1       4.424   2.523  19.935  0.00  0.00    +0.000 C 
ENDROOT
BRANCH   5   8
ATOM      8  N   UNL     1       5.264   5.434  19.265  0.00  0.00    +0.000 N 
ATOM      9  C   UNL     1       5.725   5.712  17.995  0.00  0.00    +0.000 C 
ATOM     10  O   UNL     1       5.040   5.702  16.977  0.00  0.00    +0.000 OA
ATOM     11  H   UNL     1       5.761   5.846  20.042  0.00  0.00    +0.000 HD
BRANCH   9  12
ATOM     12  C   UNL     1       7.210   6.067  17.916  0.00  0.00    +0.000 C 
ATOM     13  C   UNL     1       7.466   7.507  17.478  0.00  0.00    +0.000 C 
ATOM     14  C   UNL     1       7.896   5.757  19.241  0.00  0.00    +0.000 C 
ENDBRANCH   9  12
ENDBRANCH   5   8
BRANCH   1  16
ATOM     15  C   UNL     1       0.683   2.212  18.716  0.00  0.00    +0.000 C 
ATOM     16  C   UNL     1       1.334   2.624  20.024  0.00  0.00    +0.000 C 
ENDBRANCH   1  16
TORSDOF 3
ENDMDL
MODEL 6
REMARK VINA RESULT:      -6.0      2.423      5.451
REMARK  Name = 
REMARK  8 active torsions:
REMARK  status: ('A' for Active; 'I' for Inactive)
REMARK    1  A    between atoms: C_1  and  C_2
REMARK    2  A    between atoms: C_2  and  N_3
REMARK    3  A    between atoms: C_5  and  C_6
REMARK    4  A    between atoms: C_7  and  N_8
REMARK    5  A    between atoms: C_9  and  C_11
REMARK    6  A    between atoms: C_11  and  C_12
REMARK    7  A    between atoms: C_11  and  C_13
REMARK    8  A    between atoms: C_14  and  C_15
REMARK                            x       y       z     vdW  Elec       q    Type
REMARK                         _______ _______ _______ _____ _____    ______ ____
ROOT
ATOM      1  N   UNL     1       1.978   3.741  19.321  0.00  0.00    +0.000 N 
ATOM      2  N   UNL     1       1.980   5.085  19.351  0.00  0.00    +0.000 NA
ATOM      3  C   UNL     1       2.842   5.442  18.388  0.00  0.00    +0.000 A 
ATOM      4  C   UNL     1       3.024   6.881  18.074  0.00  0.00    +0.000 C 
ATOM      5  C   UNL     1       3.362   4.301  17.721  0.00  0.00    +0.000 A 
ATOM      6  C   UNL     1       2.829   3.215  18.384  0.00  0.00    +0.000 A 
ATOM      7  C   UNL     1       3.124   1.768  18.263  0.00  0.00    +0.000 C 
ENDROOT
BRANCH   5   8
ATOM      8  N   UNL     1       4.213   4.176  16.637  0.00  0.00    +0.000 N 
ATOM      9  C   UNL     1       5.587   4.209  16.753  0.00  0.00    +0.000 C 
ATOM     10  O   UNL     1       6.204   4.300  17.811  0.00  0.00    +0.000 OA
ATOM     11  H   UNL     1       3.826   3.711  15.829  0.00  0.00    +0.000 HD
BRANCH   9  12
ATOM     12  C   UNL     1       6.345   4.107  15.430  0.00  0.00    +0.000 C 
ATOM     13  C   UNL     1       5.438   4.179  14.204  0.00  0.00    +0.000 C 
ATOM     14  C   UNL     1       7.445   5.160  15.372  0.00  0.00    +0.000 C 
ENDBRANCH   9  12
ENDBRANCH   5   8
BRANCH   1  16
ATOM     15  C   UNL     1       1.674   2.879  21.618  0.00  0.00    +0.000 C 
ATOM     16  C   UNL     1       1.092   3.030  20.224  0.00  0.00    +0.000 C 
ENDBRANCH   1  16
TORSDOF 3
ENDMDL
MODEL 7
REMARK VINA RESULT:      -5.9      1.399      1.651
REMARK  Name = 
REMARK  8 active torsions:
REMARK  status: ('A' for Active; 'I' for Inactive)
REMARK    1  A    between atoms: C_1  and  C_2
REMARK    2  A    between atoms: C_2  and  N_3
REMARK    3  A    between atoms: C_5  and  C_6
REMARK    4  A    between atoms: C_7  and  N_8
REMARK    5  A    between atoms: C_9  and  C_11
REMARK    6  A    between atoms: C_11  and  C_12
REMARK    7  A    between atoms: C_11  and  C_13
REMARK    8  A    between atoms: C_14  and  C_15
REMARK                            x       y       z     vdW  Elec       q    Type
REMARK                         _______ _______ _______ _____ _____    ______ ____
ROOT
ATOM      1  N   UNL     1       7.658   6.995  17.981  0.00  0.00    +0.000 N 
ATOM      2  N   UNL     1       7.070   7.020  16.772  0.00  0.00    +0.000 NA
ATOM      3  C   UNL     1       6.355   5.886  16.722  0.00  0.00    +0.000 A 
ATOM      4  C   UNL     1       5.488   5.626  15.546  0.00  0.00    +0.000 C 
ATOM      5  C   UNL     1       6.472   5.157  17.936  0.00  0.00    +0.000 A 
ATOM      6  C   UNL     1       7.366   5.871  18.707  0.00  0.00    +0.000 A 
ATOM      7  C   UNL     1       8.013   5.535  19.997  0.00  0.00    +0.000 C 
ENDROOT
BRANCH   5   8
ATOM      8  N   UNL     1       5.873   3.986  18.369  0.00  0.00    +0.000 N 
ATOM      9  C   UNL     1       4.581   3.937  18.851  0.00  0.00    +0.000 C 
ATOM     10  O   UNL     1       3.811   4.892  18.904  0.00  0.00    +0.000 OA
ATOM     11  H   UNL     1       6.264   3.133  17.997  0.00  0.00    +0.000 HD
BRANCH   9  12
ATOM     12  C   UNL     1       4.127   2.558  19.327  0.00  0.00    +0.000 C 
ATOM     13  C   UNL     1       3.224   2.609  20.557  0.00  0.00    +0.000 C 
ATOM     14  C   UNL     1       3.469   1.797  18.183  0.00  0.00    +0.000 C 
ENDBRANCH   9  12
ENDBRANCH   5   8
BRANCH   1  16
ATOM     15  C   UNL     1       8.016   9.430  17.746  0.00  0.00    +0.000 C 
ATOM     16  C   UNL     1       8.477   8.126  18.374  0.00  0.00    +0.000 C 
ENDBRANCH   1  16
TORSDOF 3
ENDMDL
MODEL 8
REMARK VINA RESULT:      -5.8      2.285      2.942
REMARK  Name = 
REMARK  8 active torsions:
REMARK  status: ('A' for Active; 'I' for Inactive)
REMARK    1  A    between atoms: C_1  and  C_2
REMARK    2  A    between atoms: C_2  and  N_3
REMARK    3  A    between atoms: C_5  and  C_6
REMARK    4  A    between atoms: C_7  and  N_8
REMARK    5  A    between atoms: C_9  and  C_11
REMARK    6  A    between atoms: C_11  and  C_12
REMARK    7  A    between atoms: C_11  and  C_13
REMARK    8  A    between atoms: C_14  and  C_15
REMARK                            x       y       z     vdW  Elec       q    Type
REMARK                         _______ _______ _______ _____ _____    ______ ____
ROOT
ATOM      1  N   UNL     1       5.540   6.415  17.427  0.00  0.00    +0.000 N 
ATOM      2  N   UNL     1       4.699   7.450  17.251  0.00  0.00    +0.000 NA
ATOM      3  C   UNL     1       3.549   7.047  17.813  0.00  0.00    +0.000 A 
ATOM      4  C   UNL     1       2.408   7.994  17.885  0.00  0.00    +0.000 C 
ATOM      5  C   UNL     1       3.685   5.752  18.380  0.00  0.00    +0.000 A 
ATOM      6  C   UNL     1       4.965   5.347  18.063  0.00  0.00    +0.000 A 
ATOM      7  C   UNL     1       5.633   4.035  18.233  0.00  0.00    +0.000 C 
ENDROOT
BRANCH   5   8
ATOM      8  N   UNL     1       2.807   4.970  19.110  0.00  0.00    +0.000 N 
ATOM      9  C   UNL     1       1.748   4.296  18.538  0.00  0.00    +0.000 C 
ATOM     10  O   UNL     1       1.493   4.270  17.337  0.00  0.00    +0.000 OA
ATOM     11  H   UNL     1       3.161   4.621  19.989  0.00  0.00    +0.000 HD
BRANCH   9  12
ATOM     12  C   UNL     1       0.867   3.532  19.525  0.00  0.00    +0.000 C 
ATOM     13  C   UNL     1       0.616   2.082  19.118  0.00  0.00    +0.000 C 
ATOM     14  C   UNL     1       1.449   3.624  20.931  0.00  0.00    +0.000 C 
ENDBRANCH   9  12
ENDBRANCH   5   8
BRANCH   1  16
ATOM     15  C   UNL     1       7.637   7.708  17.631  0.00  0.00    +0.000 C 
ATOM     16  C   UNL     1       6.910   6.552  16.969  0.00  0.00    +0.000 C 
ENDBRANCH   1  16
TORSDOF 3
ENDMDL
MODEL 9
REMARK VINA RESULT:      -5.8      2.471      5.696
REMARK  Name = 
REMARK  8 active torsions:
REMARK  status: ('A' for Active; 'I' for Inactive)
REMARK    1  A    between atoms: C_1  and  C_2
REMARK    2  A    between atoms: C_2  and  N_3
REMARK    3  A    between atoms: C_5  and  C_6
REMARK    4  A    between atoms: C_7  and  N_8
REMARK    5  A    between atoms: C_9  and  C_11
REMARK    6  A    between atoms: C_11  and  C_12
REMARK    7  A    between atoms: C_11  and  C_13
REMARK    8  A    between atoms: C_14  and  C_15
REMARK                            x       y       z     vdW  Elec       q    Type
REMARK                         _______ _______ _______ _____ _____    ______ ____
ROOT
ATOM      1  N   UNL     1       2.171   4.011  19.629  0.00  0.00    +0.000 N 
ATOM      2  N   UNL     1       1.770   5.294  19.596  0.00  0.00    +0.000 NA
ATOM      3  C   UNL     1       2.789   5.950  19.023  0.00  0.00    +0.000 A 
ATOM      4  C   UNL     1       2.650   7.400  18.737  0.00  0.00    +0.000 C 
ATOM      5  C   UNL     1       3.831   5.055  18.659  0.00  0.00    +0.000 A 
ATOM      6  C   UNL     1       3.426   3.818  19.116  0.00  0.00    +0.000 A 
ATOM      7  C   UNL     1       4.152   2.527  19.183  0.00  0.00    +0.000 C 
ENDROOT
BRANCH   5   8
ATOM      8  N   UNL     1       5.027   5.256  17.991  0.00  0.00    +0.000 N 
ATOM      9  C   UNL     1       6.235   5.394  18.641  0.00  0.00    +0.000 C 
ATOM     10  O   UNL     1       6.398   5.306  19.855  0.00  0.00    +0.000 OA
ATOM     11  H   UNL     1       5.047   4.947  17.030  0.00  0.00    +0.000 HD
BRANCH   9  12
ATOM     12  C   UNL     1       7.429   5.661  17.725  0.00  0.00    +0.000 C 
ATOM     13  C   UNL     1       7.381   4.872  16.420  0.00  0.00    +0.000 C 
ATOM     14  C   UNL     1       7.569   7.157  17.467  0.00  0.00    +0.000 C 
ENDBRANCH   9  12
ENDBRANCH   5   8
BRANCH   1  16
ATOM     15  C   UNL     1       0.526   2.255  19.061  0.00  0.00    +0.000 C 
ATOM     16  C   UNL     1       1.256   3.014  20.154  0.00  0.00    +0.000 C 
ENDBRANCH   1  16
TORSDOF 3
ENDMDL
