MODEL 1
REMARK VINA RESULT:      -7.4      0.000      0.000
REMARK  Name = 
REMARK  3 active torsions:
REMARK  status: ('A' for Active; 'I' for Inactive)
REMARK    1  A    between atoms: N_7  and  C_8
REMARK    2  A    between atoms: C_8  and  C_9
REMARK    3  A    between atoms: C_9  and  N_10
REMARK                            x       y       z     vdW  Elec       q    Type
REMARK                         _______ _______ _______ _____ _____    ______ ____
ROOT
ATOM      1  C   UNL     1       7.409   4.508  12.023  0.00  0.00    +0.000 A 
ATOM      2  C   UNL     1       6.305   3.669  12.111  0.00  0.00    +0.000 A 
ATOM      3  C   UNL     1       5.656   3.509  13.337  0.00  0.00    +0.000 A 
ATOM      4  C   UNL     1       6.084   4.176  14.480  0.00  0.00    +0.000 A 
ATOM      5  N   UNL     1       5.444   3.980  15.656  0.00  0.00    +0.000 NA
ATOM      6  C   UNL     1       5.883   4.674  16.726  0.00  0.00    +0.000 A 
ATOM      7  N   UNL     1       5.295   4.508  17.991  0.00  0.00    +0.000 N 
ATOM      8  C   UNL     1       6.953   5.555  16.594  0.00  0.00    +0.000 A 
ATOM      9  N   UNL     1       7.628   5.754  15.437  0.00  0.00    +0.000 NA
ATOM     10  C   UNL     1       7.192   5.054  14.379  0.00  0.00    +0.000 A 
ATOM     11  C   UNL     1       7.841   5.195  13.160  0.00  0.00    +0.000 A 
ATOM     12  H   UNL     1       4.835   5.373  18.263  0.00  0.00    +0.000 HD
ENDROOT
BRANCH   7  13
ATOM     13  C   UNL     1       4.434   3.333  18.148  0.00  0.00    +0.000 C 
BRANCH  13  14
ATOM     14  C   UNL     1       4.309   2.956  19.646  0.00  0.00    +0.000 C 
BRANCH  14  15
ATOM     15  N   UNL     1       3.040   2.304  20.033  0.00  0.00    +0.000 NA
ATOM     16  C   UNL     1       1.983   2.590  19.031  0.00  0.00    +0.000 C 
ATOM     17  C   UNL     1       1.377   4.009  19.108  0.00  0.00    +0.000 C 
ATOM     18  O   UNL     1       0.955   4.349  20.436  0.00  0.00    +0.000 OA
ATOM     19  C   UNL     1       2.035   4.195  21.364  0.00  0.00    +0.000 C 
ATOM     20  C   UNL     1       2.544   2.746  21.354  0.00  0.00    +0.000 C 
ENDBRANCH  14  15
ENDBRANCH  13  14
ENDBRANCH   7  13
TORSDOF 3
ENDMDL
MODEL 2
REMARK VINA RESULT:      -7.0      1.099      1.633
REMARK  Name = 
REMARK  3 active torsions:
REMARK  status: ('A' for Active; 'I' for Inactive)
REMARK    1  A    between atoms: N_7  and  C_8
REMARK    2  A    between atoms: C_8  and  C_9
REMARK    3  A    between atoms: C_9  and  N_10
REMARK                            x       y       z     vdW  Elec       q    Type
REMARK                         _______ _______ _______ _____ _____    ______ ____
ROOT
ATOM      1  C   UNL     1       6.904   3.913  11.821  0.00  0.00    +0.000 A 
ATOM      2  C   UNL     1       5.683   3.327  12.129  0.00  0.00    +0.000 A 
ATOM      3  C   UNL     1       5.142   3.489  13.406  0.00  0.00    +0.000 A 
ATOM      4  C   UNL     1       5.797   4.230  14.385  0.00  0.00    +0.000 A 
ATOM      5  N   UNL     1       5.254   4.348  15.619  0.00  0.00    +0.000 NA
ATOM      6  C   UNL     1       5.915   5.102  16.520  0.00  0.00    +0.000 A 
ATOM      7  N   UNL     1       5.437   5.252  17.832  0.00  0.00    +0.000 N 
ATOM      8  C   UNL     1       7.107   5.728  16.164  0.00  0.00    +0.000 A 
ATOM      9  N   UNL     1       7.687   5.609  14.946  0.00  0.00    +0.000 NA
ATOM     10  C   UNL     1       7.028   4.851  14.057  0.00  0.00    +0.000 A 
ATOM     11  C   UNL     1       7.565   4.671  12.790  0.00  0.00    +0.000 A 
ATOM     12  H   UNL     1       5.170   6.221  17.983  0.00  0.00    +0.000 HD
ENDROOT
BRANCH   7  13
ATOM     13  C   UNL     1       4.401   4.306  18.249  0.00  0.00    +0.000 C 
BRANCH  13  14
ATOM     14  C   UNL     1       3.626   4.861  19.471  0.00  0.00    +0.000 C 
BRANCH  14  15
ATOM     15  N   UNL     1       2.155   4.742  19.399  0.00  0.00    +0.000 NA
ATOM     16  C   UNL     1       1.571   4.679  20.762  0.00  0.00    +0.000 C 
ATOM     17  C   UNL     1       1.731   3.320  21.478  0.00  0.00    +0.000 C 
ATOM     18  O   UNL     1       1.298   2.221  20.665  0.00  0.00    +0.000 OA
ATOM     19  C   UNL     1       1.978   2.227  19.404  0.00  0.00    +0.000 C 
ATOM     20  C   UNL     1       1.708   3.542  18.659  0.00  0.00    +0.000 C 
ENDBRANCH  14  15
ENDBRANCH  13  14
ENDBRANCH   7  13
TORSDOF 3
ENDMDL
MODEL 3
REMARK VINA RESULT:      -6.9      0.850      1.017
REMARK  Name = 
REMARK  3 active torsions:
REMARK  status: ('A' for Active; 'I' for Inactive)
REMARK    1  A    between atoms: N_7  and  C_8
REMARK    2  A    between atoms: C_8  and  C_9
REMARK    3  A    between atoms: C_9  and  N_10
REMARK                            x       y       z     vdW  Elec       q    Type
REMARK                         _______ _______ _______ _____ _____    ______ ____
ROOT
ATOM      1  C   UNL     1       6.920   4.145  11.969  0.00  0.00    +0.000 A 
ATOM      2  C   UNL     1       5.834   3.348  12.311  0.00  0.00    +0.000 A 
ATOM      3  C   UNL     1       5.377   3.333  13.629  0.00  0.00    +0.000 A 
ATOM      4  C   UNL     1       5.980   4.103  14.618  0.00  0.00    +0.000 A 
ATOM      5  N   UNL     1       5.524   4.048  15.890  0.00  0.00    +0.000 NA
ATOM      6  C   UNL     1       6.126   4.838  16.803  0.00  0.00    +0.000 A 
ATOM      7  N   UNL     1       5.734   4.819  18.151  0.00  0.00    +0.000 N 
ATOM      8  C   UNL     1       7.171   5.674  16.418  0.00  0.00    +0.000 A 
ATOM      9  N   UNL     1       7.666   5.733  15.159  0.00  0.00    +0.000 NA
ATOM     10  C   UNL     1       7.068   4.938  14.259  0.00  0.00    +0.000 A 
ATOM     11  C   UNL     1       7.525   4.935  12.949  0.00  0.00    +0.000 A 
ATOM     12  H   UNL     1       5.329   5.719  18.395  0.00  0.00    +0.000 HD
ENDROOT
BRANCH   7  13
ATOM     13  C   UNL     1       4.897   3.689  18.560  0.00  0.00    +0.000 C 
BRANCH  13  14
ATOM     14  C   UNL     1       3.414   4.130  18.666  0.00  0.00    +0.000 C 
BRANCH  14  15
ATOM     15  N   UNL     1       2.432   3.032  18.777  0.00  0.00    +0.000 NA
ATOM     16  C   UNL     1       1.070   3.576  19.007  0.00  0.00    +0.000 C 
ATOM     17  C   UNL     1       0.801   4.076  20.443  0.00  0.00    +0.000 C 
ATOM     18  O   UNL     1       1.157   3.103  21.434  0.00  0.00    +0.000 OA
ATOM     19  C   UNL     1       2.521   2.695  21.274  0.00  0.00    +0.000 C 
ATOM     20  C   UNL     1       2.736   2.093  19.878  0.00  0.00    +0.000 C 
ENDBRANCH  14  15
ENDBRANCH  13  14
ENDBRANCH   7  13
TORSDOF 3
ENDMDL
MODEL 4
REMARK VINA RESULT:      -6.9      3.930      7.040
REMARK  Name = 
REMARK  3 active torsions:
REMARK  status: ('A' for Active; 'I' for Inactive)
REMARK    1  A    between atoms: N_7  and  C_8
REMARK    2  A    between atoms: C_8  and  C_9
REMARK    3  A    between atoms: C_9  and  N_10
REMARK                            x       y       z     vdW  Elec       q    Type
REMARK                         _______ _______ _______ _____ _____    ______ ____
ROOT
ATOM      1  C   UNL     1       1.096  10.145  18.994  0.00  0.00    +0.000 A 
ATOM      2  C   UNL     1       1.889   9.832  17.897  0.00  0.00    +0.000 A 
ATOM      3  C   UNL     1       2.512   8.585  17.830  0.00  0.00    +0.000 A 
ATOM      4  C   UNL     1       2.357   7.638  18.837  0.00  0.00    +0.000 A 
ATOM      5  N   UNL     1       2.994   6.448  18.749  0.00  0.00    +0.000 NA
ATOM      6  C   UNL     1       2.785   5.555  19.739  0.00  0.00    +0.000 A 
ATOM      7  N   UNL     1       3.431   4.308  19.741  0.00  0.00    +0.000 N 
ATOM      8  C   UNL     1       1.935   5.874  20.795  0.00  0.00    +0.000 A 
ATOM      9  N   UNL     1       1.303   7.065  20.923  0.00  0.00    +0.000 NA
ATOM     10  C   UNL     1       1.523   7.950  19.940  0.00  0.00    +0.000 A 
ATOM     11  C   UNL     1       0.920   9.198  20.005  0.00  0.00    +0.000 A 
ATOM     12  H   UNL     1       2.739   3.573  19.628  0.00  0.00    +0.000 HD
ENDROOT
BRANCH   7  13
ATOM     13  C   UNL     1       4.562   4.171  18.821  0.00  0.00    +0.000 C 
BRANCH  13  14
ATOM     14  C   UNL     1       5.727   5.094  19.260  0.00  0.00    +0.000 C 
BRANCH  14  15
ATOM     15  N   UNL     1       7.040   4.793  18.654  0.00  0.00    +0.000 NA
ATOM     16  C   UNL     1       7.980   5.921  18.865  0.00  0.00    +0.000 C 
ATOM     17  C   UNL     1       7.746   7.147  17.954  0.00  0.00    +0.000 C 
ATOM     18  O   UNL     1       7.653   6.786  16.569  0.00  0.00    +0.000 OA
ATOM     19  C   UNL     1       6.641   5.792  16.373  0.00  0.00    +0.000 C 
ATOM     20  C   UNL     1       6.959   4.537  17.199  0.00  0.00    +0.000 C 
ENDBRANCH  14  15
ENDBRANCH  13  14
ENDBRANCH   7  13
TORSDOF 3
ENDMDL
MODEL 5
REMARK VINA RESULT:      -6.8      0.970      1.152
REMARK  Name = 
REMARK  3 active torsions:
REMARK  status: ('A' for Active; 'I' for Inactive)
REMARK    1  A    between atoms: N_7  and  C_8
REMARK    2  A    between atoms: C_8  and  C_9
REMARK    3  A    between atoms: C_9  and  N_10
REMARK                            x       y       z     vdW  Elec       q    Type
REMARK                         _______ _______ _______ _____ _____    ______ ____
ROOT
ATOM      1  C   UNL     1       6.973   4.166  12.035  0.00  0.00    +0.000 A 
ATOM      2  C   UNL     1       5.751   3.554  12.284  0.00  0.00    +0.000 A 
ATOM      3  C   UNL     1       5.177   3.648  13.553  0.00  0.00    +0.000 A 
ATOM      4  C   UNL     1       5.798   4.348  14.583  0.00  0.00    +0.000 A 
ATOM      5  N   UNL     1       5.224   4.401  15.806  0.00  0.00    +0.000 NA
ATOM      6  C   UNL     1       5.853   5.118  16.759  0.00  0.00    +0.000 A 
ATOM      7  N   UNL     1       5.342   5.200  18.064  0.00  0.00    +0.000 N 
ATOM      8  C   UNL     1       7.046   5.774  16.463  0.00  0.00    +0.000 A 
ATOM      9  N   UNL     1       7.657   5.720  15.256  0.00  0.00    +0.000 NA
ATOM     10  C   UNL     1       7.030   4.997  14.316  0.00  0.00    +0.000 A 
ATOM     11  C   UNL     1       7.600   4.885  13.055  0.00  0.00    +0.000 A 
ATOM     12  H   UNL     1       5.059   6.158  18.254  0.00  0.00    +0.000 HD
ENDROOT
BRANCH   7  13
ATOM     13  C   UNL     1       4.306   4.224  18.409  0.00  0.00    +0.000 C 
BRANCH  13  14
ATOM     14  C   UNL     1       3.515   4.696  19.655  0.00  0.00    +0.000 C 
BRANCH  14  15
ATOM     15  N   UNL     1       3.091   3.627  20.582  0.00  0.00    +0.000 NA
ATOM     16  C   UNL     1       3.069   2.316  19.887  0.00  0.00    +0.000 C 
ATOM     17  C   UNL     1       1.863   2.096  18.947  0.00  0.00    +0.000 C 
ATOM     18  O   UNL     1       0.613   2.375  19.590  0.00  0.00    +0.000 OA
ATOM     19  C   UNL     1       0.611   3.700  20.135  0.00  0.00    +0.000 C 
ATOM     20  C   UNL     1       1.747   3.858  21.155  0.00  0.00    +0.000 C 
ENDBRANCH  14  15
ENDBRANCH  13  14
ENDBRANCH   7  13
TORSDOF 3
ENDMDL
MODEL 6
REMARK VINA RESULT:      -6.7      1.021      1.552
REMARK  Name = 
REMARK  3 active torsions:
REMARK  status: ('A' for Active; 'I' for Inactive)
REMARK    1  A    between atoms: N_7  and  C_8
REMARK    2  A    between atoms: C_8  and  C_9
REMARK    3  A    between atoms: C_9  and  N_10
REMARK                            x       y       z     vdW  Elec       q    Type
REMARK                         _______ _______ _______ _____ _____    ______ ____
ROOT
ATOM      1  C   UNL     1       7.110   4.217  11.976  0.00  0.00    +0.000 A 
ATOM      2  C   UNL     1       5.976   3.446  12.200  0.00  0.00    +0.000 A 
ATOM      3  C   UNL     1       5.404   3.413  13.473  0.00  0.00    +0.000 A 
ATOM      4  C   UNL     1       5.940   4.139  14.531  0.00  0.00    +0.000 A 
ATOM      5  N   UNL     1       5.372   4.067  15.757  0.00  0.00    +0.000 NA
ATOM      6  C   UNL     1       5.914   4.814  16.740  0.00  0.00    +0.000 A 
ATOM      7  N   UNL     1       5.406   4.775  18.048  0.00  0.00    +0.000 N 
ATOM      8  C   UNL     1       7.014   5.626  16.471  0.00  0.00    +0.000 A 
ATOM      9  N   UNL     1       7.618   5.702  15.262  0.00  0.00    +0.000 NA
ATOM     10  C   UNL     1       7.079   4.948  14.291  0.00  0.00    +0.000 A 
ATOM     11  C   UNL     1       7.649   4.963  13.026  0.00  0.00    +0.000 A 
ATOM     12  H   UNL     1       5.007   5.680  18.280  0.00  0.00    +0.000 HD
ENDROOT
BRANCH   7  13
ATOM     13  C   UNL     1       4.503   3.662  18.351  0.00  0.00    +0.000 C 
BRANCH  13  14
ATOM     14  C   UNL     1       3.944   3.800  19.790  0.00  0.00    +0.000 C 
BRANCH  14  15
ATOM     15  N   UNL     1       2.614   4.435  19.897  0.00  0.00    +0.000 NA
ATOM     16  C   UNL     1       1.625   3.478  20.452  0.00  0.00    +0.000 C 
ATOM     17  C   UNL     1       1.127   2.404  19.459  0.00  0.00    +0.000 C 
ATOM     18  O   UNL     1       0.677   2.973  18.222  0.00  0.00    +0.000 OA
ATOM     19  C   UNL     1       1.702   3.785  17.638  0.00  0.00    +0.000 C 
ATOM     20  C   UNL     1       2.098   4.917  18.597  0.00  0.00    +0.000 C 
ENDBRANCH  14  15
ENDBRANCH  13  14
ENDBRANCH   7  13
TORSDOF 3
ENDMDL
MODEL 7
REMARK VINA RESULT:      -6.7      5.639      8.111
REMARK  Name = 
REMARK  3 active torsions:
REMARK  status: ('A' for Active; 'I' for Inactive)
REMARK    1  A    between atoms: N_7  and  C_8
REMARK    2  A    between atoms: C_8  and  C_9
REMARK    3  A    between atoms: C_9  and  N_10
REMARK                            x       y       z     vdW  Elec       q    Type
REMARK                         _______ _______ _______ _____ _____    ______ ____
ROOT
ATOM      1  C   UNL     1       4.985   3.943  15.861  0.00  0.00    +0.000 A 
ATOM      2  C   UNL     1       5.236   5.037  15.042  0.00  0.00    +0.000 A 
ATOM      3  C   UNL     1       6.044   6.076  15.507  0.00  0.00    +0.000 A 
ATOM      4  C   UNL     1       6.613   6.045  16.776  0.00  0.00    +0.000 A 
ATOM      5  N   UNL     1       7.373   7.079  17.202  0.00  0.00    +0.000 NA
ATOM      6  C   UNL     1       7.925   6.983  18.429  0.00  0.00    +0.000 A 
ATOM      7  N   UNL     1       8.702   8.025  18.960  0.00  0.00    +0.000 N 
ATOM      8  C   UNL     1       7.706   5.846  19.203  0.00  0.00    +0.000 A 
ATOM      9  N   UNL     1       6.931   4.806  18.814  0.00  0.00    +0.000 NA
ATOM     10  C   UNL     1       6.379   4.913  17.596  0.00  0.00    +0.000 A 
ATOM     11  C   UNL     1       5.562   3.892  17.132  0.00  0.00    +0.000 A 
ATOM     12  H   UNL     1       9.662   7.707  19.065  0.00  0.00    +0.000 HD
ENDROOT
BRANCH   7  13
ATOM     13  C   UNL     1       8.604   9.313  18.271  0.00  0.00    +0.000 C 
BRANCH  13  14
ATOM     14  C   UNL     1       9.065  10.460  19.206  0.00  0.00    +0.000 C 
BRANCH  14  15
ATOM     15  N   UNL     1      10.449  10.934  18.996  0.00  0.00    +0.000 NA
ATOM     16  C   UNL     1      10.872  11.812  20.115  0.00  0.00    +0.000 C 
ATOM     17  C   UNL     1      10.287  13.241  20.081  0.00  0.00    +0.000 C 
ATOM     18  O   UNL     1      10.474  13.876  18.810  0.00  0.00    +0.000 OA
ATOM     19  C   UNL     1       9.933  13.069  17.758  0.00  0.00    +0.000 C 
ATOM     20  C   UNL     1      10.614  11.693  17.737  0.00  0.00    +0.000 C 
ENDBRANCH  14  15
ENDBRANCH  13  14
ENDBRANCH   7  13
TORSDOF 3
ENDMDL
MODEL 8
REMARK VINA RESULT:      -6.7      5.031      8.557
REMARK  Name = 
REMARK  3 active torsions:
REMARK  status: ('A' for Active; 'I' for Inactive)
REMARK    1  A    between atoms: N_7  and  C_8
REMARK    2  A    between atoms: C_8  and  C_9
REMARK    3  A    between atoms: C_9  and  N_10
REMARK                            x       y       z     vdW  Elec       q    Type
REMARK                         _______ _______ _______ _____ _____    ______ ____
ROOT
ATOM      1  C   UNL     1      -0.669  10.587  22.525  0.00  0.00    +0.000 A 
ATOM      2  C   UNL     1       0.034   9.487  23.001  0.00  0.00    +0.000 A 
ATOM      3  C   UNL     1       0.839   8.752  22.128  0.00  0.00    +0.000 A 
ATOM      4  C   UNL     1       0.960   9.096  20.786  0.00  0.00    +0.000 A 
ATOM      5  N   UNL     1       1.731   8.348  19.964  0.00  0.00    +0.000 NA
ATOM      6  C   UNL     1       1.837   8.744  18.679  0.00  0.00    +0.000 A 
ATOM      7  N   UNL     1       2.593   8.008  17.752  0.00  0.00    +0.000 N 
ATOM      8  C   UNL     1       1.169   9.887  18.245  0.00  0.00    +0.000 A 
ATOM      9  N   UNL     1       0.371  10.641  19.037  0.00  0.00    +0.000 NA
ATOM     10  C   UNL     1       0.264  10.236  20.311  0.00  0.00    +0.000 A 
ATOM     11  C   UNL     1      -0.545  10.951  21.183  0.00  0.00    +0.000 A 
ATOM     12  H   UNL     1       3.389   8.564  17.452  0.00  0.00    +0.000 HD
ENDROOT
BRANCH   7  13
ATOM     13  C   UNL     1       2.969   6.653  18.163  0.00  0.00    +0.000 C 
BRANCH  13  14
ATOM     14  C   UNL     1       4.427   6.347  17.734  0.00  0.00    +0.000 C 
BRANCH  14  15
ATOM     15  N   UNL     1       4.961   5.045  18.186  0.00  0.00    +0.000 NA
ATOM     16  C   UNL     1       6.155   5.244  19.044  0.00  0.00    +0.000 C 
ATOM     17  C   UNL     1       7.451   5.609  18.286  0.00  0.00    +0.000 C 
ATOM     18  O   UNL     1       7.720   4.709  17.203  0.00  0.00    +0.000 OA
ATOM     19  C   UNL     1       6.600   4.640  16.313  0.00  0.00    +0.000 C 
ATOM     20  C   UNL     1       5.350   4.161  17.066  0.00  0.00    +0.000 C 
ENDBRANCH  14  15
ENDBRANCH  13  14
ENDBRANCH   7  13
TORSDOF 3
ENDMDL
MODEL 9
REMARK VINA RESULT:      -6.6      4.927      8.365
REMARK  Name = 
REMARK  3 active torsions:
REMARK  status: ('A' for Active; 'I' for Inactive)
REMARK    1  A    between atoms: N_7  and  C_8
REMARK    2  A    between atoms: C_8  and  C_9
REMARK    3  A    between atoms: C_9  and  N_10
REMARK                            x       y       z     vdW  Elec       q    Type
REMARK                         _______ _______ _______ _____ _____    ______ ____
ROOT
ATOM      1  C   UNL     1      -0.625  10.817  21.917  0.00  0.00    +0.000 A 
ATOM      2  C   UNL     1      -0.209   9.642  22.532  0.00  0.00    +0.000 A 
ATOM      3  C   UNL     1       0.595   8.743  21.830  0.00  0.00    +0.000 A 
ATOM      4  C   UNL     1       0.996   8.993  20.521  0.00  0.00    +0.000 A 
ATOM      5  N   UNL     1       1.757   8.088  19.864  0.00  0.00    +0.000 NA
ATOM      6  C   UNL     1       2.143   8.395  18.608  0.00  0.00    +0.000 A 
ATOM      7  N   UNL     1       2.908   7.499  17.844  0.00  0.00    +0.000 N 
ATOM      8  C   UNL     1       1.762   9.608  18.039  0.00  0.00    +0.000 A 
ATOM      9  N   UNL     1       0.982  10.521  18.663  0.00  0.00    +0.000 NA
ATOM     10  C   UNL     1       0.594  10.206  19.908  0.00  0.00    +0.000 A 
ATOM     11  C   UNL     1      -0.217  11.087  20.609  0.00  0.00    +0.000 A 
ATOM     12  H   UNL     1       3.826   7.901  17.675  0.00  0.00    +0.000 HD
ENDROOT
BRANCH   7  13
ATOM     13  C   UNL     1       2.974   6.124  18.344  0.00  0.00    +0.000 C 
BRANCH  13  14
ATOM     14  C   UNL     1       4.411   5.563  18.188  0.00  0.00    +0.000 C 
BRANCH  14  15
ATOM     15  N   UNL     1       5.260   6.259  17.199  0.00  0.00    +0.000 NA
ATOM     16  C   UNL     1       5.333   5.480  15.938  0.00  0.00    +0.000 C 
ATOM     17  C   UNL     1       6.256   4.242  15.987  0.00  0.00    +0.000 C 
ATOM     18  O   UNL     1       7.561   4.556  16.492  0.00  0.00    +0.000 OA
ATOM     19  C   UNL     1       7.468   5.185  17.776  0.00  0.00    +0.000 C 
ATOM     20  C   UNL     1       6.643   6.476  17.677  0.00  0.00    +0.000 C 
ENDBRANCH  14  15
ENDBRANCH  13  14
ENDBRANCH   7  13
TORSDOF 3
ENDMDL
