MODEL 1
REMARK VINA RESULT:      -8.6      0.000      0.000
REMARK  Name = 
REMARK  3 active torsions:
REMARK  status: ('A' for Active; 'I' for Inactive)
REMARK    1  A    between atoms: C_2  and  O_3
REMARK    2  A    between atoms: O_3  and  C_4
REMARK    3  A    between atoms: C_8  and  C_9
REMARK                            x       y       z     vdW  Elec       q    Type
REMARK                         _______ _______ _______ _____ _____    ______ ____
ROOT
ATOM      1  O   UNL     1       3.179   6.554  17.728  0.00  0.00    +0.000 OA
ENDROOT
BRANCH   1   3
ATOM      2  O   UNL     1       2.764   7.200  19.901  0.00  0.00    +0.000 OA
ATOM      3  C   UNL     1       2.684   6.357  19.031  0.00  0.00    +0.000 C 
ATOM      4  N   UNL     1       2.096   5.099  19.261  0.00  0.00    +0.000 N 
ATOM      5  C   UNL     1       1.541   4.875  20.604  0.00  0.00    +0.000 C 
ATOM      6  C   UNL     1       2.145   3.676  21.364  0.00  0.00    +0.000 C 
ATOM      7  N   UNL     1       2.403   2.433  20.609  0.00  0.00    +0.000 NA
ATOM      8  C   UNL     1       3.637   2.542  19.818  0.00  0.00    +0.000 C 
ATOM      9  C   UNL     1       3.455   3.183  18.445  0.00  0.00    +0.000 C 
ATOM     10  C   UNL     1       2.130   3.938  18.337  0.00  0.00    +0.000 C 
ATOM     11  C   UNL     1       0.972   2.953  18.591  0.00  0.00    +0.000 C 
ATOM     12  C   UNL     1       1.267   2.021  19.776  0.00  0.00    +0.000 C 
ENDBRANCH   1   3
BRANCH   1  13
ATOM     13  C   UNL     1       4.514   6.177  17.373  0.00  0.00    +0.000 A 
ATOM     14  C   UNL     1       5.386   5.945  18.435  0.00  0.00    +0.000 A 
ATOM     15  C   UNL     1       6.633   5.367  18.194  0.00  0.00    +0.000 A 
ATOM     16  C   UNL     1       6.983   4.986  16.897  0.00  0.00    +0.000 A 
ATOM     17  C   UNL     1       6.133   5.242  15.806  0.00  0.00    +0.000 A 
ATOM     18  C   UNL     1       4.911   5.889  16.062  0.00  0.00    +0.000 A 
BRANCH  17  19
ATOM     19  C   UNL     1       6.465   4.798  14.440  0.00  0.00    +0.000 A 
ATOM     20  C   UNL     1       5.723   3.800  13.786  0.00  0.00    +0.000 A 
ATOM     21  C   UNL     1       6.055   3.385  12.495  0.00  0.00    +0.000 A 
ATOM     22  C   UNL     1       7.133   3.968  11.834  0.00  0.00    +0.000 A 
ATOM     23  C   UNL     1       7.864   4.978  12.452  0.00  0.00    +0.000 A 
ATOM     24  C   UNL     1       7.531   5.387  13.740  0.00  0.00    +0.000 A 
ENDBRANCH  17  19
ENDBRANCH   1  13
TORSDOF 3
ENDMDL
MODEL 2
REMARK VINA RESULT:      -8.5      0.203      1.003
REMARK  Name = 
REMARK  3 active torsions:
REMARK  status: ('A' for Active; 'I' for Inactive)
REMARK    1  A    between atoms: C_2  and  O_3
REMARK    2  A    between atoms: O_3  and  C_4
REMARK    3  A    between atoms: C_8  and  C_9
REMARK                            x       y       z     vdW  Elec       q    Type
REMARK                         _______ _______ _______ _____ _____    ______ ____
ROOT
ATOM      1  O   UNL     1       3.135   6.667  17.631  0.00  0.00    +0.000 OA
ENDROOT
BRANCH   1   3
ATOM      2  O   UNL     1       2.711   7.290  19.809  0.00  0.00    +0.000 OA
ATOM      3  C   UNL     1       2.663   6.445  18.939  0.00  0.00    +0.000 C 
ATOM      4  N   UNL     1       2.137   5.160  19.172  0.00  0.00    +0.000 N 
ATOM      5  C   UNL     1       1.607   4.908  20.520  0.00  0.00    +0.000 C 
ATOM      6  C   UNL     1       2.275   3.737  21.272  0.00  0.00    +0.000 C 
ATOM      7  N   UNL     1       2.584   2.509  20.512  0.00  0.00    +0.000 NA
ATOM      8  C   UNL     1       3.803   2.678  19.709  0.00  0.00    +0.000 C 
ATOM      9  C   UNL     1       3.578   3.312  18.339  0.00  0.00    +0.000 C 
ATOM     10  C   UNL     1       2.218   4.004  18.246  0.00  0.00    +0.000 C 
ATOM     11  C   UNL     1       1.110   2.964  18.509  0.00  0.00    +0.000 C 
ATOM     12  C   UNL     1       1.461   2.045  19.689  0.00  0.00    +0.000 C 
ENDBRANCH   1   3
BRANCH   1  13
ATOM     13  C   UNL     1       4.485   6.363  17.265  0.00  0.00    +0.000 A 
ATOM     14  C   UNL     1       5.400   6.289  18.313  0.00  0.00    +0.000 A 
ATOM     15  C   UNL     1       6.682   5.788  18.079  0.00  0.00    +0.000 A 
ATOM     16  C   UNL     1       7.027   5.327  16.807  0.00  0.00    +0.000 A 
ATOM     17  C   UNL     1       6.131   5.425  15.727  0.00  0.00    +0.000 A 
ATOM     18  C   UNL     1       4.869   5.997  15.969  0.00  0.00    +0.000 A 
BRANCH  17  19
ATOM     19  C   UNL     1       6.460   4.894  14.393  0.00  0.00    +0.000 A 
ATOM     20  C   UNL     1       7.570   5.358  13.665  0.00  0.00    +0.000 A 
ATOM     21  C   UNL     1       7.864   4.850  12.398  0.00  0.00    +0.000 A 
ATOM     22  C   UNL     1       7.055   3.865  11.840  0.00  0.00    +0.000 A 
ATOM     23  C   UNL     1       5.966   3.371  12.554  0.00  0.00    +0.000 A 
ATOM     24  C   UNL     1       5.676   3.882  13.816  0.00  0.00    +0.000 A 
ENDBRANCH  17  19
ENDBRANCH   1  13
TORSDOF 3
ENDMDL
MODEL 3
REMARK VINA RESULT:      -8.4      3.610      7.909
REMARK  Name = 
REMARK  3 active torsions:
REMARK  status: ('A' for Active; 'I' for Inactive)
REMARK    1  A    between atoms: C_2  and  O_3
REMARK    2  A    between atoms: O_3  and  C_4
REMARK    3  A    between atoms: C_8  and  C_9
REMARK                            x       y       z     vdW  Elec       q    Type
REMARK                         _______ _______ _______ _____ _____    ______ ____
ROOT
ATOM      1  O   UNL     1       2.517   6.036  18.436  0.00  0.00    +0.000 OA
ENDROOT
BRANCH   1   3
ATOM      2  O   UNL     1       3.752   5.226  20.205  0.00  0.00    +0.000 OA
ATOM      3  C   UNL     1       3.629   5.389  19.008  0.00  0.00    +0.000 C 
ATOM      4  N   UNL     1       4.600   4.950  18.090  0.00  0.00    +0.000 N 
ATOM      5  C   UNL     1       5.759   4.242  18.655  0.00  0.00    +0.000 C 
ATOM      6  C   UNL     1       7.127   4.886  18.349  0.00  0.00    +0.000 C 
ATOM      7  N   UNL     1       7.356   5.417  16.990  0.00  0.00    +0.000 NA
ATOM      8  C   UNL     1       6.710   6.727  16.819  0.00  0.00    +0.000 C 
ATOM      9  C   UNL     1       5.244   6.661  16.404  0.00  0.00    +0.000 C 
ATOM     10  C   UNL     1       4.643   5.276  16.643  0.00  0.00    +0.000 C 
ATOM     11  C   UNL     1       5.444   4.238  15.832  0.00  0.00    +0.000 C 
ATOM     12  C   UNL     1       6.957   4.481  15.932  0.00  0.00    +0.000 C 
ENDBRANCH   1   3
BRANCH   1  13
ATOM     13  C   UNL     1       2.275   7.431  18.653  0.00  0.00    +0.000 A 
ATOM     14  C   UNL     1       2.517   8.269  17.567  0.00  0.00    +0.000 A 
ATOM     15  C   UNL     1       2.106   9.602  17.615  0.00  0.00    +0.000 A 
ATOM     16  C   UNL     1       1.418  10.077  18.733  0.00  0.00    +0.000 A 
ATOM     17  C   UNL     1       1.193   9.259  19.855  0.00  0.00    +0.000 A 
ATOM     18  C   UNL     1       1.677   7.939  19.813  0.00  0.00    +0.000 A 
BRANCH  17  19
ATOM     19  C   UNL     1       0.422   9.729  21.019  0.00  0.00    +0.000 A 
ATOM     20  C   UNL     1       0.492   9.080  22.264  0.00  0.00    +0.000 A 
ATOM     21  C   UNL     1      -0.251   9.533  23.356  0.00  0.00    +0.000 A 
ATOM     22  C   UNL     1      -1.073  10.648  23.221  0.00  0.00    +0.000 A 
ATOM     23  C   UNL     1      -1.137  11.323  22.006  0.00  0.00    +0.000 A 
ATOM     24  C   UNL     1      -0.396  10.866  20.919  0.00  0.00    +0.000 A 
ENDBRANCH  17  19
ENDBRANCH   1  13
TORSDOF 3
ENDMDL
MODEL 4
REMARK VINA RESULT:      -8.2      2.618      6.716
REMARK  Name = 
REMARK  3 active torsions:
REMARK  status: ('A' for Active; 'I' for Inactive)
REMARK    1  A    between atoms: C_2  and  O_3
REMARK    2  A    between atoms: O_3  and  C_4
REMARK    3  A    between atoms: C_8  and  C_9
REMARK                            x       y       z     vdW  Elec       q    Type
REMARK                         _______ _______ _______ _____ _____    ______ ____
ROOT
ATOM      1  O   UNL     1       5.124   3.593  19.579  0.00  0.00    +0.000 OA
ENDROOT
BRANCH   1   3
ATOM      2  O   UNL     1       6.825   5.077  20.044  0.00  0.00    +0.000 OA
ATOM      3  C   UNL     1       6.186   4.447  19.226  0.00  0.00    +0.000 C 
ATOM      4  N   UNL     1       6.452   4.528  17.847  0.00  0.00    +0.000 N 
ATOM      5  C   UNL     1       7.577   5.388  17.449  0.00  0.00    +0.000 C 
ATOM      6  C   UNL     1       7.209   6.534  16.484  0.00  0.00    +0.000 C 
ATOM      7  N   UNL     1       6.264   6.242  15.387  0.00  0.00    +0.000 NA
ATOM      8  C   UNL     1       4.878   6.221  15.877  0.00  0.00    +0.000 C 
ATOM      9  C   UNL     1       4.428   4.879  16.446  0.00  0.00    +0.000 C 
ATOM     10  C   UNL     1       5.611   3.965  16.762  0.00  0.00    +0.000 C 
ATOM     11  C   UNL     1       6.411   3.720  15.467  0.00  0.00    +0.000 C 
ATOM     12  C   UNL     1       6.593   5.012  14.656  0.00  0.00    +0.000 C 
ENDBRANCH   1   3
BRANCH   1  13
ATOM     13  C   UNL     1       3.804   4.101  19.801  0.00  0.00    +0.000 A 
ATOM     14  C   UNL     1       2.959   3.295  20.561  0.00  0.00    +0.000 A 
ATOM     15  C   UNL     1       1.737   3.800  21.008  0.00  0.00    +0.000 A 
ATOM     16  C   UNL     1       1.387   5.122  20.727  0.00  0.00    +0.000 A 
ATOM     17  C   UNL     1       2.208   5.942  19.932  0.00  0.00    +0.000 A 
ATOM     18  C   UNL     1       3.401   5.391  19.433  0.00  0.00    +0.000 A 
BRANCH  17  19
ATOM     19  C   UNL     1       1.878   7.354  19.670  0.00  0.00    +0.000 A 
ATOM     20  C   UNL     1       1.302   8.175  20.656  0.00  0.00    +0.000 A 
ATOM     21  C   UNL     1       0.988   9.508  20.389  0.00  0.00    +0.000 A 
ATOM     22  C   UNL     1       1.251  10.046  19.133  0.00  0.00    +0.000 A 
ATOM     23  C   UNL     1       1.846   9.260  18.150  0.00  0.00    +0.000 A 
ATOM     24  C   UNL     1       2.155   7.930  18.419  0.00  0.00    +0.000 A 
ENDBRANCH  17  19
ENDBRANCH   1  13
TORSDOF 3
ENDMDL
MODEL 5
REMARK VINA RESULT:      -8.2      1.022      1.535
REMARK  Name = 
REMARK  3 active torsions:
REMARK  status: ('A' for Active; 'I' for Inactive)
REMARK    1  A    between atoms: C_2  and  O_3
REMARK    2  A    between atoms: O_3  and  C_4
REMARK    3  A    between atoms: C_8  and  C_9
REMARK                            x       y       z     vdW  Elec       q    Type
REMARK                         _______ _______ _______ _____ _____    ______ ____
ROOT
ATOM      1  O   UNL     1       4.282   6.394  18.624  0.00  0.00    +0.000 OA
ENDROOT
BRANCH   1   3
ATOM      2  O   UNL     1       2.157   6.755  17.808  0.00  0.00    +0.000 OA
ATOM      3  C   UNL     1       3.016   5.978  18.171  0.00  0.00    +0.000 C 
ATOM      4  N   UNL     1       2.810   4.585  18.177  0.00  0.00    +0.000 N 
ATOM      5  C   UNL     1       1.508   4.117  17.679  0.00  0.00    +0.000 C 
ATOM      6  C   UNL     1       0.685   3.290  18.689  0.00  0.00    +0.000 C 
ATOM      7  N   UNL     1       1.398   2.299  19.520  0.00  0.00    +0.000 NA
ATOM      8  C   UNL     1       2.097   2.952  20.637  0.00  0.00    +0.000 C 
ATOM      9  C   UNL     1       3.490   3.472  20.294  0.00  0.00    +0.000 C 
ATOM     10  C   UNL     1       3.709   3.573  18.785  0.00  0.00    +0.000 C 
ATOM     11  C   UNL     1       3.525   2.176  18.160  0.00  0.00    +0.000 C 
ATOM     12  C   UNL     1       2.306   1.446  18.745  0.00  0.00    +0.000 C 
ENDBRANCH   1   3
BRANCH   1  13
ATOM     13  C   UNL     1       5.485   5.952  17.984  0.00  0.00    +0.000 A 
ATOM     14  C   UNL     1       6.522   5.569  18.831  0.00  0.00    +0.000 A 
ATOM     15  C   UNL     1       7.643   4.925  18.306  0.00  0.00    +0.000 A 
ATOM     16  C   UNL     1       7.700   4.631  16.942  0.00  0.00    +0.000 A 
ATOM     17  C   UNL     1       6.681   5.039  16.064  0.00  0.00    +0.000 A 
ATOM     18  C   UNL     1       5.593   5.749  16.603  0.00  0.00    +0.000 A 
BRANCH  17  19
ATOM     19  C   UNL     1       6.701   4.690  14.632  0.00  0.00    +0.000 A 
ATOM     20  C   UNL     1       5.785   3.779  14.080  0.00  0.00    +0.000 A 
ATOM     21  C   UNL     1       5.823   3.453  12.723  0.00  0.00    +0.000 A 
ATOM     22  C   UNL     1       6.775   4.038  11.894  0.00  0.00    +0.000 A 
ATOM     23  C   UNL     1       7.675   4.964  12.414  0.00  0.00    +0.000 A 
ATOM     24  C   UNL     1       7.636   5.285  13.768  0.00  0.00    +0.000 A 
ENDBRANCH  17  19
ENDBRANCH   1  13
TORSDOF 3
ENDMDL
MODEL 6
REMARK VINA RESULT:      -8.1      3.907      7.758
REMARK  Name = 
REMARK  3 active torsions:
REMARK  status: ('A' for Active; 'I' for Inactive)
REMARK    1  A    between atoms: C_2  and  O_3
REMARK    2  A    between atoms: O_3  and  C_4
REMARK    3  A    between atoms: C_8  and  C_9
REMARK                            x       y       z     vdW  Elec       q    Type
REMARK                         _______ _______ _______ _____ _____    ______ ____
ROOT
ATOM      1  O   UNL     1       2.557   6.434  20.134  0.00  0.00    +0.000 OA
ENDROOT
BRANCH   1   3
ATOM      2  O   UNL     1       0.726   5.138  20.659  0.00  0.00    +0.000 OA
ATOM      3  C   UNL     1       1.743   5.292  20.015  0.00  0.00    +0.000 C 
ATOM      4  N   UNL     1       2.200   4.328  19.097  0.00  0.00    +0.000 N 
ATOM      5  C   UNL     1       1.354   3.137  18.927  0.00  0.00    +0.000 C 
ATOM      6  C   UNL     1       2.051   1.796  19.237  0.00  0.00    +0.000 C 
ATOM      7  N   UNL     1       3.441   1.611  18.775  0.00  0.00    +0.000 NA
ATOM      8  C   UNL     1       4.389   2.299  19.663  0.00  0.00    +0.000 C 
ATOM      9  C   UNL     1       4.613   3.772  19.333  0.00  0.00    +0.000 C 
ATOM     10  C   UNL     1       3.520   4.326  18.419  0.00  0.00    +0.000 C 
ATOM     11  C   UNL     1       3.505   3.512  17.110  0.00  0.00    +0.000 C 
ATOM     12  C   UNL     1       3.638   2.005  17.374  0.00  0.00    +0.000 C 
ENDBRANCH   1   3
BRANCH   1  13
ATOM     13  C   UNL     1       2.087   7.728  19.741  0.00  0.00    +0.000 A 
ATOM     14  C   UNL     1       2.255   8.059  18.399  0.00  0.00    +0.000 A 
ATOM     15  C   UNL     1       1.637   9.198  17.883  0.00  0.00    +0.000 A 
ATOM     16  C   UNL     1       0.820   9.978  18.704  0.00  0.00    +0.000 A 
ATOM     17  C   UNL     1       0.664   9.683  20.070  0.00  0.00    +0.000 A 
ATOM     18  C   UNL     1       1.352   8.570  20.585  0.00  0.00    +0.000 A 
BRANCH  17  19
ATOM     19  C   UNL     1      -0.236  10.465  20.937  0.00  0.00    +0.000 A 
ATOM     20  C   UNL     1      -1.002  11.532  20.438  0.00  0.00    +0.000 A 
ATOM     21  C   UNL     1      -1.843  12.268  21.275  0.00  0.00    +0.000 A 
ATOM     22  C   UNL     1      -1.938  11.943  22.625  0.00  0.00    +0.000 A 
ATOM     23  C   UNL     1      -1.210  10.872  23.135  0.00  0.00    +0.000 A 
ATOM     24  C   UNL     1      -0.370  10.143  22.298  0.00  0.00    +0.000 A 
ENDBRANCH  17  19
ENDBRANCH   1  13
TORSDOF 3
ENDMDL
MODEL 7
REMARK VINA RESULT:      -8.0      3.679      7.567
REMARK  Name = 
REMARK  3 active torsions:
REMARK  status: ('A' for Active; 'I' for Inactive)
REMARK    1  A    between atoms: C_2  and  O_3
REMARK    2  A    between atoms: O_3  and  C_4
REMARK    3  A    between atoms: C_8  and  C_9
REMARK                            x       y       z     vdW  Elec       q    Type
REMARK                         _______ _______ _______ _____ _____    ______ ____
ROOT
ATOM      1  O   UNL     1       2.203   6.803  17.983  0.00  0.00    +0.000 OA
ENDROOT
BRANCH   1   3
ATOM      2  O   UNL     1       4.416   6.230  17.690  0.00  0.00    +0.000 OA
ATOM      3  C   UNL     1       3.367   6.068  18.279  0.00  0.00    +0.000 C 
ATOM      4  N   UNL     1       3.224   5.116  19.306  0.00  0.00    +0.000 N 
ATOM      5  C   UNL     1       4.431   4.354  19.660  0.00  0.00    +0.000 C 
ATOM      6  C   UNL     1       4.298   2.824  19.516  0.00  0.00    +0.000 C 
ATOM      7  N   UNL     1       3.040   2.191  19.961  0.00  0.00    +0.000 NA
ATOM      8  C   UNL     1       1.977   2.368  18.961  0.00  0.00    +0.000 C 
ATOM      9  C   UNL     1       1.207   3.680  19.081  0.00  0.00    +0.000 C 
ATOM     10  C   UNL     1       1.948   4.703  19.941  0.00  0.00    +0.000 C 
ATOM     11  C   UNL     1       2.160   4.111  21.349  0.00  0.00    +0.000 C 
ATOM     12  C   UNL     1       2.607   2.642  21.288  0.00  0.00    +0.000 C 
ENDBRANCH   1   3
BRANCH   1  13
ATOM     13  C   UNL     1       2.049   8.159  18.417  0.00  0.00    +0.000 A 
ATOM     14  C   UNL     1       2.417   9.141  17.500  0.00  0.00    +0.000 A 
ATOM     15  C   UNL     1       2.101  10.476  17.751  0.00  0.00    +0.000 A 
ATOM     16  C   UNL     1       1.380  10.817  18.897  0.00  0.00    +0.000 A 
ATOM     17  C   UNL     1       1.028   9.848  19.853  0.00  0.00    +0.000 A 
ATOM     18  C   UNL     1       1.419   8.518  19.615  0.00  0.00    +0.000 A 
BRANCH  17  19
ATOM     19  C   UNL     1       0.223  10.182  21.041  0.00  0.00    +0.000 A 
ATOM     20  C   UNL     1       0.258   9.395  22.205  0.00  0.00    +0.000 A 
ATOM     21  C   UNL     1      -0.518   9.721  23.319  0.00  0.00    +0.000 A 
ATOM     22  C   UNL     1      -1.338  10.845  23.289  0.00  0.00    +0.000 A 
ATOM     23  C   UNL     1      -1.367  11.655  22.157  0.00  0.00    +0.000 A 
ATOM     24  C   UNL     1      -0.595  11.325  21.048  0.00  0.00    +0.000 A 
ENDBRANCH  17  19
ENDBRANCH   1  13
TORSDOF 3
ENDMDL
MODEL 8
REMARK VINA RESULT:      -7.9      4.027      7.834
REMARK  Name = 
REMARK  3 active torsions:
REMARK  status: ('A' for Active; 'I' for Inactive)
REMARK    1  A    between atoms: C_2  and  O_3
REMARK    2  A    between atoms: O_3  and  C_4
REMARK    3  A    between atoms: C_8  and  C_9
REMARK                            x       y       z     vdW  Elec       q    Type
REMARK                         _______ _______ _______ _____ _____    ______ ____
ROOT
ATOM      1  O   UNL     1       2.646   6.890  19.712  0.00  0.00    +0.000 OA
ENDROOT
BRANCH   1   3
ATOM      2  O   UNL     1       1.187   5.762  21.094  0.00  0.00    +0.000 OA
ATOM      3  C   UNL     1       1.909   5.761  20.118  0.00  0.00    +0.000 C 
ATOM      4  N   UNL     1       2.078   4.618  19.315  0.00  0.00    +0.000 N 
ATOM      5  C   UNL     1       1.297   3.432  19.696  0.00  0.00    +0.000 C 
ATOM      6  C   UNL     1       2.135   2.175  20.008  0.00  0.00    +0.000 C 
ATOM      7  N   UNL     1       3.289   1.875  19.137  0.00  0.00    +0.000 NA
ATOM      8  C   UNL     1       4.442   2.719  19.480  0.00  0.00    +0.000 C 
ATOM      9  C   UNL     1       4.452   4.085  18.800  0.00  0.00    +0.000 C 
ATOM     10  C   UNL     1       3.081   4.452  18.233  0.00  0.00    +0.000 C 
ATOM     11  C   UNL     1       2.663   3.382  17.206  0.00  0.00    +0.000 C 
ATOM     12  C   UNL     1       2.967   1.962  17.707  0.00  0.00    +0.000 C 
ENDBRANCH   1   3
BRANCH   1  13
ATOM     13  C   UNL     1       2.001   8.135  19.421  0.00  0.00    +0.000 A 
ATOM     14  C   UNL     1       1.960   8.503  18.078  0.00  0.00    +0.000 A 
ATOM     15  C   UNL     1       1.170   9.581  17.680  0.00  0.00    +0.000 A 
ATOM     16  C   UNL     1       0.392  10.259  18.621  0.00  0.00    +0.000 A 
ATOM     17  C   UNL     1       0.445   9.927  19.987  0.00  0.00    +0.000 A 
ATOM     18  C   UNL     1       1.302   8.882  20.377  0.00  0.00    +0.000 A 
BRANCH  17  19
ATOM     19  C   UNL     1      -0.409  10.597  20.984  0.00  0.00    +0.000 A 
ATOM     20  C   UNL     1      -0.456  10.171  22.323  0.00  0.00    +0.000 A 
ATOM     21  C   UNL     1      -1.276  10.811  23.253  0.00  0.00    +0.000 A 
ATOM     22  C   UNL     1      -2.058  11.893  22.861  0.00  0.00    +0.000 A 
ATOM     23  C   UNL     1      -2.006  12.350  21.547  0.00  0.00    +0.000 A 
ATOM     24  C   UNL     1      -1.190  11.707  20.622  0.00  0.00    +0.000 A 
ENDBRANCH  17  19
ENDBRANCH   1  13
TORSDOF 3
ENDMDL
MODEL 9
REMARK VINA RESULT:      -7.7      3.602      8.023
REMARK  Name = 
REMARK  3 active torsions:
REMARK  status: ('A' for Active; 'I' for Inactive)
REMARK    1  A    between atoms: C_2  and  O_3
REMARK    2  A    between atoms: O_3  and  C_4
REMARK    3  A    between atoms: C_8  and  C_9
REMARK                            x       y       z     vdW  Elec       q    Type
REMARK                         _______ _______ _______ _____ _____    ______ ____
ROOT
ATOM      1  O   UNL     1       2.901   5.829  19.118  0.00  0.00    +0.000 OA
ENDROOT
BRANCH   1   3
ATOM      2  O   UNL     1       2.513   4.251  17.484  0.00  0.00    +0.000 OA
ATOM      3  C   UNL     1       3.228   5.115  17.949  0.00  0.00    +0.000 C 
ATOM      4  N   UNL     1       4.456   5.468  17.359  0.00  0.00    +0.000 N 
ATOM      5  C   UNL     1       4.810   4.762  16.119  0.00  0.00    +0.000 C 
ATOM      6  C   UNL     1       6.141   3.982  16.173  0.00  0.00    +0.000 C 
ATOM      7  N   UNL     1       7.291   4.617  16.848  0.00  0.00    +0.000 NA
ATOM      8  C   UNL     1       7.174   4.502  18.309  0.00  0.00    +0.000 C 
ATOM      9  C   UNL     1       6.348   5.603  18.967  0.00  0.00    +0.000 C 
ATOM     10  C   UNL     1       5.486   6.356  17.954  0.00  0.00    +0.000 C 
ATOM     11  C   UNL     1       6.404   6.984  16.886  0.00  0.00    +0.000 C 
ATOM     12  C   UNL     1       7.503   6.010  16.435  0.00  0.00    +0.000 C 
ENDBRANCH   1   3
BRANCH   1  13
ATOM     13  C   UNL     1       2.424   7.178  19.057  0.00  0.00    +0.000 A 
ATOM     14  C   UNL     1       2.438   7.775  17.799  0.00  0.00    +0.000 A 
ATOM     15  C   UNL     1       1.796   8.999  17.605  0.00  0.00    +0.000 A 
ATOM     16  C   UNL     1       1.107   9.597  18.663  0.00  0.00    +0.000 A 
ATOM     17  C   UNL     1       1.108   9.030  19.949  0.00  0.00    +0.000 A 
ATOM     18  C   UNL     1       1.821   7.832  20.139  0.00  0.00    +0.000 A 
BRANCH  17  19
ATOM     19  C   UNL     1       0.343   9.620  21.062  0.00  0.00    +0.000 A 
ATOM     20  C   UNL     1       0.356   9.058  22.349  0.00  0.00    +0.000 A 
ATOM     21  C   UNL     1      -0.381   9.625  23.390  0.00  0.00    +0.000 A 
ATOM     22  C   UNL     1      -1.140  10.769  23.161  0.00  0.00    +0.000 A 
ATOM     23  C   UNL     1      -1.145  11.359  21.901  0.00  0.00    +0.000 A 
ATOM     24  C   UNL     1      -0.411  10.789  20.865  0.00  0.00    +0.000 A 
ENDBRANCH  17  19
ENDBRANCH   1  13
TORSDOF 3
ENDMDL
