MODEL 1
REMARK VINA RESULT:      -6.3      0.000      0.000
REMARK  Name = 
REMARK  4 active torsions:
REMARK  status: ('A' for Active; 'I' for Inactive)
REMARK    1  A    between atoms: C_1  and  C_2
REMARK    2  A    between atoms: C_2  and  C_3
REMARK    3  A    between atoms: C_2  and  C_4
REMARK    4  A    between atoms: C_2  and  N_5
REMARK                            x       y       z     vdW  Elec       q    Type
REMARK                         _______ _______ _______ _____ _____    ______ ____
ROOT
ATOM      1  N   UNL     1       4.686   3.073  17.056  0.00  0.00    +0.000 N 
ATOM      2  C   UNL     1       5.651   4.021  16.755  0.00  0.00    +0.000 A 
ATOM      3  N   UNL     1       5.976   4.144  15.471  0.00  0.00    +0.000 NA
ATOM      4  C   UNL     1       6.911   5.045  15.186  0.00  0.00    +0.000 A 
ATOM      5  N   UNL     1       7.273   5.208  13.866  0.00  0.00    +0.000 N 
ATOM      6  N   UNL     1       7.498   5.835  16.061  0.00  0.00    +0.000 NA
ATOM      7  C   UNL     1       7.095   5.614  17.298  0.00  0.00    +0.000 A 
ATOM      8 CL   UNL     1       7.785   6.602  18.510  0.00  0.00    +0.000 Cl
ATOM      9  N   UNL     1       6.191   4.747  17.713  0.00  0.00    +0.000 NA
ATOM     10  H   UNL     1       4.264   2.798  16.174  0.00  0.00    +0.000 HD
ATOM     11  H   UNL     1       6.539   4.908  13.241  0.00  0.00    +0.000 HD
ATOM     12  H   UNL     1       7.670   6.125  13.714  0.00  0.00    +0.000 HD
ENDROOT
BRANCH   1  14
ATOM     13  C   UNL     1       3.132   4.698  18.083  0.00  0.00    +0.000 C 
ATOM     14  C   UNL     1       3.731   3.286  18.157  0.00  0.00    +0.000 C 
ATOM     15  C   UNL     1       4.353   3.016  19.537  0.00  0.00    +0.000 C 
ATOM     16  C   UNL     1       2.586   2.266  17.977  0.00  0.00    +0.000 C 
ENDBRANCH   1  14
TORSDOF 1
ENDMDL
MODEL 2
REMARK VINA RESULT:      -6.2      2.218      3.270
REMARK  Name = 
REMARK  4 active torsions:
REMARK  status: ('A' for Active; 'I' for Inactive)
REMARK    1  A    between atoms: C_1  and  C_2
REMARK    2  A    between atoms: C_2  and  C_3
REMARK    3  A    between atoms: C_2  and  C_4
REMARK    4  A    between atoms: C_2  and  N_5
REMARK                            x       y       z     vdW  Elec       q    Type
REMARK                         _______ _______ _______ _____ _____    ______ ____
ROOT
ATOM      1  N   UNL     1       3.635   4.868  19.520  0.00  0.00    +0.000 N 
ATOM      2  C   UNL     1       4.872   4.854  18.894  0.00  0.00    +0.000 A 
ATOM      3  N   UNL     1       5.918   5.179  19.647  0.00  0.00    +0.000 NA
ATOM      4  C   UNL     1       7.102   5.178  19.042  0.00  0.00    +0.000 A 
ATOM      5  N   UNL     1       8.213   5.503  19.790  0.00  0.00    +0.000 N 
ATOM      6  N   UNL     1       7.313   4.846  17.785  0.00  0.00    +0.000 NA
ATOM      7  C   UNL     1       6.199   4.549  17.143  0.00  0.00    +0.000 A 
ATOM      8 CL   UNL     1       6.366   4.086  15.506  0.00  0.00    +0.000 Cl
ATOM      9  N   UNL     1       4.969   4.525  17.621  0.00  0.00    +0.000 NA
ATOM     10  H   UNL     1       3.816   4.931  20.518  0.00  0.00    +0.000 HD
ATOM     11  H   UNL     1       8.059   5.338  20.774  0.00  0.00    +0.000 HD
ATOM     12  H   UNL     1       9.049   5.115  19.377  0.00  0.00    +0.000 HD
ENDROOT
BRANCH   1  14
ATOM     13  C   UNL     1       3.148   2.482  19.094  0.00  0.00    +0.000 C 
ATOM     14  C   UNL     1       2.584   3.909  19.142  0.00  0.00    +0.000 C 
ATOM     15  C   UNL     1       1.895   4.281  17.818  0.00  0.00    +0.000 C 
ATOM     16  C   UNL     1       1.498   3.962  20.239  0.00  0.00    +0.000 C 
ENDBRANCH   1  14
TORSDOF 1
ENDMDL
MODEL 3
REMARK VINA RESULT:      -6.1      1.115      1.181
REMARK  Name = 
REMARK  4 active torsions:
REMARK  status: ('A' for Active; 'I' for Inactive)
REMARK    1  A    between atoms: C_1  and  C_2
REMARK    2  A    between atoms: C_2  and  C_3
REMARK    3  A    between atoms: C_2  and  C_4
REMARK    4  A    between atoms: C_2  and  N_5
REMARK                            x       y       z     vdW  Elec       q    Type
REMARK                         _______ _______ _______ _____ _____    ______ ____
ROOT
ATOM      1  N   UNL     1       3.798   4.083  17.110  0.00  0.00    +0.000 N 
ATOM      2  C   UNL     1       5.105   4.537  17.036  0.00  0.00    +0.000 A 
ATOM      3  N   UNL     1       5.621   4.651  15.816  0.00  0.00    +0.000 NA
ATOM      4  C   UNL     1       6.880   5.074  15.747  0.00  0.00    +0.000 A 
ATOM      5  N   UNL     1       7.450   5.211  14.499  0.00  0.00    +0.000 N 
ATOM      6  N   UNL     1       7.623   5.420  16.777  0.00  0.00    +0.000 NA
ATOM      7  C   UNL     1       7.002   5.259  17.931  0.00  0.00    +0.000 A 
ATOM      8 CL   UNL     1       7.876   5.697  19.332  0.00  0.00    +0.000 Cl
ATOM      9  N   UNL     1       5.769   4.837  18.135  0.00  0.00    +0.000 NA
ATOM     10  H   UNL     1       3.422   4.124  16.167  0.00  0.00    +0.000 HD
ATOM     11  H   UNL     1       6.750   5.338  13.783  0.00  0.00    +0.000 HD
ATOM     12  H   UNL     1       8.216   5.870  14.526  0.00  0.00    +0.000 HD
ENDROOT
BRANCH   1  14
ATOM     13  C   UNL     1       2.897   6.102  18.217  0.00  0.00    +0.000 C 
ATOM     14  C   UNL     1       2.886   4.567  18.160  0.00  0.00    +0.000 C 
ATOM     15  C   UNL     1       3.195   3.956  19.538  0.00  0.00    +0.000 C 
ATOM     16  C   UNL     1       1.461   4.108  17.780  0.00  0.00    +0.000 C 
ENDBRANCH   1  14
TORSDOF 1
ENDMDL
MODEL 4
REMARK VINA RESULT:      -6.1      0.103      1.213
REMARK  Name = 
REMARK  4 active torsions:
REMARK  status: ('A' for Active; 'I' for Inactive)
REMARK    1  A    between atoms: C_1  and  C_2
REMARK    2  A    between atoms: C_2  and  C_3
REMARK    3  A    between atoms: C_2  and  C_4
REMARK    4  A    between atoms: C_2  and  N_5
REMARK                            x       y       z     vdW  Elec       q    Type
REMARK                         _______ _______ _______ _____ _____    ______ ____
ROOT
ATOM      1  N   UNL     1       4.691   3.092  16.981  0.00  0.00    +0.000 N 
ATOM      2  C   UNL     1       5.656   4.040  16.677  0.00  0.00    +0.000 A 
ATOM      3  N   UNL     1       6.005   4.137  15.398  0.00  0.00    +0.000 NA
ATOM      4  C   UNL     1       6.941   5.037  15.111  0.00  0.00    +0.000 A 
ATOM      5  N   UNL     1       7.327   5.172  13.795  0.00  0.00    +0.000 N 
ATOM      6  N   UNL     1       7.505   5.851  15.979  0.00  0.00    +0.000 NA
ATOM      7  C   UNL     1       7.079   5.655  17.212  0.00  0.00    +0.000 A 
ATOM      8 CL   UNL     1       7.738   6.675  18.415  0.00  0.00    +0.000 Cl
ATOM      9  N   UNL     1       6.172   4.792  17.629  0.00  0.00    +0.000 NA
ATOM     10  H   UNL     1       4.289   2.795  16.097  0.00  0.00    +0.000 HD
ATOM     11  H   UNL     1       6.608   4.854  13.162  0.00  0.00    +0.000 HD
ATOM     12  H   UNL     1       7.722   6.088  13.629  0.00  0.00    +0.000 HD
ENDROOT
BRANCH   1  14
ATOM     13  C   UNL     1       2.578   2.293  17.986  0.00  0.00    +0.000 C 
ATOM     14  C   UNL     1       3.713   3.324  18.057  0.00  0.00    +0.000 C 
ATOM     15  C   UNL     1       3.162   4.761  18.053  0.00  0.00    +0.000 C 
ATOM     16  C   UNL     1       4.454   3.135  19.399  0.00  0.00    +0.000 C 
ENDBRANCH   1  14
TORSDOF 1
ENDMDL
MODEL 5
REMARK VINA RESULT:      -6.1      0.100      1.195
REMARK  Name = 
REMARK  4 active torsions:
REMARK  status: ('A' for Active; 'I' for Inactive)
REMARK    1  A    between atoms: C_1  and  C_2
REMARK    2  A    between atoms: C_2  and  C_3
REMARK    3  A    between atoms: C_2  and  C_4
REMARK    4  A    between atoms: C_2  and  N_5
REMARK                            x       y       z     vdW  Elec       q    Type
REMARK                         _______ _______ _______ _____ _____    ______ ____
ROOT
ATOM      1  N   UNL     1       4.668   3.090  16.987  0.00  0.00    +0.000 N 
ATOM      2  C   UNL     1       5.643   4.032  16.695  0.00  0.00    +0.000 A 
ATOM      3  N   UNL     1       5.984   4.150  15.415  0.00  0.00    +0.000 NA
ATOM      4  C   UNL     1       6.928   5.044  15.139  0.00  0.00    +0.000 A 
ATOM      5  N   UNL     1       7.306   5.202  13.823  0.00  0.00    +0.000 N 
ATOM      6  N   UNL     1       7.510   5.833  16.019  0.00  0.00    +0.000 NA
ATOM      7  C   UNL     1       7.091   5.617  17.252  0.00  0.00    +0.000 A 
ATOM      8 CL   UNL     1       7.772   6.604  18.469  0.00  0.00    +0.000 Cl
ATOM      9  N   UNL     1       6.176   4.757  17.658  0.00  0.00    +0.000 NA
ATOM     10  H   UNL     1       4.255   2.816  16.100  0.00  0.00    +0.000 HD
ATOM     11  H   UNL     1       6.579   4.905  13.190  0.00  0.00    +0.000 HD
ATOM     12  H   UNL     1       7.712   6.116  13.674  0.00  0.00    +0.000 HD
ENDROOT
BRANCH   1  14
ATOM     13  C   UNL     1       4.393   3.196  19.442  0.00  0.00    +0.000 C 
ATOM     14  C   UNL     1       3.701   3.313  18.075  0.00  0.00    +0.000 C 
ATOM     15  C   UNL     1       2.485   2.375  17.984  0.00  0.00    +0.000 C 
ATOM     16  C   UNL     1       3.165   4.753  17.927  0.00  0.00    +0.000 C 
ENDBRANCH   1  14
TORSDOF 1
ENDMDL
MODEL 6
REMARK VINA RESULT:      -6.1      2.405      3.186
REMARK  Name = 
REMARK  4 active torsions:
REMARK  status: ('A' for Active; 'I' for Inactive)
REMARK    1  A    between atoms: C_1  and  C_2
REMARK    2  A    between atoms: C_2  and  C_3
REMARK    3  A    between atoms: C_2  and  C_4
REMARK    4  A    between atoms: C_2  and  N_5
REMARK                            x       y       z     vdW  Elec       q    Type
REMARK                         _______ _______ _______ _____ _____    ______ ____
ROOT
ATOM      1  N   UNL     1       3.660   3.834  19.668  0.00  0.00    +0.000 N 
ATOM      2  C   UNL     1       4.638   4.603  19.057  0.00  0.00    +0.000 A 
ATOM      3  N   UNL     1       5.796   4.706  19.702  0.00  0.00    +0.000 NA
ATOM      4  C   UNL     1       6.728   5.455  19.121  0.00  0.00    +0.000 A 
ATOM      5  N   UNL     1       7.945   5.582  19.755  0.00  0.00    +0.000 N 
ATOM      6  N   UNL     1       6.603   6.057  17.956  0.00  0.00    +0.000 NA
ATOM      7  C   UNL     1       5.410   5.884  17.419  0.00  0.00    +0.000 A 
ATOM      8 CL   UNL     1       5.151   6.611  15.894  0.00  0.00    +0.000 Cl
ATOM      9  N   UNL     1       4.400   5.181  17.896  0.00  0.00    +0.000 NA
ATOM     10  H   UNL     1       4.119   3.323  20.417  0.00  0.00    +0.000 HD
ATOM     11  H   UNL     1       8.122   4.809  20.379  0.00  0.00    +0.000 HD
ATOM     12  H   UNL     1       8.671   5.823  19.093  0.00  0.00    +0.000 HD
ENDROOT
BRANCH   1  14
ATOM     13  C   UNL     1       3.453   1.969  18.059  0.00  0.00    +0.000 C 
ATOM     14  C   UNL     1       2.710   3.041  18.870  0.00  0.00    +0.000 C 
ATOM     15  C   UNL     1       1.829   3.916  17.962  0.00  0.00    +0.000 C 
ATOM     16  C   UNL     1       1.762   2.329  19.858  0.00  0.00    +0.000 C 
ENDBRANCH   1  14
TORSDOF 1
ENDMDL
MODEL 7
REMARK VINA RESULT:      -6.1      2.086      3.006
REMARK  Name = 
REMARK  4 active torsions:
REMARK  status: ('A' for Active; 'I' for Inactive)
REMARK    1  A    between atoms: C_1  and  C_2
REMARK    2  A    between atoms: C_2  and  C_3
REMARK    3  A    between atoms: C_2  and  C_4
REMARK    4  A    between atoms: C_2  and  N_5
REMARK                            x       y       z     vdW  Elec       q    Type
REMARK                         _______ _______ _______ _____ _____    ______ ____
ROOT
ATOM      1  N   UNL     1       3.621   4.075  19.157  0.00  0.00    +0.000 N 
ATOM      2  C   UNL     1       4.693   4.238  18.294  0.00  0.00    +0.000 A 
ATOM      3  N   UNL     1       5.888   4.384  18.860  0.00  0.00    +0.000 NA
ATOM      4  C   UNL     1       6.913   4.554  18.031  0.00  0.00    +0.000 A 
ATOM      5  N   UNL     1       8.170   4.703  18.577  0.00  0.00    +0.000 N 
ATOM      6  N   UNL     1       6.838   4.548  16.716  0.00  0.00    +0.000 NA
ATOM      7  C   UNL     1       5.602   4.400  16.277  0.00  0.00    +0.000 A 
ATOM      8 CL   UNL     1       5.397   4.360  14.581  0.00  0.00    +0.000 Cl
ATOM      9  N   UNL     1       4.503   4.237  16.990  0.00  0.00    +0.000 NA
ATOM     10  H   UNL     1       4.013   3.892  20.076  0.00  0.00    +0.000 HD
ATOM     11  H   UNL     1       8.225   4.297  19.499  0.00  0.00    +0.000 HD
ATOM     12  H   UNL     1       8.884   4.444  17.909  0.00  0.00    +0.000 HD
ENDROOT
BRANCH   1  14
ATOM     13  C   UNL     1       2.966   1.900  18.182  0.00  0.00    +0.000 C 
ATOM     14  C   UNL     1       2.478   3.221  18.793  0.00  0.00    +0.000 C 
ATOM     15  C   UNL     1       1.484   3.933  17.859  0.00  0.00    +0.000 C 
ATOM     16  C   UNL     1       1.712   2.898  20.094  0.00  0.00    +0.000 C 
ENDBRANCH   1  14
TORSDOF 1
ENDMDL
MODEL 8
REMARK VINA RESULT:      -6.1      2.587      3.438
REMARK  Name = 
REMARK  4 active torsions:
REMARK  status: ('A' for Active; 'I' for Inactive)
REMARK    1  A    between atoms: C_1  and  C_2
REMARK    2  A    between atoms: C_2  and  C_3
REMARK    3  A    between atoms: C_2  and  C_4
REMARK    4  A    between atoms: C_2  and  N_5
REMARK                            x       y       z     vdW  Elec       q    Type
REMARK                         _______ _______ _______ _____ _____    ______ ____
ROOT
ATOM      1  N   UNL     1       3.403   3.498  20.426  0.00  0.00    +0.000 N 
ATOM      2  C   UNL     1       4.091   4.287  19.518  0.00  0.00    +0.000 A 
ATOM      3  N   UNL     1       5.304   3.867  19.172  0.00  0.00    +0.000 NA
ATOM      4  C   UNL     1       5.968   4.633  18.312  0.00  0.00    +0.000 A 
ATOM      5  N   UNL     1       7.227   4.229  17.923  0.00  0.00    +0.000 N 
ATOM      6  N   UNL     1       5.504   5.733  17.758  0.00  0.00    +0.000 NA
ATOM      7  C   UNL     1       4.295   6.047  18.184  0.00  0.00    +0.000 A 
ATOM      8 CL   UNL     1       3.593   7.452  17.510  0.00  0.00    +0.000 Cl
ATOM      9  N   UNL     1       3.540   5.385  19.039  0.00  0.00    +0.000 NA
ATOM     10  H   UNL     1       3.909   2.619  20.488  0.00  0.00    +0.000 HD
ATOM     11  H   UNL     1       7.349   3.233  18.034  0.00  0.00    +0.000 HD
ATOM     12  H   UNL     1       7.473   4.632  17.029  0.00  0.00    +0.000 HD
ENDROOT
BRANCH   1  14
ATOM     13  C   UNL     1       1.525   2.627  19.073  0.00  0.00    +0.000 C 
ATOM     14  C   UNL     1       1.938   3.364  20.356  0.00  0.00    +0.000 C 
ATOM     15  C   UNL     1       1.216   4.716  20.479  0.00  0.00    +0.000 C 
ATOM     16  C   UNL     1       1.496   2.512  21.566  0.00  0.00    +0.000 C 
ENDBRANCH   1  14
TORSDOF 1
ENDMDL
MODEL 9
REMARK VINA RESULT:      -6.0      2.196      3.109
REMARK  Name = 
REMARK  4 active torsions:
REMARK  status: ('A' for Active; 'I' for Inactive)
REMARK    1  A    between atoms: C_1  and  C_2
REMARK    2  A    between atoms: C_2  and  C_3
REMARK    3  A    between atoms: C_2  and  C_4
REMARK    4  A    between atoms: C_2  and  N_5
REMARK                            x       y       z     vdW  Elec       q    Type
REMARK                         _______ _______ _______ _____ _____    ______ ____
ROOT
ATOM      1  N   UNL     1       3.649   4.698  19.489  0.00  0.00    +0.000 N 
ATOM      2  C   UNL     1       4.889   4.755  18.871  0.00  0.00    +0.000 A 
ATOM      3  N   UNL     1       5.913   5.123  19.636  0.00  0.00    +0.000 NA
ATOM      4  C   UNL     1       7.098   5.190  19.038  0.00  0.00    +0.000 A 
ATOM      5  N   UNL     1       8.187   5.561  19.798  0.00  0.00    +0.000 N 
ATOM      6  N   UNL     1       7.334   4.886  17.778  0.00  0.00    +0.000 NA
ATOM      7  C   UNL     1       6.240   4.542  17.125  0.00  0.00    +0.000 A 
ATOM      8 CL   UNL     1       6.440   4.110  15.483  0.00  0.00    +0.000 Cl
ATOM      9  N   UNL     1       5.010   4.449  17.594  0.00  0.00    +0.000 NA
ATOM     10  H   UNL     1       3.821   4.757  20.488  0.00  0.00    +0.000 HD
ATOM     11  H   UNL     1       8.036   5.376  20.778  0.00  0.00    +0.000 HD
ATOM     12  H   UNL     1       9.045   5.221  19.385  0.00  0.00    +0.000 HD
ENDROOT
BRANCH   1  14
ATOM     13  C   UNL     1       1.564   3.557  20.168  0.00  0.00    +0.000 C 
ATOM     14  C   UNL     1       2.650   3.692  19.091  0.00  0.00    +0.000 C 
ATOM     15  C   UNL     1       3.284   2.330  18.764  0.00  0.00    +0.000 C 
ATOM     16  C   UNL     1       1.983   4.196  17.793  0.00  0.00    +0.000 C 
ENDBRANCH   1  14
TORSDOF 1
ENDMDL
