MODEL 1
REMARK VINA RESULT:      -8.5      0.000      0.000
REMARK  Name = 
REMARK  4 active torsions:
REMARK  status: ('A' for Active; 'I' for Inactive)
REMARK    1  A    between atoms: C_2  and  C_5
REMARK    2  A    between atoms: N_3  and  O_4
REMARK    3  A    between atoms: C_12  and  N_13
REMARK    4  A    between atoms: C_18  and  C_19
REMARK                            x       y       z     vdW  Elec       q    Type
REMARK                         _______ _______ _______ _____ _____    ______ ____
ROOT
ATOM      1  N   UNL     1       0.593   9.278  19.124  0.00  0.00    +0.000 N 
ATOM      2  C   UNL     1       0.574  10.614  19.487  0.00  0.00    +0.000 A 
ATOM      3  N   UNL     1       1.549  11.444  19.104  0.00  0.00    +0.000 NA
ATOM      4  C   UNL     1       1.437  12.726  19.486  0.00  0.00    +0.000 A 
ATOM      5  C   UNL     1       0.402  13.205  20.248  0.00  0.00    +0.000 A 
ATOM      6  C   UNL     1      -0.556  12.284  20.618  0.00  0.00    +0.000 A 
ATOM      7  N   UNL     1      -0.471  10.988  20.233  0.00  0.00    +0.000 NA
ATOM      8  H   UNL     1      -0.052   8.821  19.759  0.00  0.00    +0.000 HD
ENDROOT
BRANCH   6   9
ATOM      9  C   UNL     1      -1.730  12.622  21.438  0.00  0.00    +0.000 A 
ATOM     10  C   UNL     1      -2.076  11.876  22.565  0.00  0.00    +0.000 A 
ATOM     11  C   UNL     1      -3.186  12.225  23.337  0.00  0.00    +0.000 A 
ATOM     12  C   UNL     1      -3.964  13.330  23.004  0.00  0.00    +0.000 A 
ATOM     13  N   UNL     1      -5.040  13.705  23.771  0.00  0.00    +0.000 N 
ATOM     14  C   UNL     1      -5.864  12.758  24.523  0.00  0.00    +0.000 C 
ATOM     15  C   UNL     1      -7.333  12.871  24.083  0.00  0.00    +0.000 C 
ATOM     16  O   UNL     1      -7.815  14.221  24.176  0.00  0.00    +0.000 OA
ATOM     17  C   UNL     1      -7.036  15.083  23.326  0.00  0.00    +0.000 C 
ATOM     18  C   UNL     1      -5.554  15.077  23.724  0.00  0.00    +0.000 C 
ATOM     19  N   UNL     1      -3.642  14.070  21.923  0.00  0.00    +0.000 NA
ATOM     20  C   UNL     1      -2.560  13.708  21.179  0.00  0.00    +0.000 A 
ENDBRANCH   6   9
BRANCH   1  28
ATOM     21  C   UNL     1       4.115   4.185  19.444  0.00  0.00    +0.000 A 
ATOM     22  C   UNL     1       4.963   4.499  18.377  0.00  0.00    +0.000 A 
ATOM     23  C   UNL     1       4.810   5.715  17.702  0.00  0.00    +0.000 A 
ATOM     24  C   UNL     1       3.804   6.621  18.074  0.00  0.00    +0.000 A 
ATOM     25  C   UNL     1       2.975   6.321  19.166  0.00  0.00    +0.000 A 
ATOM     26  C   UNL     1       3.134   5.100  19.839  0.00  0.00    +0.000 A 
ATOM     27  C   UNL     1       1.844   7.232  19.575  0.00  0.00    +0.000 C 
ATOM     28  C   UNL     1       1.905   8.649  18.969  0.00  0.00    +0.000 C 
ATOM     29  C   UNL     1       2.272   8.554  17.484  0.00  0.00    +0.000 C 
ATOM     30  C   UNL     1       3.644   7.906  17.301  0.00  0.00    +0.000 C 
BRANCH  21  32
ATOM     31  O   UNL     1       3.294   2.533  20.928  0.00  0.00    +0.000 OA
ATOM     32  C   UNL     1       4.159   2.864  20.125  0.00  0.00    +0.000 C 
ATOM     33  N   UNL     1       5.222   2.043  19.821  0.00  0.00    +0.000 N 
ATOM     34  H   UNL     1       6.102   2.390  19.460  0.00  0.00    +0.000 HD
BRANCH  33  35
ATOM     35  O   UNL     1       5.277   0.840  20.566  0.00  0.00    +0.000 OA
ATOM     36  H   UNL     1       5.835   0.268  19.991  0.00  0.00    +0.000 HD
ENDBRANCH  33  35
ENDBRANCH  21  32
ENDBRANCH   1  28
TORSDOF 4
ENDMDL
MODEL 2
REMARK VINA RESULT:      -8.2      2.710     11.403
REMARK  Name = 
REMARK  4 active torsions:
REMARK  status: ('A' for Active; 'I' for Inactive)
REMARK    1  A    between atoms: C_2  and  C_5
REMARK    2  A    between atoms: N_3  and  O_4
REMARK    3  A    between atoms: C_12  and  N_13
REMARK    4  A    between atoms: C_18  and  C_19
REMARK                            x       y       z     vdW  Elec       q    Type
REMARK                         _______ _______ _______ _____ _____    ______ ____
ROOT
ATOM      1  N   UNL     1      -1.086  11.364  22.603  0.00  0.00    +0.000 N 
ATOM      2  C   UNL     1      -0.283  11.357  21.474  0.00  0.00    +0.000 A 
ATOM      3  N   UNL     1      -0.039  12.483  20.797  0.00  0.00    +0.000 NA
ATOM      4  C   UNL     1       0.767  12.383  19.728  0.00  0.00    +0.000 A 
ATOM      5  C   UNL     1       1.321  11.203  19.301  0.00  0.00    +0.000 A 
ATOM      6  C   UNL     1       1.008  10.082  20.042  0.00  0.00    +0.000 A 
ATOM      7  N   UNL     1       0.209  10.161  21.133  0.00  0.00    +0.000 NA
ATOM      8  H   UNL     1      -1.353  10.396  22.744  0.00  0.00    +0.000 HD
ENDROOT
BRANCH   6   9
ATOM      9  C   UNL     1       1.510   8.736  19.724  0.00  0.00    +0.000 A 
ATOM     10  C   UNL     1       2.086   8.442  18.488  0.00  0.00    +0.000 A 
ATOM     11  C   UNL     1       2.571   7.161  18.214  0.00  0.00    +0.000 A 
ATOM     12  C   UNL     1       2.496   6.153  19.172  0.00  0.00    +0.000 A 
ATOM     13  N   UNL     1       2.995   4.897  18.930  0.00  0.00    +0.000 N 
ATOM     14  C   UNL     1       3.026   4.284  17.601  0.00  0.00    +0.000 C 
ATOM     15  C   UNL     1       2.258   2.951  17.618  0.00  0.00    +0.000 C 
ATOM     16  O   UNL     1       2.738   2.072  18.646  0.00  0.00    +0.000 OA
ATOM     17  C   UNL     1       2.576   2.686  19.937  0.00  0.00    +0.000 C 
ATOM     18  C   UNL     1       3.354   4.005  20.037  0.00  0.00    +0.000 C 
ATOM     19  N   UNL     1       1.950   6.419  20.377  0.00  0.00    +0.000 NA
ATOM     20  C   UNL     1       1.477   7.672  20.621  0.00  0.00    +0.000 A 
ENDBRANCH   6   9
BRANCH   1  28
ATOM     21  C   UNL     1      -6.243  13.691  20.066  0.00  0.00    +0.000 A 
ATOM     22  C   UNL     1      -6.873  14.050  21.262  0.00  0.00    +0.000 A 
ATOM     23  C   UNL     1      -6.215  13.851  22.481  0.00  0.00    +0.000 A 
ATOM     24  C   UNL     1      -4.932  13.281  22.520  0.00  0.00    +0.000 A 
ATOM     25  C   UNL     1      -4.286  12.954  21.317  0.00  0.00    +0.000 A 
ATOM     26  C   UNL     1      -4.952  13.155  20.098  0.00  0.00    +0.000 A 
ATOM     27  C   UNL     1      -2.931  12.290  21.302  0.00  0.00    +0.000 C 
ATOM     28  C   UNL     1      -2.168  12.348  22.641  0.00  0.00    +0.000 C 
ATOM     29  C   UNL     1      -3.131  12.028  23.791  0.00  0.00    +0.000 C 
ATOM     30  C   UNL     1      -4.266  13.048  23.853  0.00  0.00    +0.000 C 
BRANCH  21  32
ATOM     31  O   UNL     1      -7.912  13.076  18.503  0.00  0.00    +0.000 OA
ATOM     32  C   UNL     1      -6.937  13.776  18.753  0.00  0.00    +0.000 C 
ATOM     33  N   UNL     1      -6.421  14.661  17.834  0.00  0.00    +0.000 N 
ATOM     34  H   UNL     1      -5.461  14.982  17.854  0.00  0.00    +0.000 HD
BRANCH  33  35
ATOM     35  O   UNL     1      -7.050  14.635  16.565  0.00  0.00    +0.000 OA
ATOM     36  H   UNL     1      -7.244  15.588  16.412  0.00  0.00    +0.000 HD
ENDBRANCH  33  35
ENDBRANCH  21  32
ENDBRANCH   1  28
TORSDOF 4
ENDMDL
MODEL 3
REMARK VINA RESULT:      -8.2      2.765     11.351
REMARK  Name = 
REMARK  4 active torsions:
REMARK  status: ('A' for Active; 'I' for Inactive)
REMARK    1  A    between atoms: C_2  and  C_5
REMARK    2  A    between atoms: N_3  and  O_4
REMARK    3  A    between atoms: C_12  and  N_13
REMARK    4  A    between atoms: C_18  and  C_19
REMARK                            x       y       z     vdW  Elec       q    Type
REMARK                         _______ _______ _______ _____ _____    ______ ____
ROOT
ATOM      1  N   UNL     1      -0.151  11.173  21.851  0.00  0.00    +0.000 N 
ATOM      2  C   UNL     1       0.455  10.992  20.619  0.00  0.00    +0.000 A 
ATOM      3  N   UNL     1       0.525  11.992  19.734  0.00  0.00    +0.000 NA
ATOM      4  C   UNL     1       1.149  11.730  18.575  0.00  0.00    +0.000 A 
ATOM      5  C   UNL     1       1.687  10.508  18.259  0.00  0.00    +0.000 A 
ATOM      6  C   UNL     1       1.560   9.524  19.217  0.00  0.00    +0.000 A 
ATOM      7  N   UNL     1       0.948   9.768  20.401  0.00  0.00    +0.000 NA
ATOM      8  H   UNL     1      -0.339  10.238  22.194  0.00  0.00    +0.000 HD
ENDROOT
BRANCH   6   9
ATOM      9  C   UNL     1       2.075   8.156  19.044  0.00  0.00    +0.000 A 
ATOM     10  C   UNL     1       2.748   7.768  17.886  0.00  0.00    +0.000 A 
ATOM     11  C   UNL     1       3.242   6.469  17.750  0.00  0.00    +0.000 A 
ATOM     12  C   UNL     1       3.080   5.537  18.772  0.00  0.00    +0.000 A 
ATOM     13  N   UNL     1       3.587   4.265  18.667  0.00  0.00    +0.000 N 
ATOM     14  C   UNL     1       3.721   3.552  17.396  0.00  0.00    +0.000 C 
ATOM     15  C   UNL     1       2.942   2.227  17.450  0.00  0.00    +0.000 C 
ATOM     16  O   UNL     1       3.329   1.427  18.578  0.00  0.00    +0.000 OA
ATOM     17  C   UNL     1       3.066   2.138  19.801  0.00  0.00    +0.000 C 
ATOM     18  C   UNL     1       3.846   3.459  19.864  0.00  0.00    +0.000 C 
ATOM     19  N   UNL     1       2.440   5.894  19.904  0.00  0.00    +0.000 NA
ATOM     20  C   UNL     1       1.959   7.164  20.013  0.00  0.00    +0.000 A 
ENDBRANCH   6   9
BRANCH   1  28
ATOM     21  C   UNL     1      -5.625  13.088  19.656  0.00  0.00    +0.000 A 
ATOM     22  C   UNL     1      -6.147  13.537  20.873  0.00  0.00    +0.000 A 
ATOM     23  C   UNL     1      -5.364  13.475  22.031  0.00  0.00    +0.000 A 
ATOM     24  C   UNL     1      -4.062  12.952  21.990  0.00  0.00    +0.000 A 
ATOM     25  C   UNL     1      -3.525  12.533  20.762  0.00  0.00    +0.000 A 
ATOM     26  C   UNL     1      -4.316  12.598  19.604  0.00  0.00    +0.000 A 
ATOM     27  C   UNL     1      -2.152  11.914  20.668  0.00  0.00    +0.000 C 
ATOM     28  C   UNL     1      -1.264  12.121  21.911  0.00  0.00    +0.000 C 
ATOM     29  C   UNL     1      -2.094  11.881  23.177  0.00  0.00    +0.000 C 
ATOM     30  C   UNL     1      -3.258  12.866  23.264  0.00  0.00    +0.000 C 
BRANCH  21  32
ATOM     31  O   UNL     1      -7.105  12.030  18.141  0.00  0.00    +0.000 OA
ATOM     32  C   UNL     1      -6.448  13.027  18.419  0.00  0.00    +0.000 C 
ATOM     33  N   UNL     1      -6.421  14.132  17.599  0.00  0.00    +0.000 N 
ATOM     34  H   UNL     1      -5.660  14.801  17.598  0.00  0.00    +0.000 HD
BRANCH  33  35
ATOM     35  O   UNL     1      -7.137  13.992  16.385  0.00  0.00    +0.000 OA
ATOM     36  H   UNL     1      -6.638  14.588  15.782  0.00  0.00    +0.000 HD
ENDBRANCH  33  35
ENDBRANCH  21  32
ENDBRANCH   1  28
TORSDOF 4
ENDMDL
MODEL 4
REMARK VINA RESULT:      -8.1      1.318      1.622
REMARK  Name = 
REMARK  4 active torsions:
REMARK  status: ('A' for Active; 'I' for Inactive)
REMARK    1  A    between atoms: C_2  and  C_5
REMARK    2  A    between atoms: N_3  and  O_4
REMARK    3  A    between atoms: C_12  and  N_13
REMARK    4  A    between atoms: C_18  and  C_19
REMARK                            x       y       z     vdW  Elec       q    Type
REMARK                         _______ _______ _______ _____ _____    ______ ____
ROOT
ATOM      1  N   UNL     1       0.691   9.384  19.418  0.00  0.00    +0.000 N 
ATOM      2  C   UNL     1       0.707  10.768  19.389  0.00  0.00    +0.000 A 
ATOM      3  N   UNL     1       1.513  11.429  18.553  0.00  0.00    +0.000 NA
ATOM      4  C   UNL     1       1.446  12.770  18.581  0.00  0.00    +0.000 A 
ATOM      5  C   UNL     1       0.622  13.472  19.422  0.00  0.00    +0.000 A 
ATOM      6  C   UNL     1      -0.167  12.720  20.267  0.00  0.00    +0.000 A 
ATOM      7  N   UNL     1      -0.127  11.365  20.247  0.00  0.00    +0.000 NA
ATOM      8  H   UNL     1       0.252   9.142  20.299  0.00  0.00    +0.000 HD
ENDROOT
BRANCH   6   9
ATOM      9  C   UNL     1      -1.105  13.308  21.237  0.00  0.00    +0.000 A 
ATOM     10  C   UNL     1      -2.354  12.739  21.485  0.00  0.00    +0.000 A 
ATOM     11  C   UNL     1      -3.222  13.306  22.421  0.00  0.00    +0.000 A 
ATOM     12  C   UNL     1      -2.855  14.445  23.132  0.00  0.00    +0.000 A 
ATOM     13  N   UNL     1      -3.683  14.997  24.078  0.00  0.00    +0.000 N 
ATOM     14  C   UNL     1      -5.144  14.937  24.004  0.00  0.00    +0.000 C 
ATOM     15  C   UNL     1      -5.730  16.359  24.020  0.00  0.00    +0.000 C 
ATOM     16  O   UNL     1      -5.262  17.116  25.147  0.00  0.00    +0.000 OA
ATOM     17  C   UNL     1      -3.829  17.235  25.101  0.00  0.00    +0.000 C 
ATOM     18  C   UNL     1      -3.147  15.861  25.134  0.00  0.00    +0.000 C 
ATOM     19  N   UNL     1      -1.647  15.007  22.913  0.00  0.00    +0.000 NA
ATOM     20  C   UNL     1      -0.820  14.442  21.991  0.00  0.00    +0.000 A 
ENDBRANCH   6   9
BRANCH   1  28
ATOM     21  C   UNL     1       4.031   4.160  19.421  0.00  0.00    +0.000 A 
ATOM     22  C   UNL     1       4.739   4.411  18.241  0.00  0.00    +0.000 A 
ATOM     23  C   UNL     1       4.542   5.615  17.556  0.00  0.00    +0.000 A 
ATOM     24  C   UNL     1       3.629   6.570  18.030  0.00  0.00    +0.000 A 
ATOM     25  C   UNL     1       2.945   6.334  19.232  0.00  0.00    +0.000 A 
ATOM     26  C   UNL     1       3.147   5.124  19.916  0.00  0.00    +0.000 A 
ATOM     27  C   UNL     1       1.914   7.301  19.760  0.00  0.00    +0.000 C 
ATOM     28  C   UNL     1       1.946   8.698  19.109  0.00  0.00    +0.000 C 
ATOM     29  C   UNL     1       2.106   8.550  17.591  0.00  0.00    +0.000 C 
ATOM     30  C   UNL     1       3.415   7.841  17.246  0.00  0.00    +0.000 C 
BRANCH  21  32
ATOM     31  O   UNL     1       3.292   2.538  20.979  0.00  0.00    +0.000 OA
ATOM     32  C   UNL     1       4.117   2.856  20.130  0.00  0.00    +0.000 C 
ATOM     33  N   UNL     1       5.173   2.036  19.799  0.00  0.00    +0.000 N 
ATOM     34  H   UNL     1       6.033   2.382  19.391  0.00  0.00    +0.000 HD
BRANCH  33  35
ATOM     35  O   UNL     1       5.272   0.852  20.569  0.00  0.00    +0.000 OA
ATOM     36  H   UNL     1       4.378   0.456  20.454  0.00  0.00    +0.000 HD
ENDBRANCH  33  35
ENDBRANCH  21  32
ENDBRANCH   1  28
TORSDOF 4
ENDMDL
MODEL 5
REMARK VINA RESULT:      -8.1      1.739     11.465
REMARK  Name = 
REMARK  4 active torsions:
REMARK  status: ('A' for Active; 'I' for Inactive)
REMARK    1  A    between atoms: C_2  and  C_5
REMARK    2  A    between atoms: N_3  and  O_4
REMARK    3  A    between atoms: C_12  and  N_13
REMARK    4  A    between atoms: C_18  and  C_19
REMARK                            x       y       z     vdW  Elec       q    Type
REMARK                         _______ _______ _______ _____ _____    ______ ____
ROOT
ATOM      1  N   UNL     1       0.487  11.410  21.287  0.00  0.00    +0.000 N 
ATOM      2  C   UNL     1       0.971  10.867  20.108  0.00  0.00    +0.000 A 
ATOM      3  N   UNL     1       1.161  11.629  19.027  0.00  0.00    +0.000 NA
ATOM      4  C   UNL     1       1.653  11.019  17.936  0.00  0.00    +0.000 A 
ATOM      5  C   UNL     1       1.942   9.680  17.879  0.00  0.00    +0.000 A 
ATOM      6  C   UNL     1       1.702   8.958  19.029  0.00  0.00    +0.000 A 
ATOM      7  N   UNL     1       1.221   9.553  20.147  0.00  0.00    +0.000 NA
ATOM      8  H   UNL     1       0.156  10.619  21.828  0.00  0.00    +0.000 HD
ENDROOT
BRANCH   6   9
ATOM      9  C   UNL     1       1.951   7.512  19.144  0.00  0.00    +0.000 A 
ATOM     10  C   UNL     1       1.894   6.853  20.372  0.00  0.00    +0.000 A 
ATOM     11  C   UNL     1       2.118   5.478  20.455  0.00  0.00    +0.000 A 
ATOM     12  C   UNL     1       2.394   4.733  19.311  0.00  0.00    +0.000 A 
ATOM     13  N   UNL     1       2.587   3.374  19.371  0.00  0.00    +0.000 N 
ATOM     14  C   UNL     1       3.164   2.691  20.529  0.00  0.00    +0.000 C 
ATOM     15  C   UNL     1       4.415   1.903  20.107  0.00  0.00    +0.000 C 
ATOM     16  O   UNL     1       4.140   1.010  19.017  0.00  0.00    +0.000 OA
ATOM     17  C   UNL     1       3.685   1.754  17.872  0.00  0.00    +0.000 C 
ATOM     18  C   UNL     1       2.402   2.537  18.182  0.00  0.00    +0.000 C 
ATOM     19  N   UNL     1       2.446   5.348  18.112  0.00  0.00    +0.000 NA
ATOM     20  C   UNL     1       2.232   6.692  18.055  0.00  0.00    +0.000 A 
ENDBRANCH   6   9
BRANCH   1  28
ATOM     21  C   UNL     1      -5.038  13.926  22.548  0.00  0.00    +0.000 A 
ATOM     22  C   UNL     1      -4.599  15.248  22.667  0.00  0.00    +0.000 A 
ATOM     23  C   UNL     1      -3.252  15.556  22.442  0.00  0.00    +0.000 A 
ATOM     24  C   UNL     1      -2.331  14.549  22.112  0.00  0.00    +0.000 A 
ATOM     25  C   UNL     1      -2.779  13.228  21.958  0.00  0.00    +0.000 A 
ATOM     26  C   UNL     1      -4.130  12.926  22.186  0.00  0.00    +0.000 A 
ATOM     27  C   UNL     1      -1.824  12.098  21.658  0.00  0.00    +0.000 C 
ATOM     28  C   UNL     1      -0.431  12.543  21.168  0.00  0.00    +0.000 C 
ATOM     29  C   UNL     1       0.062  13.713  22.026  0.00  0.00    +0.000 C 
ATOM     30  C   UNL     1      -0.880  14.911  21.911  0.00  0.00    +0.000 C 
BRANCH  21  32
ATOM     31  O   UNL     1      -7.392  14.178  22.494  0.00  0.00    +0.000 OA
ATOM     32  C   UNL     1      -6.430  13.524  22.883  0.00  0.00    +0.000 C 
ATOM     33  N   UNL     1      -6.582  12.399  23.661  0.00  0.00    +0.000 N 
ATOM     34  H   UNL     1      -5.855  12.048  24.273  0.00  0.00    +0.000 HD
BRANCH  33  35
ATOM     35  O   UNL     1      -7.916  12.111  24.039  0.00  0.00    +0.000 OA
ATOM     36  H   UNL     1      -8.336  13.001  24.006  0.00  0.00    +0.000 HD
ENDBRANCH  33  35
ENDBRANCH  21  32
ENDBRANCH   1  28
TORSDOF 4
ENDMDL
MODEL 6
REMARK VINA RESULT:      -8.0      4.438      5.592
REMARK  Name = 
REMARK  4 active torsions:
REMARK  status: ('A' for Active; 'I' for Inactive)
REMARK    1  A    between atoms: C_2  and  C_5
REMARK    2  A    between atoms: N_3  and  O_4
REMARK    3  A    between atoms: C_12  and  N_13
REMARK    4  A    between atoms: C_18  and  C_19
REMARK                            x       y       z     vdW  Elec       q    Type
REMARK                         _______ _______ _______ _____ _____    ______ ____
ROOT
ATOM      1  N   UNL     1       1.476   8.352  20.379  0.00  0.00    +0.000 N 
ATOM      2  C   UNL     1       0.905   9.507  19.872  0.00  0.00    +0.000 A 
ATOM      3  N   UNL     1       0.059   9.459  18.839  0.00  0.00    +0.000 NA
ATOM      4  C   UNL     1      -0.462  10.627  18.428  0.00  0.00    +0.000 A 
ATOM      5  C   UNL     1      -0.156  11.838  18.996  0.00  0.00    +0.000 A 
ATOM      6  C   UNL     1       0.737  11.806  20.047  0.00  0.00    +0.000 A 
ATOM      7  N   UNL     1       1.264  10.639  20.488  0.00  0.00    +0.000 NA
ATOM      8  H   UNL     1       2.271   8.667  20.924  0.00  0.00    +0.000 HD
ENDROOT
BRANCH   6   9
ATOM      9  C   UNL     1       1.179  13.010  20.769  0.00  0.00    +0.000 A 
ATOM     10  C   UNL     1       2.439  13.572  20.555  0.00  0.00    +0.000 A 
ATOM     11  C   UNL     1       2.831  14.724  21.239  0.00  0.00    +0.000 A 
ATOM     12  C   UNL     1       1.971  15.340  22.143  0.00  0.00    +0.000 A 
ATOM     13  N   UNL     1       2.329  16.491  22.802  0.00  0.00    +0.000 N 
ATOM     14  C   UNL     1       3.709  16.814  23.168  0.00  0.00    +0.000 C 
ATOM     15  C   UNL     1       3.814  17.029  24.687  0.00  0.00    +0.000 C 
ATOM     16  O   UNL     1       2.873  18.008  25.154  0.00  0.00    +0.000 OA
ATOM     17  C   UNL     1       1.530  17.578  24.866  0.00  0.00    +0.000 C 
ATOM     18  C   UNL     1       1.311  17.386  23.359  0.00  0.00    +0.000 C 
ATOM     19  N   UNL     1       0.745  14.818  22.360  0.00  0.00    +0.000 NA
ATOM     20  C   UNL     1       0.385  13.690  21.687  0.00  0.00    +0.000 A 
ENDBRANCH   6   9
BRANCH   1  28
ATOM     21  C   UNL     1       5.402   5.418  16.582  0.00  0.00    +0.000 A 
ATOM     22  C   UNL     1       4.907   4.127  16.791  0.00  0.00    +0.000 A 
ATOM     23  C   UNL     1       3.803   3.934  17.628  0.00  0.00    +0.000 A 
ATOM     24  C   UNL     1       3.193   5.020  18.275  0.00  0.00    +0.000 A 
ATOM     25  C   UNL     1       3.668   6.320  18.038  0.00  0.00    +0.000 A 
ATOM     26  C   UNL     1       4.776   6.507  17.197  0.00  0.00    +0.000 A 
ATOM     27  C   UNL     1       3.086   7.518  18.747  0.00  0.00    +0.000 C 
ATOM     28  C   UNL     1       1.728   7.265  19.433  0.00  0.00    +0.000 C 
ATOM     29  C   UNL     1       1.771   5.923  20.172  0.00  0.00    +0.000 C 
ATOM     30  C   UNL     1       2.027   4.772  19.200  0.00  0.00    +0.000 C 
BRANCH  21  32
ATOM     31  O   UNL     1       7.576   6.302  16.266  0.00  0.00    +0.000 OA
ATOM     32  C   UNL     1       6.637   5.671  15.793  0.00  0.00    +0.000 C 
ATOM     33  N   UNL     1       6.667   5.177  14.509  0.00  0.00    +0.000 N 
ATOM     34  H   UNL     1       5.830   4.971  13.977  0.00  0.00    +0.000 HD
BRANCH  33  35
ATOM     35  O   UNL     1       7.818   5.526  13.762  0.00  0.00    +0.000 OA
ATOM     36  H   UNL     1       7.427   5.986  12.984  0.00  0.00    +0.000 HD
ENDBRANCH  33  35
ENDBRANCH  21  32
ENDBRANCH   1  28
TORSDOF 4
ENDMDL
MODEL 7
REMARK VINA RESULT:      -8.0      2.255     11.845
REMARK  Name = 
REMARK  4 active torsions:
REMARK  status: ('A' for Active; 'I' for Inactive)
REMARK    1  A    between atoms: C_2  and  C_5
REMARK    2  A    between atoms: N_3  and  O_4
REMARK    3  A    between atoms: C_12  and  N_13
REMARK    4  A    between atoms: C_18  and  C_19
REMARK                            x       y       z     vdW  Elec       q    Type
REMARK                         _______ _______ _______ _____ _____    ______ ____
ROOT
ATOM      1  N   UNL     1      -0.272  11.405  19.215  0.00  0.00    +0.000 N 
ATOM      2  C   UNL     1       0.057  10.284  19.958  0.00  0.00    +0.000 A 
ATOM      3  N   UNL     1      -0.503  10.061  21.151  0.00  0.00    +0.000 NA
ATOM      4  C   UNL     1      -0.138   8.938  21.791  0.00  0.00    +0.000 A 
ATOM      5  C   UNL     1       0.774   8.042  21.294  0.00  0.00    +0.000 A 
ATOM      6  C   UNL     1       1.320   8.350  20.065  0.00  0.00    +0.000 A 
ATOM      7  N   UNL     1       0.957   9.470  19.395  0.00  0.00    +0.000 NA
ATOM      8  H   UNL     1       0.473  11.499  18.533  0.00  0.00    +0.000 HD
ENDROOT
BRANCH   6   9
ATOM      9  C   UNL     1       2.315   7.505  19.387  0.00  0.00    +0.000 A 
ATOM     10  C   UNL     1       2.743   6.295  19.934  0.00  0.00    +0.000 A 
ATOM     11  C   UNL     1       3.677   5.501  19.265  0.00  0.00    +0.000 A 
ATOM     12  C   UNL     1       4.193   5.896  18.034  0.00  0.00    +0.000 A 
ATOM     13  N   UNL     1       5.089   5.112  17.349  0.00  0.00    +0.000 N 
ATOM     14  C   UNL     1       6.055   4.229  18.004  0.00  0.00    +0.000 C 
ATOM     15  C   UNL     1       7.484   4.598  17.572  0.00  0.00    +0.000 C 
ATOM     16  O   UNL     1       7.623   4.609  16.143  0.00  0.00    +0.000 OA
ATOM     17  C   UNL     1       6.728   5.578  15.567  0.00  0.00    +0.000 C 
ATOM     18  C   UNL     1       5.264   5.262  15.901  0.00  0.00    +0.000 C 
ATOM     19  N   UNL     1       3.787   7.058  17.483  0.00  0.00    +0.000 NA
ATOM     20  C   UNL     1       2.881   7.821  18.156  0.00  0.00    +0.000 A 
ENDBRANCH   6   9
BRANCH   1  28
ATOM     21  C   UNL     1      -4.243  14.383  22.931  0.00  0.00    +0.000 A 
ATOM     22  C   UNL     1      -3.290  15.120  23.641  0.00  0.00    +0.000 A 
ATOM     23  C   UNL     1      -1.936  15.013  23.303  0.00  0.00    +0.000 A 
ATOM     24  C   UNL     1      -1.519  14.162  22.268  0.00  0.00    +0.000 A 
ATOM     25  C   UNL     1      -2.479  13.449  21.532  0.00  0.00    +0.000 A 
ATOM     26  C   UNL     1      -3.835  13.560  21.876  0.00  0.00    +0.000 A 
ATOM     27  C   UNL     1      -2.084  12.480  20.445  0.00  0.00    +0.000 C 
ATOM     28  C   UNL     1      -0.627  12.614  19.958  0.00  0.00    +0.000 C 
ATOM     29  C   UNL     1       0.301  12.782  21.167  0.00  0.00    +0.000 C 
ATOM     30  C   UNL     1      -0.048  14.044  21.954  0.00  0.00    +0.000 C 
BRANCH  21  32
ATOM     31  O   UNL     1      -6.494  15.095  22.755  0.00  0.00    +0.000 OA
ATOM     32  C   UNL     1      -5.679  14.371  23.317  0.00  0.00    +0.000 C 
ATOM     33  N   UNL     1      -6.041  13.525  24.340  0.00  0.00    +0.000 N 
ATOM     34  H   UNL     1      -5.387  13.190  25.038  0.00  0.00    +0.000 HD
BRANCH  33  35
ATOM     35  O   UNL     1      -7.396  13.620  24.741  0.00  0.00    +0.000 OA
ATOM     36  H   UNL     1      -7.837  12.987  24.130  0.00  0.00    +0.000 HD
ENDBRANCH  33  35
ENDBRANCH  21  32
ENDBRANCH   1  28
TORSDOF 4
ENDMDL
MODEL 8
REMARK VINA RESULT:      -8.0      2.344     11.701
REMARK  Name = 
REMARK  4 active torsions:
REMARK  status: ('A' for Active; 'I' for Inactive)
REMARK    1  A    between atoms: C_2  and  C_5
REMARK    2  A    between atoms: N_3  and  O_4
REMARK    3  A    between atoms: C_12  and  N_13
REMARK    4  A    between atoms: C_18  and  C_19
REMARK                            x       y       z     vdW  Elec       q    Type
REMARK                         _______ _______ _______ _____ _____    ______ ____
ROOT
ATOM      1  N   UNL     1      -0.698  11.205  18.143  0.00  0.00    +0.000 N 
ATOM      2  C   UNL     1      -0.159  10.372  19.110  0.00  0.00    +0.000 A 
ATOM      3  N   UNL     1      -0.558  10.450  20.383  0.00  0.00    +0.000 NA
ATOM      4  C   UNL     1       0.005   9.589  21.246  0.00  0.00    +0.000 A 
ATOM      5  C   UNL     1       0.960   8.670  20.891  0.00  0.00    +0.000 A 
ATOM      6  C   UNL     1       1.330   8.663  19.562  0.00  0.00    +0.000 A 
ATOM      7  N   UNL     1       0.766   9.512  18.670  0.00  0.00    +0.000 NA
ATOM      8  H   UNL     1      -0.048  11.165  17.366  0.00  0.00    +0.000 HD
ENDROOT
BRANCH   6   9
ATOM      9  C   UNL     1       2.341   7.748  19.009  0.00  0.00    +0.000 A 
ATOM     10  C   UNL     1       2.715   6.581  19.675  0.00  0.00    +0.000 A 
ATOM     11  C   UNL     1       3.665   5.719  19.124  0.00  0.00    +0.000 A 
ATOM     12  C   UNL     1       4.253   6.002  17.894  0.00  0.00    +0.000 A 
ATOM     13  N   UNL     1       5.166   5.150  17.323  0.00  0.00    +0.000 N 
ATOM     14  C   UNL     1       6.078   4.308  18.098  0.00  0.00    +0.000 C 
ATOM     15  C   UNL     1       7.535   4.618  17.714  0.00  0.00    +0.000 C 
ATOM     16  O   UNL     1       7.748   4.508  16.299  0.00  0.00    +0.000 OA
ATOM     17  C   UNL     1       6.904   5.441  15.599  0.00  0.00    +0.000 C 
ATOM     18  C   UNL     1       5.419   5.178  15.879  0.00  0.00    +0.000 C 
ATOM     19  N   UNL     1       3.899   7.122  17.229  0.00  0.00    +0.000 NA
ATOM     20  C   UNL     1       2.976   7.953  17.788  0.00  0.00    +0.000 A 
ENDBRANCH   6   9
BRANCH   1  28
ATOM     21  C   UNL     1      -3.592  14.788  22.294  0.00  0.00    +0.000 A 
ATOM     22  C   UNL     1      -2.749  15.898  22.176  0.00  0.00    +0.000 A 
ATOM     23  C   UNL     1      -1.699  15.878  21.251  0.00  0.00    +0.000 A 
ATOM     24  C   UNL     1      -1.471  14.749  20.448  0.00  0.00    +0.000 A 
ATOM     25  C   UNL     1      -2.338  13.649  20.541  0.00  0.00    +0.000 A 
ATOM     26  C   UNL     1      -3.389  13.675  21.471  0.00  0.00    +0.000 A 
ATOM     27  C   UNL     1      -2.109  12.390  19.742  0.00  0.00    +0.000 C 
ATOM     28  C   UNL     1      -1.114  12.540  18.573  0.00  0.00    +0.000 C 
ATOM     29  C   UNL     1       0.103  13.347  19.039  0.00  0.00    +0.000 C 
ATOM     30  C   UNL     1      -0.308  14.748  19.486  0.00  0.00    +0.000 C 
BRANCH  21  32
ATOM     31  O   UNL     1      -4.816  15.615  24.144  0.00  0.00    +0.000 OA
ATOM     32  C   UNL     1      -4.651  14.709  23.335  0.00  0.00    +0.000 C 
ATOM     33  N   UNL     1      -5.421  13.568  23.353  0.00  0.00    +0.000 N 
ATOM     34  H   UNL     1      -5.112  12.687  22.961  0.00  0.00    +0.000 HD
BRANCH  33  35
ATOM     35  O   UNL     1      -6.349  13.492  24.420  0.00  0.00    +0.000 OA
ATOM     36  H   UNL     1      -7.117  13.047  23.994  0.00  0.00    +0.000 HD
ENDBRANCH  33  35
ENDBRANCH  21  32
ENDBRANCH   1  28
TORSDOF 4
ENDMDL
MODEL 9
REMARK VINA RESULT:      -8.0      2.633     11.347
REMARK  Name = 
REMARK  4 active torsions:
REMARK  status: ('A' for Active; 'I' for Inactive)
REMARK    1  A    between atoms: C_2  and  C_5
REMARK    2  A    between atoms: N_3  and  O_4
REMARK    3  A    between atoms: C_12  and  N_13
REMARK    4  A    between atoms: C_18  and  C_19
REMARK                            x       y       z     vdW  Elec       q    Type
REMARK                         _______ _______ _______ _____ _____    ______ ____
ROOT
ATOM      1  N   UNL     1       0.243  11.199  21.626  0.00  0.00    +0.000 N 
ATOM      2  C   UNL     1       0.789  10.728  20.443  0.00  0.00    +0.000 A 
ATOM      3  N   UNL     1       1.010  11.549  19.412  0.00  0.00    +0.000 NA
ATOM      4  C   UNL     1       1.560  11.008  18.314  0.00  0.00    +0.000 A 
ATOM      5  C   UNL     1       1.880   9.679  18.200  0.00  0.00    +0.000 A 
ATOM      6  C   UNL     1       1.606   8.892  19.299  0.00  0.00    +0.000 A 
ATOM      7  N   UNL     1       1.064   9.419  20.424  0.00  0.00    +0.000 NA
ATOM      8  H   UNL     1      -0.093  10.374  22.109  0.00  0.00    +0.000 HD
ENDROOT
BRANCH   6   9
ATOM      9  C   UNL     1       1.880   7.447  19.349  0.00  0.00    +0.000 A 
ATOM     10  C   UNL     1       1.837   6.734  20.547  0.00  0.00    +0.000 A 
ATOM     11  C   UNL     1       2.084   5.360  20.568  0.00  0.00    +0.000 A 
ATOM     12  C   UNL     1       2.371   4.672  19.393  0.00  0.00    +0.000 A 
ATOM     13  N   UNL     1       2.587   3.316  19.391  0.00  0.00    +0.000 N 
ATOM     14  C   UNL     1       3.178   2.592  20.518  0.00  0.00    +0.000 C 
ATOM     15  C   UNL     1       4.443   1.845  20.060  0.00  0.00    +0.000 C 
ATOM     16  O   UNL     1       4.181   0.997  18.931  0.00  0.00    +0.000 OA
ATOM     17  C   UNL     1       3.711   1.782  17.821  0.00  0.00    +0.000 C 
ATOM     18  C   UNL     1       2.415   2.529  18.167  0.00  0.00    +0.000 C 
ATOM     19  N   UNL     1       2.411   5.341  18.222  0.00  0.00    +0.000 NA
ATOM     20  C   UNL     1       2.173   6.682  18.224  0.00  0.00    +0.000 A 
ENDBRANCH   6   9
BRANCH   1  28
ATOM     21  C   UNL     1      -5.303  13.348  19.875  0.00  0.00    +0.000 A 
ATOM     22  C   UNL     1      -5.460  14.274  20.912  0.00  0.00    +0.000 A 
ATOM     23  C   UNL     1      -4.440  14.442  21.854  0.00  0.00    +0.000 A 
ATOM     24  C   UNL     1      -3.262  13.681  21.781  0.00  0.00    +0.000 A 
ATOM     25  C   UNL     1      -3.089  12.778  20.721  0.00  0.00    +0.000 A 
ATOM     26  C   UNL     1      -4.117  12.613  19.779  0.00  0.00    +0.000 A 
ATOM     27  C   UNL     1      -1.869  11.896  20.623  0.00  0.00    +0.000 C 
ATOM     28  C   UNL     1      -0.692  12.319  21.526  0.00  0.00    +0.000 C 
ATOM     29  C   UNL     1      -1.223  12.689  22.915  0.00  0.00    +0.000 C 
ATOM     30  C   UNL     1      -2.197  13.862  22.835  0.00  0.00    +0.000 C 
BRANCH  21  32
ATOM     31  O   UNL     1      -7.472  12.601  19.293  0.00  0.00    +0.000 OA
ATOM     32  C   UNL     1      -6.396  13.048  18.913  0.00  0.00    +0.000 C 
ATOM     33  N   UNL     1      -6.134  13.282  17.582  0.00  0.00    +0.000 N 
ATOM     34  H   UNL     1      -5.197  13.310  17.200  0.00  0.00    +0.000 HD
BRANCH  33  35
ATOM     35  O   UNL     1      -7.165  12.888  16.694  0.00  0.00    +0.000 OA
ATOM     36  H   UNL     1      -6.743  12.144  16.206  0.00  0.00    +0.000 HD
ENDBRANCH  33  35
ENDBRANCH  21  32
ENDBRANCH   1  28
TORSDOF 4
ENDMDL
