MODEL 1
REMARK VINA RESULT:      -4.9      0.000      0.000
REMARK  Name = 
REMARK  2 active torsions:
REMARK  status: ('A' for Active; 'I' for Inactive)
REMARK    1  A    between atoms: C_1  and  N_2
REMARK    2  A    between atoms: N_2  and  C_3
REMARK                            x       y       z     vdW  Elec       q    Type
REMARK                         _______ _______ _______ _____ _____    ______ ____
ROOT
ATOM      1  C   UNL     1       6.604   5.212  16.156  0.00  0.00    +0.000 A 
ATOM      2  C   UNL     1       5.327   5.769  15.984  0.00  0.00    +0.000 A 
ATOM      3  C   UNL     1       4.390   5.788  17.024  0.00  0.00    +0.000 A 
ATOM      4  C   UNL     1       4.735   5.279  18.273  0.00  0.00    +0.000 A 
ATOM      5 BR   UNL     1       3.476   5.311  19.681  0.00  0.00    +0.000 Br
ATOM      6  C   UNL     1       6.004   4.761  18.491  0.00  0.00    +0.000 A 
ATOM      7  C   UNL     1       6.926   4.738  17.444  0.00  0.00    +0.000 A 
ATOM      8  F   UNL     1       8.144   4.243  17.711  0.00  0.00    +0.000 F 
ENDROOT
BRANCH   1  10
ATOM      9  C   UNL     1       7.083   4.762  13.791  0.00  0.00    +0.000 C 
ATOM     10  N   UNL     1       7.504   5.287  15.080  0.00  0.00    +0.000 N 
ATOM     11  H   UNL     1       7.920   6.212  14.997  0.00  0.00    +0.000 HD
ENDBRANCH   1  10
TORSDOF 1
ENDMDL
MODEL 2
REMARK VINA RESULT:      -4.9      4.650      5.849
REMARK  Name = 
REMARK  2 active torsions:
REMARK  status: ('A' for Active; 'I' for Inactive)
REMARK    1  A    between atoms: C_1  and  N_2
REMARK    2  A    between atoms: N_2  and  C_3
REMARK                            x       y       z     vdW  Elec       q    Type
REMARK                         _______ _______ _______ _____ _____    ______ ____
ROOT
ATOM      1  C   UNL     1       1.631   4.236  19.522  0.00  0.00    +0.000 A 
ATOM      2  C   UNL     1       2.140   3.662  18.347  0.00  0.00    +0.000 A 
ATOM      3  C   UNL     1       3.057   4.342  17.536  0.00  0.00    +0.000 A 
ATOM      4  C   UNL     1       3.510   5.603  17.916  0.00  0.00    +0.000 A 
ATOM      5 BR   UNL     1       4.753   6.521  16.829  0.00  0.00    +0.000 Br
ATOM      6  C   UNL     1       3.061   6.182  19.095  0.00  0.00    +0.000 A 
ATOM      7  C   UNL     1       2.139   5.498  19.889  0.00  0.00    +0.000 A 
ATOM      8  F   UNL     1       1.751   6.093  21.027  0.00  0.00    +0.000 F 
ENDROOT
BRANCH   1  10
ATOM      9  C   UNL     1       1.314   2.743  21.445  0.00  0.00    +0.000 C 
ATOM     10  N   UNL     1       0.761   3.461  20.308  0.00  0.00    +0.000 N 
ATOM     11  H   UNL     1      -0.084   3.972  20.554  0.00  0.00    +0.000 HD
ENDBRANCH   1  10
TORSDOF 1
ENDMDL
MODEL 3
REMARK VINA RESULT:      -4.8      2.040      2.395
REMARK  Name = 
REMARK  2 active torsions:
REMARK  status: ('A' for Active; 'I' for Inactive)
REMARK    1  A    between atoms: C_1  and  N_2
REMARK    2  A    between atoms: N_2  and  C_3
REMARK                            x       y       z     vdW  Elec       q    Type
REMARK                         _______ _______ _______ _____ _____    ______ ____
ROOT
ATOM      1  C   UNL     1       5.701   5.857  16.748  0.00  0.00    +0.000 A 
ATOM      2  C   UNL     1       4.726   6.607  17.425  0.00  0.00    +0.000 A 
ATOM      3  C   UNL     1       3.504   6.042  17.810  0.00  0.00    +0.000 A 
ATOM      4  C   UNL     1       3.255   4.696  17.554  0.00  0.00    +0.000 A 
ATOM      5 BR   UNL     1       1.610   3.929  18.079  0.00  0.00    +0.000 Br
ATOM      6  C   UNL     1       4.214   3.914  16.925  0.00  0.00    +0.000 A 
ATOM      7  C   UNL     1       5.424   4.491  16.537  0.00  0.00    +0.000 A 
ATOM      8  F   UNL     1       6.325   3.689  15.950  0.00  0.00    +0.000 F 
ENDROOT
BRANCH   1  10
ATOM      9  C   UNL     1       7.526   7.334  17.465  0.00  0.00    +0.000 C 
ATOM     10  N   UNL     1       6.922   6.484  16.451  0.00  0.00    +0.000 N 
ATOM     11  H   UNL     1       7.594   5.834  16.049  0.00  0.00    +0.000 HD
ENDBRANCH   1  10
TORSDOF 1
ENDMDL
MODEL 4
REMARK VINA RESULT:      -4.7      4.142      5.279
REMARK  Name = 
REMARK  2 active torsions:
REMARK  status: ('A' for Active; 'I' for Inactive)
REMARK    1  A    between atoms: C_1  and  N_2
REMARK    2  A    between atoms: N_2  and  C_3
REMARK                            x       y       z     vdW  Elec       q    Type
REMARK                         _______ _______ _______ _____ _____    ______ ____
ROOT
ATOM      1  C   UNL     1       2.310   3.281  18.871  0.00  0.00    +0.000 A 
ATOM      2  C   UNL     1       2.154   4.673  18.777  0.00  0.00    +0.000 A 
ATOM      3  C   UNL     1       3.007   5.455  17.989  0.00  0.00    +0.000 A 
ATOM      4  C   UNL     1       4.015   4.843  17.248  0.00  0.00    +0.000 A 
ATOM      5 BR   UNL     1       5.164   5.894  16.179  0.00  0.00    +0.000 Br
ATOM      6  C   UNL     1       4.171   3.465  17.283  0.00  0.00    +0.000 A 
ATOM      7  C   UNL     1       3.320   2.697  18.080  0.00  0.00    +0.000 A 
ATOM      8  F   UNL     1       3.500   1.367  18.064  0.00  0.00    +0.000 F 
ENDROOT
BRANCH   1  10
ATOM      9  C   UNL     1       1.280   2.853  21.057  0.00  0.00    +0.000 C 
ATOM     10  N   UNL     1       1.374   2.565  19.635  0.00  0.00    +0.000 N 
ATOM     11  H   UNL     1       0.460   2.540  19.190  0.00  0.00    +0.000 HD
ENDBRANCH   1  10
TORSDOF 1
ENDMDL
MODEL 5
REMARK VINA RESULT:      -4.7      2.287      2.728
REMARK  Name = 
REMARK  2 active torsions:
REMARK  status: ('A' for Active; 'I' for Inactive)
REMARK    1  A    between atoms: C_1  and  N_2
REMARK    2  A    between atoms: N_2  and  C_3
REMARK                            x       y       z     vdW  Elec       q    Type
REMARK                         _______ _______ _______ _____ _____    ______ ____
ROOT
ATOM      1  C   UNL     1       5.080   4.097  17.813  0.00  0.00    +0.000 A 
ATOM      2  C   UNL     1       3.951   3.433  17.308  0.00  0.00    +0.000 A 
ATOM      3  C   UNL     1       2.749   3.385  18.024  0.00  0.00    +0.000 A 
ATOM      4  C   UNL     1       2.649   4.039  19.250  0.00  0.00    +0.000 A 
ATOM      5 BR   UNL     1       1.026   3.983  20.215  0.00  0.00    +0.000 Br
ATOM      6  C   UNL     1       3.732   4.742  19.758  0.00  0.00    +0.000 A 
ATOM      7  C   UNL     1       4.929   4.774  19.039  0.00  0.00    +0.000 A 
ATOM      8  F   UNL     1       5.940   5.482  19.565  0.00  0.00    +0.000 F 
ENDROOT
BRANCH   1  10
ATOM      9  C   UNL     1       6.076   3.920  15.576  0.00  0.00    +0.000 C 
ATOM     10  N   UNL     1       6.228   4.149  17.004  0.00  0.00    +0.000 N 
ATOM     11  H   UNL     1       6.794   4.971  17.200  0.00  0.00    +0.000 HD
ENDBRANCH   1  10
TORSDOF 1
ENDMDL
MODEL 6
REMARK VINA RESULT:      -4.7      1.065      1.072
REMARK  Name = 
REMARK  2 active torsions:
REMARK  status: ('A' for Active; 'I' for Inactive)
REMARK    1  A    between atoms: C_1  and  N_2
REMARK    2  A    between atoms: N_2  and  C_3
REMARK                            x       y       z     vdW  Elec       q    Type
REMARK                         _______ _______ _______ _____ _____    ______ ____
ROOT
ATOM      1  C   UNL     1       6.469   4.715  16.828  0.00  0.00    +0.000 A 
ATOM      2  C   UNL     1       5.157   4.367  16.473  0.00  0.00    +0.000 A 
ATOM      3  C   UNL     1       4.115   4.384  17.408  0.00  0.00    +0.000 A 
ATOM      4  C   UNL     1       4.368   4.792  18.715  0.00  0.00    +0.000 A 
ATOM      5 BR   UNL     1       2.963   4.825  19.977  0.00  0.00    +0.000 Br
ATOM      6  C   UNL     1       5.645   5.186  19.090  0.00  0.00    +0.000 A 
ATOM      7  C   UNL     1       6.678   5.154  18.151  0.00  0.00    +0.000 A 
ATOM      8  F   UNL     1       7.889   5.562  18.559  0.00  0.00    +0.000 F 
ENDROOT
BRANCH   1  10
ATOM      9  C   UNL     1       6.998   4.781  14.432  0.00  0.00    +0.000 C 
ATOM     10  N   UNL     1       7.443   4.728  15.816  0.00  0.00    +0.000 N 
ATOM     11  H   UNL     1       8.179   5.405  16.005  0.00  0.00    +0.000 HD
ENDBRANCH   1  10
TORSDOF 1
ENDMDL
MODEL 7
REMARK VINA RESULT:      -4.7      1.662      2.239
REMARK  Name = 
REMARK  2 active torsions:
REMARK  status: ('A' for Active; 'I' for Inactive)
REMARK    1  A    between atoms: C_1  and  N_2
REMARK    2  A    between atoms: N_2  and  C_3
REMARK                            x       y       z     vdW  Elec       q    Type
REMARK                         _______ _______ _______ _____ _____    ______ ____
ROOT
ATOM      1  C   UNL     1       6.312   5.591  16.612  0.00  0.00    +0.000 A 
ATOM      2  C   UNL     1       6.463   4.776  17.744  0.00  0.00    +0.000 A 
ATOM      3  C   UNL     1       5.475   4.706  18.734  0.00  0.00    +0.000 A 
ATOM      4  C   UNL     1       4.295   5.429  18.582  0.00  0.00    +0.000 A 
ATOM      5 BR   UNL     1       2.956   5.330  19.911  0.00  0.00    +0.000 Br
ATOM      6  C   UNL     1       4.093   6.211  17.453  0.00  0.00    +0.000 A 
ATOM      7  C   UNL     1       5.090   6.281  16.478  0.00  0.00    +0.000 A 
ATOM      8  F   UNL     1       4.838   7.036  15.398  0.00  0.00    +0.000 F 
ENDROOT
BRANCH   1  10
ATOM      9  C   UNL     1       7.087   4.796  14.422  0.00  0.00    +0.000 C 
ATOM     10  N   UNL     1       7.324   5.558  15.638  0.00  0.00    +0.000 N 
ATOM     11  H   UNL     1       7.692   6.486  15.440  0.00  0.00    +0.000 HD
ENDBRANCH   1  10
TORSDOF 1
ENDMDL
MODEL 8
REMARK VINA RESULT:      -4.7      2.277      3.003
REMARK  Name = 
REMARK  2 active torsions:
REMARK  status: ('A' for Active; 'I' for Inactive)
REMARK    1  A    between atoms: C_1  and  N_2
REMARK    2  A    between atoms: N_2  and  C_3
REMARK                            x       y       z     vdW  Elec       q    Type
REMARK                         _______ _______ _______ _____ _____    ______ ____
ROOT
ATOM      1  C   UNL     1       6.195   4.653  18.141  0.00  0.00    +0.000 A 
ATOM      2  C   UNL     1       5.342   4.976  19.207  0.00  0.00    +0.000 A 
ATOM      3  C   UNL     1       3.952   4.837  19.102  0.00  0.00    +0.000 A 
ATOM      4  C   UNL     1       3.397   4.333  17.928  0.00  0.00    +0.000 A 
ATOM      5 BR   UNL     1       1.524   4.137  17.785  0.00  0.00    +0.000 Br
ATOM      6  C   UNL     1       4.215   3.963  16.870  0.00  0.00    +0.000 A 
ATOM      7  C   UNL     1       5.598   4.115  16.984  0.00  0.00    +0.000 A 
ATOM      8  F   UNL     1       6.345   3.725  15.940  0.00  0.00    +0.000 F 
ENDROOT
BRANCH   1  10
ATOM      9  C   UNL     1       8.065   5.851  19.187  0.00  0.00    +0.000 C 
ATOM     10  N   UNL     1       7.580   4.765  18.351  0.00  0.00    +0.000 N 
ATOM     11  H   UNL     1       7.999   3.873  18.604  0.00  0.00    +0.000 HD
ENDBRANCH   1  10
TORSDOF 1
ENDMDL
MODEL 9
REMARK VINA RESULT:      -4.7      1.675      1.851
REMARK  Name = 
REMARK  2 active torsions:
REMARK  status: ('A' for Active; 'I' for Inactive)
REMARK    1  A    between atoms: C_1  and  N_2
REMARK    2  A    between atoms: N_2  and  C_3
REMARK                            x       y       z     vdW  Elec       q    Type
REMARK                         _______ _______ _______ _____ _____    ______ ____
ROOT
ATOM      1  C   UNL     1       6.196   5.293  16.120  0.00  0.00    +0.000 A 
ATOM      2  C   UNL     1       5.406   4.137  16.027  0.00  0.00    +0.000 A 
ATOM      3  C   UNL     1       4.223   3.997  16.763  0.00  0.00    +0.000 A 
ATOM      4  C   UNL     1       3.793   5.038  17.582  0.00  0.00    +0.000 A 
ATOM      5 BR   UNL     1       2.194   4.856  18.571  0.00  0.00    +0.000 Br
ATOM      6  C   UNL     1       4.527   6.213  17.664  0.00  0.00    +0.000 A 
ATOM      7  C   UNL     1       5.710   6.337  16.932  0.00  0.00    +0.000 A 
ATOM      8  F   UNL     1       6.373   7.499  17.032  0.00  0.00    +0.000 F 
ENDROOT
BRANCH   1  10
ATOM      9  C   UNL     1       7.243   4.881  13.938  0.00  0.00    +0.000 C 
ATOM     10  N   UNL     1       7.335   5.377  15.302  0.00  0.00    +0.000 N 
ATOM     11  H   UNL     1       7.766   6.298  15.344  0.00  0.00    +0.000 HD
ENDBRANCH   1  10
TORSDOF 1
ENDMDL
