MODEL 1
REMARK VINA RESULT:      -7.7      0.000      0.000
REMARK  Name = 
REMARK  14 active torsions:
REMARK  status: ('A' for Active; 'I' for Inactive)
REMARK    1  A    between atoms: C_1  and  O_2
REMARK    2  A    between atoms: O_2  and  C_3
REMARK    3  A    between atoms: C_3  and  C_5
REMARK    4  A    between atoms: C_7  and  C_8
REMARK    5  A    between atoms: C_11  and  C_12
REMARK    6  A    between atoms: C_12  and  N_13
REMARK    7  A    between atoms: C_12  and  C_21
REMARK    8  A    between atoms: C_14  and  C_16
REMARK    9  A    between atoms: C_16  and  C_17
REMARK   10  A    between atoms: C_18  and  C_19
REMARK   11  A    between atoms: C_18  and  C_20
REMARK   12  A    between atoms: C_21  and  C_22
REMARK   13  A    between atoms: C_21  and  C_23
REMARK   14  A    between atoms: C_26  and  C_27
REMARK                            x       y       z     vdW  Elec       q    Type
REMARK                         _______ _______ _______ _____ _____    ______ ____
ROOT
ATOM      1  C   UNL     1       2.531   6.491  19.549  0.00  0.00    +0.000 A 
ATOM      2  C   UNL     1       2.188   5.193  19.860  0.00  0.00    +0.000 A 
ATOM      3  S   UNL     1       3.323   4.109  19.163  0.00  0.00    +0.000 S 
ATOM      4  C   UNL     1       4.200   5.454  18.529  0.00  0.00    +0.000 A 
ATOM      5  N   UNL     1       3.661   6.629  18.773  0.00  0.00    +0.000 NA
ENDROOT
BRANCH   1   8
ATOM      6  C   UNL     1       0.774   9.070  21.339  0.00  0.00    +0.000 A 
ATOM      7  N   UNL     1       1.312   7.793  21.276  0.00  0.00    +0.000 NA
ATOM      8  C   UNL     1       1.778   7.685  20.046  0.00  0.00    +0.000 A 
ATOM      9  O   UNL     1       1.549   8.799  19.275  0.00  0.00    +0.000 OA
ATOM     10  C   UNL     1       0.889   9.666  20.100  0.00  0.00    +0.000 A 
ATOM     11  C   UNL     1       0.491  10.964  19.525  0.00  0.00    +0.000 C 
BRANCH   6  12
ATOM     12  C   UNL     1       0.204   9.663  22.538  0.00  0.00    +0.000 C 
ATOM     13  O   UNL     1       0.749   9.637  23.634  0.00  0.00    +0.000 OA
BRANCH  12  15
ATOM     14  C   UNL     1      -1.230  11.482  22.930  0.00  0.00    +0.000 C 
ATOM     15  O   UNL     1      -1.020  10.222  22.299  0.00  0.00    +0.000 OA
ENDBRANCH  12  15
ENDBRANCH   6  12
ENDBRANCH   1   8
BRANCH   4  16
ATOM     16  C   UNL     1       5.521   5.250  17.813  0.00  0.00    +0.000 C 
BRANCH  16  17
ATOM     17  N   UNL     1       5.310   5.273  16.363  0.00  0.00    +0.000 N 
ATOM     18  C   UNL     1       5.926   4.407  15.484  0.00  0.00    +0.000 C 
ATOM     19  O   UNL     1       6.737   3.549  15.810  0.00  0.00    +0.000 OA
ATOM     20  H   UNL     1       4.645   5.939  15.996  0.00  0.00    +0.000 HD
BRANCH  18  21
ATOM     21  C   UNL     1       5.528   4.609  14.029  0.00  0.00    +0.000 C 
BRANCH  21  22
ATOM     22  C   UNL     1       6.195   3.586  13.149  0.00  0.00    +0.000 C 
ATOM     23  C   UNL     1       5.663   3.018  12.050  0.00  0.00    +0.000 C 
ATOM     24  C   UNL     1       4.277   3.286  11.530  0.00  0.00    +0.000 C 
ATOM     25  C   UNL     1       6.437   1.999  11.251  0.00  0.00    +0.000 C 
ENDBRANCH  21  22
ENDBRANCH  18  21
ENDBRANCH  16  17
BRANCH  16  26
ATOM     26  C   UNL     1       6.616   6.248  18.289  0.00  0.00    +0.000 C 
ATOM     27  C   UNL     1       7.831   5.533  18.900  0.00  0.00    +0.000 C 
ATOM     28  C   UNL     1       7.105   7.132  17.135  0.00  0.00    +0.000 C 
ENDBRANCH  16  26
ENDBRANCH   4  16
TORSDOF 8
ENDMDL
MODEL 2
REMARK VINA RESULT:      -7.6      2.150      9.347
REMARK  Name = 
REMARK  14 active torsions:
REMARK  status: ('A' for Active; 'I' for Inactive)
REMARK    1  A    between atoms: C_1  and  O_2
REMARK    2  A    between atoms: O_2  and  C_3
REMARK    3  A    between atoms: C_3  and  C_5
REMARK    4  A    between atoms: C_7  and  C_8
REMARK    5  A    between atoms: C_11  and  C_12
REMARK    6  A    between atoms: C_12  and  N_13
REMARK    7  A    between atoms: C_12  and  C_21
REMARK    8  A    between atoms: C_14  and  C_16
REMARK    9  A    between atoms: C_16  and  C_17
REMARK   10  A    between atoms: C_18  and  C_19
REMARK   11  A    between atoms: C_18  and  C_20
REMARK   12  A    between atoms: C_21  and  C_22
REMARK   13  A    between atoms: C_21  and  C_23
REMARK   14  A    between atoms: C_26  and  C_27
REMARK                            x       y       z     vdW  Elec       q    Type
REMARK                         _______ _______ _______ _____ _____    ______ ____
ROOT
ATOM      1  C   UNL     1       6.034   5.028  16.747  0.00  0.00    +0.000 A 
ATOM      2  C   UNL     1       6.829   4.787  17.846  0.00  0.00    +0.000 A 
ATOM      3  S   UNL     1       5.955   5.133  19.283  0.00  0.00    +0.000 S 
ATOM      4  C   UNL     1       4.576   5.547  18.330  0.00  0.00    +0.000 A 
ATOM      5  N   UNL     1       4.764   5.482  17.029  0.00  0.00    +0.000 NA
ENDROOT
BRANCH   1   8
ATOM      6  C   UNL     1       6.614   3.962  13.361  0.00  0.00    +0.000 A 
ATOM      7  N   UNL     1       6.032   3.771  14.605  0.00  0.00    +0.000 NA
ATOM      8  C   UNL     1       6.474   4.776  15.339  0.00  0.00    +0.000 A 
ATOM      9  O   UNL     1       7.343   5.602  14.667  0.00  0.00    +0.000 OA
ATOM     10  C   UNL     1       7.443   5.063  13.416  0.00  0.00    +0.000 A 
ATOM     11  C   UNL     1       8.341   5.743  12.465  0.00  0.00    +0.000 C 
BRANCH   6  12
ATOM     12  C   UNL     1       6.355   3.128  12.197  0.00  0.00    +0.000 C 
ATOM     13  O   UNL     1       7.204   2.845  11.361  0.00  0.00    +0.000 OA
BRANCH  12  15
ATOM     14  C   UNL     1       4.265   3.411  11.163  0.00  0.00    +0.000 C 
ATOM     15  O   UNL     1       5.050   2.728  12.136  0.00  0.00    +0.000 OA
ENDBRANCH  12  15
ENDBRANCH   6  12
ENDBRANCH   1   8
BRANCH   4  16
ATOM     16  C   UNL     1       3.252   5.885  18.987  0.00  0.00    +0.000 C 
BRANCH  16  17
ATOM     17  N   UNL     1       2.596   6.971  18.256  0.00  0.00    +0.000 N 
ATOM     18  C   UNL     1       1.992   8.052  18.864  0.00  0.00    +0.000 C 
ATOM     19  O   UNL     1       1.909   8.208  20.076  0.00  0.00    +0.000 OA
ATOM     20  H   UNL     1       2.623   6.941  17.246  0.00  0.00    +0.000 HD
BRANCH  18  21
ATOM     21  C   UNL     1       1.401   9.063  17.893  0.00  0.00    +0.000 C 
BRANCH  21  22
ATOM     22  C   UNL     1       1.117  10.367  18.589  0.00  0.00    +0.000 C 
ATOM     23  C   UNL     1      -0.101  10.900  18.810  0.00  0.00    +0.000 C 
ATOM     24  C   UNL     1      -1.399  10.290  18.356  0.00  0.00    +0.000 C 
ATOM     25  C   UNL     1      -0.252  12.221  19.521  0.00  0.00    +0.000 C 
ENDBRANCH  21  22
ENDBRANCH  18  21
ENDBRANCH  16  17
BRANCH  16  26
ATOM     26  C   UNL     1       2.345   4.635  19.175  0.00  0.00    +0.000 C 
ATOM     27  C   UNL     1       1.387   4.783  20.366  0.00  0.00    +0.000 C 
ATOM     28  C   UNL     1       1.512   4.357  17.917  0.00  0.00    +0.000 C 
ENDBRANCH  16  26
ENDBRANCH   4  16
TORSDOF 8
ENDMDL
MODEL 3
REMARK VINA RESULT:      -7.5      2.126      9.702
REMARK  Name = 
REMARK  14 active torsions:
REMARK  status: ('A' for Active; 'I' for Inactive)
REMARK    1  A    between atoms: C_1  and  O_2
REMARK    2  A    between atoms: O_2  and  C_3
REMARK    3  A    between atoms: C_3  and  C_5
REMARK    4  A    between atoms: C_7  and  C_8
REMARK    5  A    between atoms: C_11  and  C_12
REMARK    6  A    between atoms: C_12  and  N_13
REMARK    7  A    between atoms: C_12  and  C_21
REMARK    8  A    between atoms: C_14  and  C_16
REMARK    9  A    between atoms: C_16  and  C_17
REMARK   10  A    between atoms: C_18  and  C_19
REMARK   11  A    between atoms: C_18  and  C_20
REMARK   12  A    between atoms: C_21  and  C_22
REMARK   13  A    between atoms: C_21  and  C_23
REMARK   14  A    between atoms: C_26  and  C_27
REMARK                            x       y       z     vdW  Elec       q    Type
REMARK                         _______ _______ _______ _____ _____    ______ ____
ROOT
ATOM      1  C   UNL     1       6.335   4.886  16.811  0.00  0.00    +0.000 A 
ATOM      2  C   UNL     1       7.343   5.014  17.744  0.00  0.00    +0.000 A 
ATOM      3  S   UNL     1       6.664   5.175  19.313  0.00  0.00    +0.000 S 
ATOM      4  C   UNL     1       5.085   5.030  18.633  0.00  0.00    +0.000 A 
ATOM      5  N   UNL     1       5.056   4.919  17.322  0.00  0.00    +0.000 NA
ENDROOT
BRANCH   1   8
ATOM      6  C   UNL     1       6.414   3.968  13.335  0.00  0.00    +0.000 A 
ATOM      7  N   UNL     1       5.959   3.764  14.629  0.00  0.00    +0.000 NA
ATOM      8  C   UNL     1       6.585   4.674  15.352  0.00  0.00    +0.000 A 
ATOM      9  O   UNL     1       7.456   5.446  14.621  0.00  0.00    +0.000 OA
ATOM     10  C   UNL     1       7.357   4.974  13.343  0.00  0.00    +0.000 A 
ATOM     11  C   UNL     1       8.209   5.616  12.325  0.00  0.00    +0.000 C 
BRANCH   6  12
ATOM     12  C   UNL     1       5.938   3.234  12.172  0.00  0.00    +0.000 C 
ATOM     13  O   UNL     1       4.786   3.286  11.759  0.00  0.00    +0.000 OA
BRANCH  12  15
ATOM     14  C   UNL     1       6.466   1.222  11.080  0.00  0.00    +0.000 C 
ATOM     15  O   UNL     1       6.919   2.460  11.620  0.00  0.00    +0.000 OA
ENDBRANCH  12  15
ENDBRANCH   6  12
ENDBRANCH   1   8
BRANCH   4  16
ATOM     16  C   UNL     1       3.859   4.968  19.523  0.00  0.00    +0.000 C 
BRANCH  16  17
ATOM     17  N   UNL     1       3.210   6.280  19.568  0.00  0.00    +0.000 N 
ATOM     18  C   UNL     1       2.085   6.555  20.318  0.00  0.00    +0.000 C 
ATOM     19  O   UNL     1       1.487   5.732  20.999  0.00  0.00    +0.000 OA
ATOM     20  H   UNL     1       3.637   7.034  19.047  0.00  0.00    +0.000 HD
BRANCH  18  21
ATOM     21  C   UNL     1       1.610   7.998  20.222  0.00  0.00    +0.000 C 
BRANCH  21  22
ATOM     22  C   UNL     1       1.053   8.463  21.541  0.00  0.00    +0.000 C 
ATOM     23  C   UNL     1       0.145   9.443  21.717  0.00  0.00    +0.000 C 
ATOM     24  C   UNL     1      -0.445  10.275  20.612  0.00  0.00    +0.000 C 
ATOM     25  C   UNL     1      -0.333   9.818  23.098  0.00  0.00    +0.000 C 
ENDBRANCH  21  22
ENDBRANCH  18  21
ENDBRANCH  16  17
BRANCH  16  26
ATOM     26  C   UNL     1       2.891   3.818  19.124  0.00  0.00    +0.000 C 
ATOM     27  C   UNL     1       2.189   4.085  17.783  0.00  0.00    +0.000 C 
ATOM     28  C   UNL     1       3.628   2.477  19.024  0.00  0.00    +0.000 C 
ENDBRANCH  16  26
ENDBRANCH   4  16
TORSDOF 8
ENDMDL
MODEL 4
REMARK VINA RESULT:      -7.4      1.005      1.295
REMARK  Name = 
REMARK  14 active torsions:
REMARK  status: ('A' for Active; 'I' for Inactive)
REMARK    1  A    between atoms: C_1  and  O_2
REMARK    2  A    between atoms: O_2  and  C_3
REMARK    3  A    between atoms: C_3  and  C_5
REMARK    4  A    between atoms: C_7  and  C_8
REMARK    5  A    between atoms: C_11  and  C_12
REMARK    6  A    between atoms: C_12  and  N_13
REMARK    7  A    between atoms: C_12  and  C_21
REMARK    8  A    between atoms: C_14  and  C_16
REMARK    9  A    between atoms: C_16  and  C_17
REMARK   10  A    between atoms: C_18  and  C_19
REMARK   11  A    between atoms: C_18  and  C_20
REMARK   12  A    between atoms: C_21  and  C_22
REMARK   13  A    between atoms: C_21  and  C_23
REMARK   14  A    between atoms: C_26  and  C_27
REMARK                            x       y       z     vdW  Elec       q    Type
REMARK                         _______ _______ _______ _____ _____    ______ ____
ROOT
ATOM      1  C   UNL     1       3.079   6.337  19.142  0.00  0.00    +0.000 A 
ATOM      2  C   UNL     1       2.957   5.195  19.905  0.00  0.00    +0.000 A 
ATOM      3  S   UNL     1       4.134   4.043  19.419  0.00  0.00    +0.000 S 
ATOM      4  C   UNL     1       4.735   5.166  18.254  0.00  0.00    +0.000 A 
ATOM      5  N   UNL     1       4.076   6.303  18.191  0.00  0.00    +0.000 NA
ENDROOT
BRANCH   1   8
ATOM      6  C   UNL     1       1.161   9.161  20.275  0.00  0.00    +0.000 A 
ATOM      7  N   UNL     1       1.814   7.963  20.527  0.00  0.00    +0.000 NA
ATOM      8  C   UNL     1       2.238   7.557  19.345  0.00  0.00    +0.000 A 
ATOM      9  O   UNL     1       1.875   8.395  18.317  0.00  0.00    +0.000 OA
ATOM     10  C   UNL     1       1.170   9.400  18.917  0.00  0.00    +0.000 A 
ATOM     11  C   UNL     1       0.630  10.454  18.038  0.00  0.00    +0.000 C 
BRANCH   6  12
ATOM     12  C   UNL     1       0.586  10.014  21.303  0.00  0.00    +0.000 C 
ATOM     13  O   UNL     1       0.910  11.183  21.476  0.00  0.00    +0.000 OA
BRANCH  12  15
ATOM     14  C   UNL     1      -0.138   9.477  23.472  0.00  0.00    +0.000 C 
ATOM     15  O   UNL     1      -0.330   9.348  22.067  0.00  0.00    +0.000 OA
ENDBRANCH  12  15
ENDBRANCH   6  12
ENDBRANCH   1   8
BRANCH   4  16
ATOM     16  C   UNL     1       5.972   4.848  17.437  0.00  0.00    +0.000 C 
BRANCH  16  17
ATOM     17  N   UNL     1       5.641   4.852  16.010  0.00  0.00    +0.000 N 
ATOM     18  C   UNL     1       6.573   4.691  15.005  0.00  0.00    +0.000 C 
ATOM     19  O   UNL     1       7.777   4.561  15.190  0.00  0.00    +0.000 OA
ATOM     20  H   UNL     1       4.668   4.940  15.753  0.00  0.00    +0.000 HD
BRANCH  18  21
ATOM     21  C   UNL     1       5.985   4.705  13.602  0.00  0.00    +0.000 C 
BRANCH  21  22
ATOM     22  C   UNL     1       6.296   3.421  12.882  0.00  0.00    +0.000 C 
ATOM     23  C   UNL     1       5.542   2.843  11.927  0.00  0.00    +0.000 C 
ATOM     24  C   UNL     1       4.222   3.374  11.438  0.00  0.00    +0.000 C 
ATOM     25  C   UNL     1       5.966   1.548  11.281  0.00  0.00    +0.000 C 
ENDBRANCH  21  22
ENDBRANCH  18  21
ENDBRANCH  16  17
BRANCH  16  26
ATOM     26  C   UNL     1       7.172   5.774  17.791  0.00  0.00    +0.000 C 
ATOM     27  C   UNL     1       6.921   7.235  17.386  0.00  0.00    +0.000 C 
ATOM     28  C   UNL     1       7.483   5.735  19.292  0.00  0.00    +0.000 C 
ENDBRANCH  16  26
ENDBRANCH   4  16
TORSDOF 8
ENDMDL
MODEL 5
REMARK VINA RESULT:      -7.4      1.228      1.674
REMARK  Name = 
REMARK  14 active torsions:
REMARK  status: ('A' for Active; 'I' for Inactive)
REMARK    1  A    between atoms: C_1  and  O_2
REMARK    2  A    between atoms: O_2  and  C_3
REMARK    3  A    between atoms: C_3  and  C_5
REMARK    4  A    between atoms: C_7  and  C_8
REMARK    5  A    between atoms: C_11  and  C_12
REMARK    6  A    between atoms: C_12  and  N_13
REMARK    7  A    between atoms: C_12  and  C_21
REMARK    8  A    between atoms: C_14  and  C_16
REMARK    9  A    between atoms: C_16  and  C_17
REMARK   10  A    between atoms: C_18  and  C_19
REMARK   11  A    between atoms: C_18  and  C_20
REMARK   12  A    between atoms: C_21  and  C_22
REMARK   13  A    between atoms: C_21  and  C_23
REMARK   14  A    between atoms: C_26  and  C_27
REMARK                            x       y       z     vdW  Elec       q    Type
REMARK                         _______ _______ _______ _____ _____    ______ ____
ROOT
ATOM      1  C   UNL     1       3.531   5.906  18.850  0.00  0.00    +0.000 A 
ATOM      2  C   UNL     1       3.242   4.609  19.215  0.00  0.00    +0.000 A 
ATOM      3  S   UNL     1       4.544   3.579  18.777  0.00  0.00    +0.000 S 
ATOM      4  C   UNL     1       5.403   4.944  18.163  0.00  0.00    +0.000 A 
ATOM      5  N   UNL     1       4.749   6.084  18.232  0.00  0.00    +0.000 NA
ENDROOT
BRANCH   1   8
ATOM      6  C   UNL     1       1.352   8.452  20.158  0.00  0.00    +0.000 A 
ATOM      7  N   UNL     1       1.990   7.227  20.281  0.00  0.00    +0.000 NA
ATOM      8  C   UNL     1       2.627   7.064  19.136  0.00  0.00    +0.000 A 
ATOM      9  O   UNL     1       2.420   8.090  18.246  0.00  0.00    +0.000 OA
ATOM     10  C   UNL     1       1.590   8.958  18.897  0.00  0.00    +0.000 A 
ATOM     11  C   UNL     1       1.176  10.167  18.161  0.00  0.00    +0.000 C 
BRANCH   6  12
ATOM     12  C   UNL     1       0.579   9.085  21.215  0.00  0.00    +0.000 C 
ATOM     13  O   UNL     1      -0.419   8.585  21.720  0.00  0.00    +0.000 OA
BRANCH  12  15
ATOM     14  C   UNL     1       0.113  11.354  21.601  0.00  0.00    +0.000 C 
ATOM     15  O   UNL     1       1.081  10.310  21.552  0.00  0.00    +0.000 OA
ENDBRANCH  12  15
ENDBRANCH   6  12
ENDBRANCH   1   8
BRANCH   4  16
ATOM     16  C   UNL     1       6.826   4.803  17.659  0.00  0.00    +0.000 C 
BRANCH  16  17
ATOM     17  N   UNL     1       6.868   5.043  16.215  0.00  0.00    +0.000 N 
ATOM     18  C   UNL     1       6.404   4.147  15.274  0.00  0.00    +0.000 C 
ATOM     19  O   UNL     1       5.938   3.045  15.536  0.00  0.00    +0.000 OA
ATOM     20  H   UNL     1       7.224   5.933  15.896  0.00  0.00    +0.000 HD
BRANCH  18  21
ATOM     21  C   UNL     1       6.532   4.631  13.836  0.00  0.00    +0.000 C 
BRANCH  21  22
ATOM     22  C   UNL     1       5.354   4.178  13.016  0.00  0.00    +0.000 C 
ATOM     23  C   UNL     1       5.379   3.257  12.034  0.00  0.00    +0.000 C 
ATOM     24  C   UNL     1       6.614   2.541  11.559  0.00  0.00    +0.000 C 
ATOM     25  C   UNL     1       4.124   2.891  11.281  0.00  0.00    +0.000 C 
ENDBRANCH  21  22
ENDBRANCH  18  21
ENDBRANCH  16  17
BRANCH  16  26
ATOM     26  C   UNL     1       7.830   5.684  18.457  0.00  0.00    +0.000 C 
ATOM     27  C   UNL     1       7.771   7.161  18.036  0.00  0.00    +0.000 C 
ATOM     28  C   UNL     1       7.569   5.602  19.966  0.00  0.00    +0.000 C 
ENDBRANCH  16  26
ENDBRANCH   4  16
TORSDOF 8
ENDMDL
MODEL 6
REMARK VINA RESULT:      -7.4      2.093      9.451
REMARK  Name = 
REMARK  14 active torsions:
REMARK  status: ('A' for Active; 'I' for Inactive)
REMARK    1  A    between atoms: C_1  and  O_2
REMARK    2  A    between atoms: O_2  and  C_3
REMARK    3  A    between atoms: C_3  and  C_5
REMARK    4  A    between atoms: C_7  and  C_8
REMARK    5  A    between atoms: C_11  and  C_12
REMARK    6  A    between atoms: C_12  and  N_13
REMARK    7  A    between atoms: C_12  and  C_21
REMARK    8  A    between atoms: C_14  and  C_16
REMARK    9  A    between atoms: C_16  and  C_17
REMARK   10  A    between atoms: C_18  and  C_19
REMARK   11  A    between atoms: C_18  and  C_20
REMARK   12  A    between atoms: C_21  and  C_22
REMARK   13  A    between atoms: C_21  and  C_23
REMARK   14  A    between atoms: C_26  and  C_27
REMARK                            x       y       z     vdW  Elec       q    Type
REMARK                         _______ _______ _______ _____ _____    ______ ____
ROOT
ATOM      1  C   UNL     1       5.840   4.974  16.640  0.00  0.00    +0.000 A 
ATOM      2  C   UNL     1       6.729   4.768  17.674  0.00  0.00    +0.000 A 
ATOM      3  S   UNL     1       5.984   5.167  19.169  0.00  0.00    +0.000 S 
ATOM      4  C   UNL     1       4.528   5.553  18.327  0.00  0.00    +0.000 A 
ATOM      5  N   UNL     1       4.601   5.442  17.017  0.00  0.00    +0.000 NA
ENDROOT
BRANCH   1   8
ATOM      6  C   UNL     1       6.045   3.880  13.220  0.00  0.00    +0.000 A 
ATOM      7  N   UNL     1       5.504   3.775  14.492  0.00  0.00    +0.000 NA
ATOM      8  C   UNL     1       6.155   4.672  15.210  0.00  0.00    +0.000 A 
ATOM      9  O   UNL     1       7.123   5.341  14.498  0.00  0.00    +0.000 OA
ATOM     10  C   UNL     1       7.060   4.814  13.239  0.00  0.00    +0.000 A 
ATOM     11  C   UNL     1       8.015   5.340  12.247  0.00  0.00    +0.000 C 
BRANCH   6  12
ATOM     12  C   UNL     1       5.582   3.126  12.066  0.00  0.00    +0.000 C 
ATOM     13  O   UNL     1       4.686   3.505  11.321  0.00  0.00    +0.000 OA
BRANCH  12  15
ATOM     14  C   UNL     1       7.318   1.957  11.000  0.00  0.00    +0.000 C 
ATOM     15  O   UNL     1       6.242   1.937  11.933  0.00  0.00    +0.000 OA
ENDBRANCH  12  15
ENDBRANCH   6  12
ENDBRANCH   1   8
BRANCH   4  16
ATOM     16  C   UNL     1       3.267   5.919  19.085  0.00  0.00    +0.000 C 
BRANCH  16  17
ATOM     17  N   UNL     1       2.553   6.986  18.379  0.00  0.00    +0.000 N 
ATOM     18  C   UNL     1       1.980   8.072  19.007  0.00  0.00    +0.000 C 
ATOM     19  O   UNL     1       1.974   8.249  20.219  0.00  0.00    +0.000 OA
ATOM     20  H   UNL     1       2.514   6.937  17.370  0.00  0.00    +0.000 HD
BRANCH  18  21
ATOM     21  C   UNL     1       1.315   9.060  18.059  0.00  0.00    +0.000 C 
BRANCH  21  22
ATOM     22  C   UNL     1       0.475  10.048  18.823  0.00  0.00    +0.000 C 
ATOM     23  C   UNL     1      -0.785  10.417  18.524  0.00  0.00    +0.000 C 
ATOM     24  C   UNL     1      -1.564   9.923  17.336  0.00  0.00    +0.000 C 
ATOM     25  C   UNL     1      -1.521  11.423  19.373  0.00  0.00    +0.000 C 
ENDBRANCH  21  22
ENDBRANCH  18  21
ENDBRANCH  16  17
BRANCH  16  26
ATOM     26  C   UNL     1       2.375   4.681  19.389  0.00  0.00    +0.000 C 
ATOM     27  C   UNL     1       1.493   4.888  20.630  0.00  0.00    +0.000 C 
ATOM     28  C   UNL     1       1.466   4.343  18.201  0.00  0.00    +0.000 C 
ENDBRANCH  16  26
ENDBRANCH   4  16
TORSDOF 8
ENDMDL
MODEL 7
REMARK VINA RESULT:      -7.3      2.108      9.491
REMARK  Name = 
REMARK  14 active torsions:
REMARK  status: ('A' for Active; 'I' for Inactive)
REMARK    1  A    between atoms: C_1  and  O_2
REMARK    2  A    between atoms: O_2  and  C_3
REMARK    3  A    between atoms: C_3  and  C_5
REMARK    4  A    between atoms: C_7  and  C_8
REMARK    5  A    between atoms: C_11  and  C_12
REMARK    6  A    between atoms: C_12  and  N_13
REMARK    7  A    between atoms: C_12  and  C_21
REMARK    8  A    between atoms: C_14  and  C_16
REMARK    9  A    between atoms: C_16  and  C_17
REMARK   10  A    between atoms: C_18  and  C_19
REMARK   11  A    between atoms: C_18  and  C_20
REMARK   12  A    between atoms: C_21  and  C_22
REMARK   13  A    between atoms: C_21  and  C_23
REMARK   14  A    between atoms: C_26  and  C_27
REMARK                            x       y       z     vdW  Elec       q    Type
REMARK                         _______ _______ _______ _____ _____    ______ ____
ROOT
ATOM      1  C   UNL     1       5.818   5.002  16.828  0.00  0.00    +0.000 A 
ATOM      2  C   UNL     1       6.562   4.622  17.925  0.00  0.00    +0.000 A 
ATOM      3  S   UNL     1       5.722   5.030  19.366  0.00  0.00    +0.000 S 
ATOM      4  C   UNL     1       4.421   5.652  18.418  0.00  0.00    +0.000 A 
ATOM      5  N   UNL     1       4.614   5.607  17.117  0.00  0.00    +0.000 NA
ENDROOT
BRANCH   1   8
ATOM      6  C   UNL     1       6.286   4.000  13.406  0.00  0.00    +0.000 A 
ATOM      7  N   UNL     1       5.659   3.852  14.634  0.00  0.00    +0.000 NA
ATOM      8  C   UNL     1       6.239   4.743  15.417  0.00  0.00    +0.000 A 
ATOM      9  O   UNL     1       7.239   5.450  14.792  0.00  0.00    +0.000 OA
ATOM     10  C   UNL     1       7.276   4.954  13.519  0.00  0.00    +0.000 A 
ATOM     11  C   UNL     1       8.287   5.525  12.609  0.00  0.00    +0.000 C 
BRANCH   6  12
ATOM     12  C   UNL     1       5.921   3.267  12.204  0.00  0.00    +0.000 C 
ATOM     13  O   UNL     1       4.796   3.269  11.721  0.00  0.00    +0.000 OA
BRANCH  12  15
ATOM     14  C   UNL     1       6.615   1.323  11.082  0.00  0.00    +0.000 C 
ATOM     15  O   UNL     1       6.974   2.555  11.700  0.00  0.00    +0.000 OA
ENDBRANCH  12  15
ENDBRANCH   6  12
ENDBRANCH   1   8
BRANCH   4  16
ATOM     16  C   UNL     1       3.144   6.137  19.077  0.00  0.00    +0.000 C 
BRANCH  16  17
ATOM     17  N   UNL     1       2.589   7.261  18.320  0.00  0.00    +0.000 N 
ATOM     18  C   UNL     1       1.907   8.313  18.896  0.00  0.00    +0.000 C 
ATOM     19  O   UNL     1       1.660   8.407  20.092  0.00  0.00    +0.000 OA
ATOM     20  H   UNL     1       2.752   7.283  17.322  0.00  0.00    +0.000 HD
BRANCH  18  21
ATOM     21  C   UNL     1       1.449   9.375  17.907  0.00  0.00    +0.000 C 
BRANCH  21  22
ATOM     22  C   UNL     1       0.480  10.325  18.558  0.00  0.00    +0.000 C 
ATOM     23  C   UNL     1       0.709  11.622  18.841  0.00  0.00    +0.000 C 
ATOM     24  C   UNL     1       2.006  12.340  18.583  0.00  0.00    +0.000 C 
ATOM     25  C   UNL     1      -0.348  12.471  19.500  0.00  0.00    +0.000 C 
ENDBRANCH  21  22
ENDBRANCH  18  21
ENDBRANCH  16  17
BRANCH  16  26
ATOM     26  C   UNL     1       2.120   4.988  19.307  0.00  0.00    +0.000 C 
ATOM     27  C   UNL     1       2.226   3.889  18.238  0.00  0.00    +0.000 C 
ATOM     28  C   UNL     1       2.308   4.340  20.684  0.00  0.00    +0.000 C 
ENDBRANCH  16  26
ENDBRANCH   4  16
TORSDOF 8
ENDMDL
MODEL 8
REMARK VINA RESULT:      -7.3      1.531      2.211
REMARK  Name = 
REMARK  14 active torsions:
REMARK  status: ('A' for Active; 'I' for Inactive)
REMARK    1  A    between atoms: C_1  and  O_2
REMARK    2  A    between atoms: O_2  and  C_3
REMARK    3  A    between atoms: C_3  and  C_5
REMARK    4  A    between atoms: C_7  and  C_8
REMARK    5  A    between atoms: C_11  and  C_12
REMARK    6  A    between atoms: C_12  and  N_13
REMARK    7  A    between atoms: C_12  and  C_21
REMARK    8  A    between atoms: C_14  and  C_16
REMARK    9  A    between atoms: C_16  and  C_17
REMARK   10  A    between atoms: C_18  and  C_19
REMARK   11  A    between atoms: C_18  and  C_20
REMARK   12  A    between atoms: C_21  and  C_22
REMARK   13  A    between atoms: C_21  and  C_23
REMARK   14  A    between atoms: C_26  and  C_27
REMARK                            x       y       z     vdW  Elec       q    Type
REMARK                         _______ _______ _______ _____ _____    ______ ____
ROOT
ATOM      1  C   UNL     1       2.851   6.593  18.664  0.00  0.00    +0.000 A 
ATOM      2  C   UNL     1       2.300   5.337  18.520  0.00  0.00    +0.000 A 
ATOM      3  S   UNL     1       3.499   4.237  17.973  0.00  0.00    +0.000 S 
ATOM      4  C   UNL     1       4.664   5.510  18.000  0.00  0.00    +0.000 A 
ATOM      5  N   UNL     1       4.187   6.688  18.344  0.00  0.00    +0.000 NA
ENDROOT
BRANCH   1   8
ATOM      6  C   UNL     1       1.039   9.642  19.265  0.00  0.00    +0.000 A 
ATOM      7  N   UNL     1       1.835   8.849  18.453  0.00  0.00    +0.000 NA
ATOM      8  C   UNL     1       2.088   7.774  19.176  0.00  0.00    +0.000 A 
ATOM      9  O   UNL     1       1.538   7.821  20.435  0.00  0.00    +0.000 OA
ATOM     10  C   UNL     1       0.891   9.023  20.490  0.00  0.00    +0.000 A 
ATOM     11  C   UNL     1       0.212   9.359  21.755  0.00  0.00    +0.000 C 
BRANCH   6  12
ATOM     12  C   UNL     1       0.453  10.908  18.857  0.00  0.00    +0.000 C 
ATOM     13  O   UNL     1      -0.730  11.050  18.574  0.00  0.00    +0.000 OA
BRANCH  12  15
ATOM     14  C   UNL     1       1.535  12.649  20.004  0.00  0.00    +0.000 C 
ATOM     15  O   UNL     1       1.384  11.907  18.797  0.00  0.00    +0.000 OA
ENDBRANCH  12  15
ENDBRANCH   6  12
ENDBRANCH   1   8
BRANCH   4  16
ATOM     16  C   UNL     1       6.126   5.231  17.710  0.00  0.00    +0.000 C 
BRANCH  16  17
ATOM     17  N   UNL     1       6.370   5.302  16.267  0.00  0.00    +0.000 N 
ATOM     18  C   UNL     1       6.264   4.220  15.417  0.00  0.00    +0.000 C 
ATOM     19  O   UNL     1       5.990   3.081  15.774  0.00  0.00    +0.000 OA
ATOM     20  H   UNL     1       6.590   6.205  15.872  0.00  0.00    +0.000 HD
BRANCH  18  21
ATOM     21  C   UNL     1       6.540   4.547  13.956  0.00  0.00    +0.000 C 
BRANCH  21  22
ATOM     22  C   UNL     1       5.383   4.131  13.090  0.00  0.00    +0.000 C 
ATOM     23  C   UNL     1       5.436   3.272  12.054  0.00  0.00    +0.000 C 
ATOM     24  C   UNL     1       6.688   2.602  11.558  0.00  0.00    +0.000 C 
ATOM     25  C   UNL     1       4.198   2.937  11.259  0.00  0.00    +0.000 C 
ENDBRANCH  21  22
ENDBRANCH  18  21
ENDBRANCH  16  17
BRANCH  16  26
ATOM     26  C   UNL     1       7.081   6.138  18.538  0.00  0.00    +0.000 C 
ATOM     27  C   UNL     1       8.204   5.337  19.216  0.00  0.00    +0.000 C 
ATOM     28  C   UNL     1       7.721   7.222  17.662  0.00  0.00    +0.000 C 
ENDBRANCH  16  26
ENDBRANCH   4  16
TORSDOF 8
ENDMDL
MODEL 9
REMARK VINA RESULT:      -7.3      1.874      2.618
REMARK  Name = 
REMARK  14 active torsions:
REMARK  status: ('A' for Active; 'I' for Inactive)
REMARK    1  A    between atoms: C_1  and  O_2
REMARK    2  A    between atoms: O_2  and  C_3
REMARK    3  A    between atoms: C_3  and  C_5
REMARK    4  A    between atoms: C_7  and  C_8
REMARK    5  A    between atoms: C_11  and  C_12
REMARK    6  A    between atoms: C_12  and  N_13
REMARK    7  A    between atoms: C_12  and  C_21
REMARK    8  A    between atoms: C_14  and  C_16
REMARK    9  A    between atoms: C_16  and  C_17
REMARK   10  A    between atoms: C_18  and  C_19
REMARK   11  A    between atoms: C_18  and  C_20
REMARK   12  A    between atoms: C_21  and  C_22
REMARK   13  A    between atoms: C_21  and  C_23
REMARK   14  A    between atoms: C_26  and  C_27
REMARK                            x       y       z     vdW  Elec       q    Type
REMARK                         _______ _______ _______ _____ _____    ______ ____
ROOT
ATOM      1  C   UNL     1       3.159   6.083  18.306  0.00  0.00    +0.000 A 
ATOM      2  C   UNL     1       2.523   4.900  17.996  0.00  0.00    +0.000 A 
ATOM      3  S   UNL     1       3.667   3.764  17.405  0.00  0.00    +0.000 S 
ATOM      4  C   UNL     1       4.923   4.925  17.638  0.00  0.00    +0.000 A 
ATOM      5  N   UNL     1       4.517   6.097  18.078  0.00  0.00    +0.000 NA
ENDROOT
BRANCH   1   8
ATOM      6  C   UNL     1       1.375   9.106  19.093  0.00  0.00    +0.000 A 
ATOM      7  N   UNL     1       2.041   8.297  18.185  0.00  0.00    +0.000 NA
ATOM      8  C   UNL     1       2.458   7.266  18.896  0.00  0.00    +0.000 A 
ATOM      9  O   UNL     1       2.140   7.359  20.230  0.00  0.00    +0.000 OA
ATOM     10  C   UNL     1       1.470   8.543  20.350  0.00  0.00    +0.000 A 
ATOM     11  C   UNL     1       1.016   8.921  21.701  0.00  0.00    +0.000 C 
BRANCH   6  12
ATOM     12  C   UNL     1       0.679  10.334  18.743  0.00  0.00    +0.000 C 
ATOM     13  O   UNL     1      -0.370  10.365  18.111  0.00  0.00    +0.000 OA
BRANCH  12  15
ATOM     14  C   UNL     1       2.263  11.991  18.228  0.00  0.00    +0.000 C 
ATOM     15  O   UNL     1       1.351  11.442  19.175  0.00  0.00    +0.000 OA
ENDBRANCH  12  15
ENDBRANCH   6  12
ENDBRANCH   1   8
BRANCH   4  16
ATOM     16  C   UNL     1       6.375   4.553  17.407  0.00  0.00    +0.000 C 
BRANCH  16  17
ATOM     17  N   UNL     1       6.536   3.983  16.067  0.00  0.00    +0.000 N 
ATOM     18  C   UNL     1       6.198   4.645  14.905  0.00  0.00    +0.000 C 
ATOM     19  O   UNL     1       5.698   5.762  14.864  0.00  0.00    +0.000 OA
ATOM     20  H   UNL     1       6.955   3.066  15.994  0.00  0.00    +0.000 HD
BRANCH  18  21
ATOM     21  C   UNL     1       6.481   3.857  13.634  0.00  0.00    +0.000 C 
BRANCH  21  22
ATOM     22  C   UNL     1       5.303   3.914  12.700  0.00  0.00    +0.000 C 
ATOM     23  C   UNL     1       5.006   3.015  11.741  0.00  0.00    +0.000 C 
ATOM     24  C   UNL     1       5.836   1.803  11.415  0.00  0.00    +0.000 C 
ATOM     25  C   UNL     1       3.791   3.188  10.864  0.00  0.00    +0.000 C 
ENDBRANCH  21  22
ENDBRANCH  18  21
ENDBRANCH  16  17
BRANCH  16  26
ATOM     26  C   UNL     1       7.344   5.738  17.689  0.00  0.00    +0.000 C 
ATOM     27  C   UNL     1       6.722   7.098  17.336  0.00  0.00    +0.000 C 
ATOM     28  C   UNL     1       7.771   5.770  19.162  0.00  0.00    +0.000 C 
ENDBRANCH  16  26
ENDBRANCH   4  16
TORSDOF 8
ENDMDL
