MODEL 1
REMARK VINA RESULT:      -7.2      0.000      0.000
REMARK  Name = 
REMARK  5 active torsions:
REMARK  status: ('A' for Active; 'I' for Inactive)
REMARK    1  A    between atoms: C_2  and  C_3
REMARK    2  A    between atoms: C_8  and  C_9
REMARK    3  A    between atoms: N_12  and  C_13
REMARK    4  A    between atoms: C_13  and  C_14
REMARK    5  A    between atoms: C_14  and  N_15
REMARK                            x       y       z     vdW  Elec       q    Type
REMARK                         _______ _______ _______ _____ _____    ______ ____
ROOT
ATOM      1  C   UNL     1       6.275   5.371  15.133  0.00  0.00    +0.000 A 
ATOM      2  C   UNL     1       5.549   6.556  15.431  0.00  0.00    +0.000 A 
ATOM      3  C   UNL     1       5.936   6.917  16.696  0.00  0.00    +0.000 A 
ATOM      4  N   UNL     1       6.845   5.979  17.092  0.00  0.00    +0.000 N 
ATOM      5  N   UNL     1       7.059   5.032  16.167  0.00  0.00    +0.000 NA
ENDROOT
BRANCH   1  11
ATOM      6  C   UNL     1       7.246   4.692  12.910  0.00  0.00    +0.000 A 
ATOM      7  C   UNL     1       7.160   3.917  11.740  0.00  0.00    +0.000 A 
ATOM      8  C   UNL     1       6.082   3.057  11.533  0.00  0.00    +0.000 A 
ATOM      9  C   UNL     1       5.086   2.954  12.498  0.00  0.00    +0.000 A 
ATOM     10  C   UNL     1       5.169   3.708  13.670  0.00  0.00    +0.000 A 
ATOM     11  C   UNL     1       6.245   4.590  13.893  0.00  0.00    +0.000 A 
BRANCH   6  13
ATOM     12  N   UNL     1       9.337   6.208  13.219  0.00  0.00    +0.000 NA
ATOM     13  C   UNL     1       8.387   5.551  13.058  0.00  0.00    +0.000 C 
ENDBRANCH   6  13
ENDBRANCH   1  11
BRANCH   4  14
ATOM     14  C   UNL     1       7.509   5.944  18.379  0.00  0.00    +0.000 C 
BRANCH  14  15
ATOM     15  C   UNL     1       6.756   5.213  19.492  0.00  0.00    +0.000 C 
BRANCH  15  16
ATOM     16  N   UNL     1       5.652   4.401  18.978  0.00  0.00    +0.000 N 
ATOM     17  C   UNL     1       4.354   4.821  19.110  0.00  0.00    +0.000 C 
ATOM     18  O   UNL     1       4.071   5.882  19.661  0.00  0.00    +0.000 OA
ATOM     19  N   UNL     1       3.405   3.993  18.543  0.00  0.00    +0.000 N 
ATOM     20  C   UNL     1       2.018   4.454  18.489  0.00  0.00    +0.000 C 
ATOM     21  C   UNL     1       1.113   3.593  19.367  0.00  0.00    +0.000 C 
ATOM     22  C   UNL     1       1.268   2.112  19.027  0.00  0.00    +0.000 C 
ATOM     23  C   UNL     1       2.735   1.689  19.078  0.00  0.00    +0.000 C 
ATOM     24  C   UNL     1       3.608   2.586  18.201  0.00  0.00    +0.000 C 
ATOM     25  H   UNL     1       5.846   3.874  18.139  0.00  0.00    +0.000 HD
ENDBRANCH  15  16
ENDBRANCH  14  15
ENDBRANCH   4  14
TORSDOF 5
ENDMDL
MODEL 2
REMARK VINA RESULT:      -7.1      3.963      5.873
REMARK  Name = 
REMARK  5 active torsions:
REMARK  status: ('A' for Active; 'I' for Inactive)
REMARK    1  A    between atoms: C_2  and  C_3
REMARK    2  A    between atoms: C_8  and  C_9
REMARK    3  A    between atoms: N_12  and  C_13
REMARK    4  A    between atoms: C_13  and  C_14
REMARK    5  A    between atoms: C_14  and  N_15
REMARK                            x       y       z     vdW  Elec       q    Type
REMARK                         _______ _______ _______ _____ _____    ______ ____
ROOT
ATOM      1  C   UNL     1       4.263   4.012  18.357  0.00  0.00    +0.000 A 
ATOM      2  C   UNL     1       4.149   2.836  19.147  0.00  0.00    +0.000 A 
ATOM      3  C   UNL     1       3.092   3.059  19.991  0.00  0.00    +0.000 A 
ATOM      4  N   UNL     1       2.626   4.306  19.687  0.00  0.00    +0.000 N 
ATOM      5  N   UNL     1       3.322   4.902  18.709  0.00  0.00    +0.000 NA
ENDROOT
BRANCH   1  11
ATOM      6  C   UNL     1       6.491   4.838  17.521  0.00  0.00    +0.000 A 
ATOM      7  C   UNL     1       7.365   5.073  16.445  0.00  0.00    +0.000 A 
ATOM      8  C   UNL     1       6.983   4.774  15.137  0.00  0.00    +0.000 A 
ATOM      9  C   UNL     1       5.728   4.227  14.893  0.00  0.00    +0.000 A 
ATOM     10  C   UNL     1       4.858   3.976  15.955  0.00  0.00    +0.000 A 
ATOM     11  C   UNL     1       5.221   4.280  17.282  0.00  0.00    +0.000 A 
BRANCH   6  13
ATOM     12  N   UNL     1       7.328   5.488  19.896  0.00  0.00    +0.000 NA
ATOM     13  C   UNL     1       6.954   5.164  18.840  0.00  0.00    +0.000 C 
ENDBRANCH   6  13
ENDBRANCH   1  11
BRANCH   4  14
ATOM     14  C   UNL     1       1.522   4.973  20.346  0.00  0.00    +0.000 C 
BRANCH  14  15
ATOM     15  C   UNL     1       1.874   6.274  21.071  0.00  0.00    +0.000 C 
BRANCH  15  16
ATOM     16  N   UNL     1       1.634   7.456  20.243  0.00  0.00    +0.000 N 
ATOM     17  C   UNL     1       1.205   8.630  20.807  0.00  0.00    +0.000 C 
ATOM     18  O   UNL     1       1.004   8.731  22.014  0.00  0.00    +0.000 OA
ATOM     19  N   UNL     1       1.061   9.687  19.931  0.00  0.00    +0.000 N 
ATOM     20  C   UNL     1       0.774  11.013  20.477  0.00  0.00    +0.000 C 
ATOM     21  C   UNL     1      -0.615  11.496  20.063  0.00  0.00    +0.000 C 
ATOM     22  C   UNL     1      -0.792  11.420  18.548  0.00  0.00    +0.000 C 
ATOM     23  C   UNL     1      -0.460  10.021  18.028  0.00  0.00    +0.000 C 
ATOM     24  C   UNL     1       0.928   9.570  18.479  0.00  0.00    +0.000 C 
ATOM     25  H   UNL     1       2.240   7.565  19.444  0.00  0.00    +0.000 HD
ENDBRANCH  15  16
ENDBRANCH  14  15
ENDBRANCH   4  14
TORSDOF 5
ENDMDL
MODEL 3
REMARK VINA RESULT:      -6.9      4.913      8.360
REMARK  Name = 
REMARK  5 active torsions:
REMARK  status: ('A' for Active; 'I' for Inactive)
REMARK    1  A    between atoms: C_2  and  C_3
REMARK    2  A    between atoms: C_8  and  C_9
REMARK    3  A    between atoms: N_12  and  C_13
REMARK    4  A    between atoms: C_13  and  C_14
REMARK    5  A    between atoms: C_14  and  N_15
REMARK                            x       y       z     vdW  Elec       q    Type
REMARK                         _______ _______ _______ _____ _____    ______ ____
ROOT
ATOM      1  C   UNL     1       5.807   5.765  18.277  0.00  0.00    +0.000 A 
ATOM      2  C   UNL     1       6.880   5.362  19.118  0.00  0.00    +0.000 A 
ATOM      3  C   UNL     1       7.884   6.270  18.894  0.00  0.00    +0.000 A 
ATOM      4  N   UNL     1       7.396   7.149  17.972  0.00  0.00    +0.000 N 
ATOM      5  N   UNL     1       6.147   6.860  17.580  0.00  0.00    +0.000 NA
ENDROOT
BRANCH   1  11
ATOM      6  C   UNL     1       4.165   4.244  17.121  0.00  0.00    +0.000 A 
ATOM      7  C   UNL     1       2.877   3.685  17.056  0.00  0.00    +0.000 A 
ATOM      8  C   UNL     1       1.904   4.024  17.995  0.00  0.00    +0.000 A 
ATOM      9  C   UNL     1       2.211   4.918  19.015  0.00  0.00    +0.000 A 
ATOM     10  C   UNL     1       3.491   5.469  19.098  0.00  0.00    +0.000 A 
ATOM     11  C   UNL     1       4.485   5.145  18.153  0.00  0.00    +0.000 A 
BRANCH   6  13
ATOM     12  N   UNL     1       5.910   3.473  15.353  0.00  0.00    +0.000 NA
ATOM     13  C   UNL     1       5.118   3.844  16.125  0.00  0.00    +0.000 C 
ENDBRANCH   6  13
ENDBRANCH   1  11
BRANCH   4  14
ATOM     14  C   UNL     1       8.123   8.271  17.416  0.00  0.00    +0.000 C 
BRANCH  14  15
ATOM     15  C   UNL     1       8.071   9.563  18.234  0.00  0.00    +0.000 C 
BRANCH  15  16
ATOM     16  N   UNL     1       9.270  10.383  18.056  0.00  0.00    +0.000 N 
ATOM     17  C   UNL     1       9.840  11.030  19.123  0.00  0.00    +0.000 C 
ATOM     18  O   UNL     1       9.368  10.950  20.254  0.00  0.00    +0.000 OA
ATOM     19  N   UNL     1      10.994  11.733  18.839  0.00  0.00    +0.000 N 
ATOM     20  C   UNL     1      11.754  12.306  19.949  0.00  0.00    +0.000 C 
ATOM     21  C   UNL     1      11.743  13.832  19.900  0.00  0.00    +0.000 C 
ATOM     22  C   UNL     1      12.201  14.340  18.534  0.00  0.00    +0.000 C 
ATOM     23  C   UNL     1      11.389  13.695  17.411  0.00  0.00    +0.000 C 
ATOM     24  C   UNL     1      11.411  12.170  17.507  0.00  0.00    +0.000 C 
ATOM     25  H   UNL     1       9.923  10.065  17.355  0.00  0.00    +0.000 HD
ENDBRANCH  15  16
ENDBRANCH  14  15
ENDBRANCH   4  14
TORSDOF 5
ENDMDL
MODEL 4
REMARK VINA RESULT:      -6.9      0.938      1.356
REMARK  Name = 
REMARK  5 active torsions:
REMARK  status: ('A' for Active; 'I' for Inactive)
REMARK    1  A    between atoms: C_2  and  C_3
REMARK    2  A    between atoms: C_8  and  C_9
REMARK    3  A    between atoms: N_12  and  C_13
REMARK    4  A    between atoms: C_13  and  C_14
REMARK    5  A    between atoms: C_14  and  N_15
REMARK                            x       y       z     vdW  Elec       q    Type
REMARK                         _______ _______ _______ _____ _____    ______ ____
ROOT
ATOM      1  C   UNL     1       6.122   5.332  15.104  0.00  0.00    +0.000 A 
ATOM      2  C   UNL     1       5.222   6.378  15.444  0.00  0.00    +0.000 A 
ATOM      3  C   UNL     1       5.617   6.816  16.682  0.00  0.00    +0.000 A 
ATOM      4  N   UNL     1       6.696   6.053  17.024  0.00  0.00    +0.000 N 
ATOM      5  N   UNL     1       7.014   5.146  16.089  0.00  0.00    +0.000 NA
ENDROOT
BRANCH   1  11
ATOM      6  C   UNL     1       7.206   4.632  12.941  0.00  0.00    +0.000 A 
ATOM      7  C   UNL     1       7.176   3.849  11.773  0.00  0.00    +0.000 A 
ATOM      8  C   UNL     1       6.105   2.994  11.515  0.00  0.00    +0.000 A 
ATOM      9  C   UNL     1       5.058   2.904  12.426  0.00  0.00    +0.000 A 
ATOM     10  C   UNL     1       5.084   3.666  13.595  0.00  0.00    +0.000 A 
ATOM     11  C   UNL     1       6.153   4.543  13.870  0.00  0.00    +0.000 A 
BRANCH   6  13
ATOM     12  N   UNL     1       9.242   6.216  13.268  0.00  0.00    +0.000 NA
ATOM     13  C   UNL     1       8.343   5.484  13.143  0.00  0.00    +0.000 C 
ENDBRANCH   6  13
ENDBRANCH   1  11
BRANCH   4  14
ATOM     14  C   UNL     1       7.432   6.149  18.267  0.00  0.00    +0.000 C 
BRANCH  14  15
ATOM     15  C   UNL     1       6.868   5.336  19.434  0.00  0.00    +0.000 C 
BRANCH  15  16
ATOM     16  N   UNL     1       5.407   5.260  19.406  0.00  0.00    +0.000 N 
ATOM     17  C   UNL     1       4.766   4.059  19.562  0.00  0.00    +0.000 C 
ATOM     18  O   UNL     1       5.386   3.011  19.725  0.00  0.00    +0.000 OA
ATOM     19  N   UNL     1       3.386   4.123  19.566  0.00  0.00    +0.000 N 
ATOM     20  C   UNL     1       2.631   2.915  19.897  0.00  0.00    +0.000 C 
ATOM     21  C   UNL     1       1.827   2.415  18.699  0.00  0.00    +0.000 C 
ATOM     22  C   UNL     1       0.954   3.529  18.124  0.00  0.00    +0.000 C 
ATOM     23  C   UNL     1       1.788   4.773  17.814  0.00  0.00    +0.000 C 
ATOM     24  C   UNL     1       2.590   5.227  19.033  0.00  0.00    +0.000 C 
ATOM     25  H   UNL     1       4.917   6.057  19.786  0.00  0.00    +0.000 HD
ENDBRANCH  15  16
ENDBRANCH  14  15
ENDBRANCH   4  14
TORSDOF 5
ENDMDL
MODEL 5
REMARK VINA RESULT:      -6.8      6.300      8.322
REMARK  Name = 
REMARK  5 active torsions:
REMARK  status: ('A' for Active; 'I' for Inactive)
REMARK    1  A    between atoms: C_2  and  C_3
REMARK    2  A    between atoms: C_8  and  C_9
REMARK    3  A    between atoms: N_12  and  C_13
REMARK    4  A    between atoms: C_13  and  C_14
REMARK    5  A    between atoms: C_14  and  N_15
REMARK                            x       y       z     vdW  Elec       q    Type
REMARK                         _______ _______ _______ _____ _____    ______ ____
ROOT
ATOM      1  C   UNL     1       2.364   5.934  19.101  0.00  0.00    +0.000 A 
ATOM      2  C   UNL     1       2.480   7.005  18.174  0.00  0.00    +0.000 A 
ATOM      3  C   UNL     1       2.163   8.139  18.878  0.00  0.00    +0.000 A 
ATOM      4  N   UNL     1       1.885   7.725  20.149  0.00  0.00    +0.000 N 
ATOM      5  N   UNL     1       1.994   6.397  20.304  0.00  0.00    +0.000 NA
ENDROOT
BRANCH   1  11
ATOM      6  C   UNL     1       3.911   3.955  18.910  0.00  0.00    +0.000 A 
ATOM      7  C   UNL     1       4.090   2.582  18.669  0.00  0.00    +0.000 A 
ATOM      8  C   UNL     1       3.003   1.763  18.367  0.00  0.00    +0.000 A 
ATOM      9  C   UNL     1       1.723   2.306  18.312  0.00  0.00    +0.000 A 
ATOM     10  C   UNL     1       1.532   3.666  18.563  0.00  0.00    +0.000 A 
ATOM     11  C   UNL     1       2.619   4.511  18.862  0.00  0.00    +0.000 A 
BRANCH   6  13
ATOM     12  N   UNL     1       5.990   5.392  19.525  0.00  0.00    +0.000 NA
ATOM     13  C   UNL     1       5.075   4.735  19.223  0.00  0.00    +0.000 C 
ENDBRANCH   6  13
ENDBRANCH   1  11
BRANCH   4  14
ATOM     14  C   UNL     1       1.478   8.584  21.241  0.00  0.00    +0.000 C 
BRANCH  14  15
ATOM     15  C   UNL     1      -0.027   8.644  21.510  0.00  0.00    +0.000 C 
BRANCH  15  16
ATOM     16  N   UNL     1      -0.575   9.986  21.309  0.00  0.00    +0.000 N 
ATOM     17  C   UNL     1      -0.696  10.857  22.361  0.00  0.00    +0.000 C 
ATOM     18  O   UNL     1      -0.356  10.546  23.500  0.00  0.00    +0.000 OA
ATOM     19  N   UNL     1      -1.181  12.109  22.038  0.00  0.00    +0.000 N 
ATOM     20  C   UNL     1      -1.179  13.147  23.069  0.00  0.00    +0.000 C 
ATOM     21  C   UNL     1      -2.599  13.553  23.453  0.00  0.00    +0.000 C 
ATOM     22  C   UNL     1      -3.412  13.935  22.218  0.00  0.00    +0.000 C 
ATOM     23  C   UNL     1      -3.365  12.827  21.167  0.00  0.00    +0.000 C 
ATOM     24  C   UNL     1      -1.927  12.439  20.825  0.00  0.00    +0.000 C 
ATOM     25  H   UNL     1      -0.369  10.419  20.421  0.00  0.00    +0.000 HD
ENDBRANCH  15  16
ENDBRANCH  14  15
ENDBRANCH   4  14
TORSDOF 5
ENDMDL
MODEL 6
REMARK VINA RESULT:      -6.8      4.470      8.513
REMARK  Name = 
REMARK  5 active torsions:
REMARK  status: ('A' for Active; 'I' for Inactive)
REMARK    1  A    between atoms: C_2  and  C_3
REMARK    2  A    between atoms: C_8  and  C_9
REMARK    3  A    between atoms: N_12  and  C_13
REMARK    4  A    between atoms: C_13  and  C_14
REMARK    5  A    between atoms: C_14  and  N_15
REMARK                            x       y       z     vdW  Elec       q    Type
REMARK                         _______ _______ _______ _____ _____    ______ ____
ROOT
ATOM      1  C   UNL     1       4.768   5.506  18.607  0.00  0.00    +0.000 A 
ATOM      2  C   UNL     1       4.605   5.975  17.275  0.00  0.00    +0.000 A 
ATOM      3  C   UNL     1       5.763   6.647  16.977  0.00  0.00    +0.000 A 
ATOM      4  N   UNL     1       6.547   6.556  18.090  0.00  0.00    +0.000 N 
ATOM      5  N   UNL     1       5.964   5.877  19.089  0.00  0.00    +0.000 NA
ENDROOT
BRANCH   1  11
ATOM      6  C   UNL     1       2.688   5.262  20.007  0.00  0.00    +0.000 A 
ATOM      7  C   UNL     1       1.825   4.441  20.753  0.00  0.00    +0.000 A 
ATOM      8  C   UNL     1       2.092   3.082  20.911  0.00  0.00    +0.000 A 
ATOM      9  C   UNL     1       3.219   2.526  20.315  0.00  0.00    +0.000 A 
ATOM     10  C   UNL     1       4.075   3.328  19.559  0.00  0.00    +0.000 A 
ATOM     11  C   UNL     1       3.827   4.706  19.396  0.00  0.00    +0.000 A 
BRANCH   6  13
ATOM     12  N   UNL     1       2.019   7.768  19.815  0.00  0.00    +0.000 NA
ATOM     13  C   UNL     1       2.346   6.650  19.882  0.00  0.00    +0.000 C 
ENDBRANCH   6  13
ENDBRANCH   1  11
BRANCH   4  14
ATOM     14  C   UNL     1       7.862   7.143  18.241  0.00  0.00    +0.000 C 
BRANCH  14  15
ATOM     15  C   UNL     1       8.041   8.532  17.624  0.00  0.00    +0.000 C 
BRANCH  15  16
ATOM     16  N   UNL     1       8.723   9.458  18.528  0.00  0.00    +0.000 N 
ATOM     17  C   UNL     1       8.663  10.812  18.319  0.00  0.00    +0.000 C 
ATOM     18  O   UNL     1       8.044  11.293  17.373  0.00  0.00    +0.000 OA
ATOM     19  N   UNL     1       9.305  11.585  19.266  0.00  0.00    +0.000 N 
ATOM     20  C   UNL     1       9.143  13.037  19.210  0.00  0.00    +0.000 C 
ATOM     21  C   UNL     1      10.462  13.732  18.881  0.00  0.00    +0.000 C 
ATOM     22  C   UNL     1      11.567  13.288  19.837  0.00  0.00    +0.000 C 
ATOM     23  C   UNL     1      11.681  11.765  19.873  0.00  0.00    +0.000 C 
ATOM     24  C   UNL     1      10.337  11.109  20.187  0.00  0.00    +0.000 C 
ATOM     25  H   UNL     1       8.764   9.180  19.498  0.00  0.00    +0.000 HD
ENDBRANCH  15  16
ENDBRANCH  14  15
ENDBRANCH   4  14
TORSDOF 5
ENDMDL
MODEL 7
REMARK VINA RESULT:      -6.7      4.005      5.830
REMARK  Name = 
REMARK  5 active torsions:
REMARK  status: ('A' for Active; 'I' for Inactive)
REMARK    1  A    between atoms: C_2  and  C_3
REMARK    2  A    between atoms: C_8  and  C_9
REMARK    3  A    between atoms: N_12  and  C_13
REMARK    4  A    between atoms: C_13  and  C_14
REMARK    5  A    between atoms: C_14  and  N_15
REMARK                            x       y       z     vdW  Elec       q    Type
REMARK                         _______ _______ _______ _____ _____    ______ ____
ROOT
ATOM      1  C   UNL     1       3.820   3.880  17.477  0.00  0.00    +0.000 A 
ATOM      2  C   UNL     1       2.977   2.741  17.369  0.00  0.00    +0.000 A 
ATOM      3  C   UNL     1       2.035   2.885  18.356  0.00  0.00    +0.000 A 
ATOM      4  N   UNL     1       2.331   4.057  18.989  0.00  0.00    +0.000 N 
ATOM      5  N   UNL     1       3.409   4.671  18.479  0.00  0.00    +0.000 NA
ENDROOT
BRANCH   1  11
ATOM      6  C   UNL     1       6.166   4.744  17.170  0.00  0.00    +0.000 A 
ATOM      7  C   UNL     1       7.235   5.057  16.312  0.00  0.00    +0.000 A 
ATOM      8  C   UNL     1       7.121   4.872  14.935  0.00  0.00    +0.000 A 
ATOM      9  C   UNL     1       5.942   4.363  14.401  0.00  0.00    +0.000 A 
ATOM     10  C   UNL     1       4.879   4.036  15.245  0.00  0.00    +0.000 A 
ATOM     11  C   UNL     1       4.971   4.224  16.639  0.00  0.00    +0.000 A 
BRANCH   6  13
ATOM     12  N   UNL     1       6.569   5.144  19.708  0.00  0.00    +0.000 NA
ATOM     13  C   UNL     1       6.357   4.954  18.577  0.00  0.00    +0.000 C 
ENDBRANCH   6  13
ENDBRANCH   1  11
BRANCH   4  14
ATOM     14  C   UNL     1       1.610   4.606  20.118  0.00  0.00    +0.000 C 
BRANCH  14  15
ATOM     15  C   UNL     1       2.232   5.849  20.759  0.00  0.00    +0.000 C 
BRANCH  15  16
ATOM     16  N   UNL     1       1.226   6.838  21.148  0.00  0.00    +0.000 N 
ATOM     17  C   UNL     1       1.199   8.077  20.562  0.00  0.00    +0.000 C 
ATOM     18  O   UNL     1       2.012   8.402  19.701  0.00  0.00    +0.000 OA
ATOM     19  N   UNL     1       0.174   8.905  20.976  0.00  0.00    +0.000 N 
ATOM     20  C   UNL     1      -0.026  10.174  20.278  0.00  0.00    +0.000 C 
ATOM     21  C   UNL     1       0.257  11.363  21.193  0.00  0.00    +0.000 C 
ATOM     22  C   UNL     1      -0.544  11.258  22.490  0.00  0.00    +0.000 C 
ATOM     23  C   UNL     1      -0.315   9.907  23.167  0.00  0.00    +0.000 C 
ATOM     24  C   UNL     1      -0.591   8.747  22.212  0.00  0.00    +0.000 C 
ATOM     25  H   UNL     1       0.321   6.470  21.404  0.00  0.00    +0.000 HD
ENDBRANCH  15  16
ENDBRANCH  14  15
ENDBRANCH   4  14
TORSDOF 5
ENDMDL
MODEL 8
REMARK VINA RESULT:      -6.7      5.221      8.404
REMARK  Name = 
REMARK  5 active torsions:
REMARK  status: ('A' for Active; 'I' for Inactive)
REMARK    1  A    between atoms: C_2  and  C_3
REMARK    2  A    between atoms: C_8  and  C_9
REMARK    3  A    between atoms: N_12  and  C_13
REMARK    4  A    between atoms: C_13  and  C_14
REMARK    5  A    between atoms: C_14  and  N_15
REMARK                            x       y       z     vdW  Elec       q    Type
REMARK                         _______ _______ _______ _____ _____    ______ ____
ROOT
ATOM      1  C   UNL     1       5.880   5.998  18.119  0.00  0.00    +0.000 A 
ATOM      2  C   UNL     1       7.027   5.553  18.829  0.00  0.00    +0.000 A 
ATOM      3  C   UNL     1       7.957   6.552  18.690  0.00  0.00    +0.000 A 
ATOM      4  N   UNL     1       7.358   7.520  17.938  0.00  0.00    +0.000 N 
ATOM      5  N   UNL     1       6.106   7.204  17.576  0.00  0.00    +0.000 NA
ENDROOT
BRANCH   1  11
ATOM      6  C   UNL     1       4.348   4.366  16.963  0.00  0.00    +0.000 A 
ATOM      7  C   UNL     1       3.090   3.744  16.878  0.00  0.00    +0.000 A 
ATOM      8  C   UNL     1       2.073   4.064  17.777  0.00  0.00    +0.000 A 
ATOM      9  C   UNL     1       2.306   5.001  18.777  0.00  0.00    +0.000 A 
ATOM     10  C   UNL     1       3.556   5.615  18.880  0.00  0.00    +0.000 A 
ATOM     11  C   UNL     1       4.593   5.312  17.976  0.00  0.00    +0.000 A 
BRANCH   6  13
ATOM     12  N   UNL     1       6.131   3.617  15.225  0.00  0.00    +0.000 NA
ATOM     13  C   UNL     1       5.348   3.982  16.008  0.00  0.00    +0.000 C 
ENDBRANCH   6  13
ENDBRANCH   1  11
BRANCH   4  14
ATOM     14  C   UNL     1       7.978   8.760  17.518  0.00  0.00    +0.000 C 
BRANCH  14  15
ATOM     15  C   UNL     1       8.746   9.516  18.604  0.00  0.00    +0.000 C 
BRANCH  15  16
ATOM     16  N   UNL     1       8.891  10.939  18.295  0.00  0.00    +0.000 N 
ATOM     17  C   UNL     1      10.017  11.625  18.669  0.00  0.00    +0.000 C 
ATOM     18  O   UNL     1      10.935  11.079  19.275  0.00  0.00    +0.000 OA
ATOM     19  N   UNL     1      10.059  12.949  18.279  0.00  0.00    +0.000 N 
ATOM     20  C   UNL     1      11.295  13.702  18.489  0.00  0.00    +0.000 C 
ATOM     21  C   UNL     1      11.099  14.819  19.511  0.00  0.00    +0.000 C 
ATOM     22  C   UNL     1       9.914  15.706  19.132  0.00  0.00    +0.000 C 
ATOM     23  C   UNL     1       8.656  14.869  18.905  0.00  0.00    +0.000 C 
ATOM     24  C   UNL     1       8.900  13.752  17.891  0.00  0.00    +0.000 C 
ATOM     25  H   UNL     1       8.474  11.247  17.429  0.00  0.00    +0.000 HD
ENDBRANCH  15  16
ENDBRANCH  14  15
ENDBRANCH   4  14
TORSDOF 5
ENDMDL
MODEL 9
REMARK VINA RESULT:      -6.7      4.688      8.110
REMARK  Name = 
REMARK  5 active torsions:
REMARK  status: ('A' for Active; 'I' for Inactive)
REMARK    1  A    between atoms: C_2  and  C_3
REMARK    2  A    between atoms: C_8  and  C_9
REMARK    3  A    between atoms: N_12  and  C_13
REMARK    4  A    between atoms: C_13  and  C_14
REMARK    5  A    between atoms: C_14  and  N_15
REMARK                            x       y       z     vdW  Elec       q    Type
REMARK                         _______ _______ _______ _____ _____    ______ ____
ROOT
ATOM      1  C   UNL     1       5.493   5.402  18.201  0.00  0.00    +0.000 A 
ATOM      2  C   UNL     1       6.495   5.119  19.168  0.00  0.00    +0.000 A 
ATOM      3  C   UNL     1       7.482   6.050  18.958  0.00  0.00    +0.000 A 
ATOM      4  N   UNL     1       7.051   6.826  17.921  0.00  0.00    +0.000 N 
ATOM      5  N   UNL     1       5.856   6.448  17.444  0.00  0.00    +0.000 NA
ENDROOT
BRANCH   1  11
ATOM      6  C   UNL     1       2.982   5.396  17.997  0.00  0.00    +0.000 A 
ATOM      7  C   UNL     1       1.787   4.678  17.813  0.00  0.00    +0.000 A 
ATOM      8  C   UNL     1       1.804   3.292  17.660  0.00  0.00    +0.000 A 
ATOM      9  C   UNL     1       3.016   2.610  17.678  0.00  0.00    +0.000 A 
ATOM     10  C   UNL     1       4.210   3.315  17.846  0.00  0.00    +0.000 A 
ATOM     11  C   UNL     1       4.213   4.714  18.012  0.00  0.00    +0.000 A 
BRANCH   6  13
ATOM     12  N   UNL     1       2.829   7.972  18.317  0.00  0.00    +0.000 NA
ATOM     13  C   UNL     1       2.888   6.821  18.141  0.00  0.00    +0.000 C 
ENDBRANCH   6  13
ENDBRANCH   1  11
BRANCH   4  14
ATOM     14  C   UNL     1       7.784   7.930  17.338  0.00  0.00    +0.000 C 
BRANCH  14  15
ATOM     15  C   UNL     1       8.380   8.927  18.334  0.00  0.00    +0.000 C 
BRANCH  15  16
ATOM     16  N   UNL     1       8.286  10.309  17.861  0.00  0.00    +0.000 N 
ATOM     17  C   UNL     1       9.224  11.239  18.228  0.00  0.00    +0.000 C 
ATOM     18  O   UNL     1      10.166  10.953  18.962  0.00  0.00    +0.000 OA
ATOM     19  N   UNL     1       9.055  12.496  17.680  0.00  0.00    +0.000 N 
ATOM     20  C   UNL     1      10.104  13.494  17.883  0.00  0.00    +0.000 C 
ATOM     21  C   UNL     1       9.607  14.656  18.740  0.00  0.00    +0.000 C 
ATOM     22  C   UNL     1       8.320  15.246  18.169  0.00  0.00    +0.000 C 
ATOM     23  C   UNL     1       7.266  14.159  17.957  0.00  0.00    +0.000 C 
ATOM     24  C   UNL     1       7.809  13.009  17.111  0.00  0.00    +0.000 C 
ATOM     25  H   UNL     1       7.903  10.434  16.935  0.00  0.00    +0.000 HD
ENDBRANCH  15  16
ENDBRANCH  14  15
ENDBRANCH   4  14
TORSDOF 5
ENDMDL
