MODEL 1
REMARK VINA RESULT:      -8.2      0.000      0.000
REMARK  Name = 
REMARK  5 active torsions:
REMARK  status: ('A' for Active; 'I' for Inactive)
REMARK    1  A    between atoms: C_2  and  C_3
REMARK    2  A    between atoms: C_7  and  C_8
REMARK    3  A    between atoms: C_12  and  C_13
REMARK    4  A    between atoms: N_15  and  C_16
REMARK    5  A    between atoms: N_19  and  C_20
REMARK                            x       y       z     vdW  Elec       q    Type
REMARK                         _______ _______ _______ _____ _____    ______ ____
ROOT
ATOM      1  C   UNL     1       2.436   7.159  18.833  0.00  0.00    +0.000 A 
ATOM      2  C   UNL     1       2.106   7.074  20.257  0.00  0.00    +0.000 A 
ATOM      3  C   UNL     1       1.490   8.102  20.868  0.00  0.00    +0.000 A 
ATOM      4  N   UNL     1       1.173   9.254  20.140  0.00  0.00    +0.000 N 
ATOM      5  C   UNL     1       0.544  10.438  20.511  0.00  0.00    +0.000 A 
ATOM      6  C   UNL     1       0.541  11.191  19.347  0.00  0.00    +0.000 A 
ATOM      7  N   UNL     1       1.119  10.535  18.298  0.00  0.00    +0.000 NA
ATOM      8  C   UNL     1       1.490   9.376  18.785  0.00  0.00    +0.000 A 
ATOM      9  C   UNL     1       2.134   8.280  18.141  0.00  0.00    +0.000 A 
ENDROOT
BRANCH   1  14
ATOM     10  C   UNL     1       4.900   5.182  16.765  0.00  0.00    +0.000 A 
ATOM     11  C   UNL     1       4.242   3.953  16.651  0.00  0.00    +0.000 A 
ATOM     12  C   UNL     1       2.999   3.767  17.258  0.00  0.00    +0.000 A 
ATOM     13  C   UNL     1       2.410   4.809  17.980  0.00  0.00    +0.000 A 
ATOM     14  C   UNL     1       3.063   6.042  18.104  0.00  0.00    +0.000 A 
ATOM     15  C   UNL     1       4.313   6.221  17.497  0.00  0.00    +0.000 A 
BRANCH  10  17
ATOM     16  N   UNL     1       7.191   5.542  15.601  0.00  0.00    +0.000 NA
ATOM     17  C   UNL     1       6.164   5.385  16.117  0.00  0.00    +0.000 C 
ENDBRANCH  10  17
ENDBRANCH   1  14
BRANCH   5  18
ATOM     18  C   UNL     1       0.033  10.774  21.827  0.00  0.00    +0.000 C 
ATOM     19  O   UNL     1       0.374  10.206  22.859  0.00  0.00    +0.000 OA
ATOM     20  N   UNL     1      -0.878  11.814  21.846  0.00  0.00    +0.000 N 
ATOM     21  H   UNL     1      -1.168  12.227  20.974  0.00  0.00    +0.000 HD
BRANCH  20  22
ATOM     22  C   UNL     1      -1.474  12.383  23.045  0.00  0.00    +0.000 C 
ATOM     23  C   UNL     1      -2.993  12.233  23.149  0.00  0.00    +0.000 C 
ATOM     24  C   UNL     1      -3.483  13.485  23.877  0.00  0.00    +0.000 C 
ATOM     25  N   UNL     1      -2.258  14.212  24.296  0.00  0.00    +0.000 N 
ATOM     26  C   UNL     1      -1.209  13.868  23.305  0.00  0.00    +0.000 C 
BRANCH  25  27
ATOM     27  C   UNL     1      -2.247  15.297  25.079  0.00  0.00    +0.000 C 
ATOM     28  N   UNL     1      -2.230  16.245  25.741  0.00  0.00    +0.000 NA
ENDBRANCH  25  27
ENDBRANCH  20  22
ENDBRANCH   5  18
TORSDOF 5
ENDMDL
MODEL 2
REMARK VINA RESULT:      -8.0      2.395      2.615
REMARK  Name = 
REMARK  5 active torsions:
REMARK  status: ('A' for Active; 'I' for Inactive)
REMARK    1  A    between atoms: C_2  and  C_3
REMARK    2  A    between atoms: C_7  and  C_8
REMARK    3  A    between atoms: C_12  and  C_13
REMARK    4  A    between atoms: N_15  and  C_16
REMARK    5  A    between atoms: N_19  and  C_20
REMARK                            x       y       z     vdW  Elec       q    Type
REMARK                         _______ _______ _______ _____ _____    ______ ____
ROOT
ATOM      1  C   UNL     1       2.171   6.339  19.206  0.00  0.00    +0.000 A 
ATOM      2  C   UNL     1       1.752   6.798  20.531  0.00  0.00    +0.000 A 
ATOM      3  C   UNL     1       1.444   8.093  20.728  0.00  0.00    +0.000 A 
ATOM      4  N   UNL     1       1.531   8.997  19.665  0.00  0.00    +0.000 N 
ATOM      5  C   UNL     1       1.271  10.363  19.588  0.00  0.00    +0.000 A 
ATOM      6  C   UNL     1       1.561  10.682  18.270  0.00  0.00    +0.000 A 
ATOM      7  N   UNL     1       1.970   9.599  17.547  0.00  0.00    +0.000 NA
ATOM      8  C   UNL     1       1.945   8.596  18.392  0.00  0.00    +0.000 A 
ATOM      9  C   UNL     1       2.262   7.222  18.187  0.00  0.00    +0.000 A 
ENDROOT
BRANCH   1  14
ATOM     10  C   UNL     1       3.633   2.870  19.505  0.00  0.00    +0.000 A 
ATOM     11  C   UNL     1       3.108   2.249  18.368  0.00  0.00    +0.000 A 
ATOM     12  C   UNL     1       2.268   2.960  17.509  0.00  0.00    +0.000 A 
ATOM     13  C   UNL     1       1.951   4.293  17.785  0.00  0.00    +0.000 A 
ATOM     14  C   UNL     1       2.469   4.923  18.923  0.00  0.00    +0.000 A 
ATOM     15  C   UNL     1       3.308   4.203  19.785  0.00  0.00    +0.000 A 
BRANCH  10  17
ATOM     16  N   UNL     1       5.234   1.560  21.072  0.00  0.00    +0.000 NA
ATOM     17  C   UNL     1       4.521   2.151  20.373  0.00  0.00    +0.000 C 
ENDBRANCH  10  17
ENDBRANCH   1  14
BRANCH   5  18
ATOM     18  C   UNL     1       0.814  11.220  20.664  0.00  0.00    +0.000 C 
ATOM     19  O   UNL     1       1.562  11.877  21.382  0.00  0.00    +0.000 OA
ATOM     20  N   UNL     1      -0.559  11.264  20.828  0.00  0.00    +0.000 N 
ATOM     21  H   UNL     1      -1.139  10.677  20.250  0.00  0.00    +0.000 HD
BRANCH  20  22
ATOM     22  C   UNL     1      -1.262  12.102  21.786  0.00  0.00    +0.000 C 
ATOM     23  C   UNL     1      -1.696  11.396  23.072  0.00  0.00    +0.000 C 
ATOM     24  C   UNL     1      -3.010  12.061  23.485  0.00  0.00    +0.000 C 
ATOM     25  N   UNL     1      -3.199  13.196  22.545  0.00  0.00    +0.000 N 
ATOM     26  C   UNL     1      -2.524  12.809  21.283  0.00  0.00    +0.000 C 
BRANCH  25  27
ATOM     27  C   UNL     1      -4.167  14.115  22.648  0.00  0.00    +0.000 C 
ATOM     28  N   UNL     1      -5.006  14.906  22.717  0.00  0.00    +0.000 NA
ENDBRANCH  25  27
ENDBRANCH  20  22
ENDBRANCH   5  18
TORSDOF 5
ENDMDL
MODEL 3
REMARK VINA RESULT:      -7.8      2.588      3.365
REMARK  Name = 
REMARK  5 active torsions:
REMARK  status: ('A' for Active; 'I' for Inactive)
REMARK    1  A    between atoms: C_2  and  C_3
REMARK    2  A    between atoms: C_7  and  C_8
REMARK    3  A    between atoms: C_12  and  C_13
REMARK    4  A    between atoms: N_15  and  C_16
REMARK    5  A    between atoms: N_19  and  C_20
REMARK                            x       y       z     vdW  Elec       q    Type
REMARK                         _______ _______ _______ _____ _____    ______ ____
ROOT
ATOM      1  C   UNL     1       2.520   7.257  18.452  0.00  0.00    +0.000 A 
ATOM      2  C   UNL     1       2.161   8.436  17.663  0.00  0.00    +0.000 A 
ATOM      3  C   UNL     1       1.543   9.477  18.251  0.00  0.00    +0.000 A 
ATOM      4  N   UNL     1       1.241   9.424  19.616  0.00  0.00    +0.000 N 
ATOM      5  C   UNL     1       0.627  10.342  20.463  0.00  0.00    +0.000 A 
ATOM      6  C   UNL     1       0.605   9.698  21.690  0.00  0.00    +0.000 A 
ATOM      7  N   UNL     1       1.174   8.458  21.641  0.00  0.00    +0.000 NA
ATOM      8  C   UNL     1       1.554   8.307  20.394  0.00  0.00    +0.000 A 
ATOM      9  C   UNL     1       2.215   7.212  19.768  0.00  0.00    +0.000 A 
ENDROOT
BRANCH   1  14
ATOM     10  C   UNL     1       5.185   5.236  16.700  0.00  0.00    +0.000 A 
ATOM     11  C   UNL     1       4.606   3.963  16.691  0.00  0.00    +0.000 A 
ATOM     12  C   UNL     1       3.350   3.763  17.266  0.00  0.00    +0.000 A 
ATOM     13  C   UNL     1       2.670   4.834  17.851  0.00  0.00    +0.000 A 
ATOM     14  C   UNL     1       3.243   6.112  17.869  0.00  0.00    +0.000 A 
ATOM     15  C   UNL     1       4.506   6.306  17.295  0.00  0.00    +0.000 A 
BRANCH  10  17
ATOM     16  N   UNL     1       7.498   5.612  15.586  0.00  0.00    +0.000 NA
ATOM     17  C   UNL     1       6.462   5.450  16.084  0.00  0.00    +0.000 C 
ENDBRANCH  10  17
ENDBRANCH   1  14
BRANCH   5  18
ATOM     18  C   UNL     1       0.127  11.655  20.103  0.00  0.00    +0.000 C 
ATOM     19  O   UNL     1      -0.893  11.844  19.448  0.00  0.00    +0.000 OA
ATOM     20  N   UNL     1       0.887  12.713  20.569  0.00  0.00    +0.000 N 
ATOM     21  H   UNL     1       1.742  12.519  21.065  0.00  0.00    +0.000 HD
BRANCH  20  22
ATOM     22  C   UNL     1       0.556  14.119  20.404  0.00  0.00    +0.000 C 
ATOM     23  C   UNL     1      -0.686  14.588  21.165  0.00  0.00    +0.000 C 
ATOM     24  C   UNL     1      -1.321  15.671  20.293  0.00  0.00    +0.000 C 
ATOM     25  N   UNL     1      -0.371  15.895  19.174  0.00  0.00    +0.000 N 
ATOM     26  C   UNL     1       0.344  14.611  18.970  0.00  0.00    +0.000 C 
BRANCH  25  27
ATOM     27  C   UNL     1      -0.491  16.861  18.255  0.00  0.00    +0.000 C 
ATOM     28  N   UNL     1      -0.597  17.681  17.448  0.00  0.00    +0.000 NA
ENDBRANCH  25  27
ENDBRANCH  20  22
ENDBRANCH   5  18
TORSDOF 5
ENDMDL
MODEL 4
REMARK VINA RESULT:      -7.8      1.292      1.735
REMARK  Name = 
REMARK  5 active torsions:
REMARK  status: ('A' for Active; 'I' for Inactive)
REMARK    1  A    between atoms: C_2  and  C_3
REMARK    2  A    between atoms: C_7  and  C_8
REMARK    3  A    between atoms: C_12  and  C_13
REMARK    4  A    between atoms: N_15  and  C_16
REMARK    5  A    between atoms: N_19  and  C_20
REMARK                            x       y       z     vdW  Elec       q    Type
REMARK                         _______ _______ _______ _____ _____    ______ ____
ROOT
ATOM      1  C   UNL     1       2.546   7.304  18.678  0.00  0.00    +0.000 A 
ATOM      2  C   UNL     1       2.178   7.173  20.088  0.00  0.00    +0.000 A 
ATOM      3  C   UNL     1       1.428   8.122  20.679  0.00  0.00    +0.000 A 
ATOM      4  N   UNL     1       1.008   9.234  19.941  0.00  0.00    +0.000 N 
ATOM      5  C   UNL     1       0.235  10.338  20.291  0.00  0.00    +0.000 A 
ATOM      6  C   UNL     1       0.188  11.091  19.128  0.00  0.00    +0.000 A 
ATOM      7  N   UNL     1       0.873  10.511  18.099  0.00  0.00    +0.000 NA
ATOM      8  C   UNL     1       1.356   9.398  18.598  0.00  0.00    +0.000 A 
ATOM      9  C   UNL     1       2.143   8.387  17.976  0.00  0.00    +0.000 A 
ENDROOT
BRANCH   1  14
ATOM     10  C   UNL     1       3.871   3.925  17.635  0.00  0.00    +0.000 A 
ATOM     11  C   UNL     1       4.833   4.286  16.686  0.00  0.00    +0.000 A 
ATOM     12  C   UNL     1       5.041   5.632  16.379  0.00  0.00    +0.000 A 
ATOM     13  C   UNL     1       4.289   6.620  17.021  0.00  0.00    +0.000 A 
ATOM     14  C   UNL     1       3.321   6.268  17.969  0.00  0.00    +0.000 A 
ATOM     15  C   UNL     1       3.112   4.916  18.269  0.00  0.00    +0.000 A 
BRANCH  10  17
ATOM     16  N   UNL     1       3.528   1.429  18.254  0.00  0.00    +0.000 NA
ATOM     17  C   UNL     1       3.677   2.545  17.973  0.00  0.00    +0.000 C 
ENDBRANCH  10  17
ENDBRANCH   1  14
BRANCH   5  18
ATOM     18  C   UNL     1      -0.357  10.606  21.587  0.00  0.00    +0.000 C 
ATOM     19  O   UNL     1      -0.494   9.761  22.466  0.00  0.00    +0.000 OA
ATOM     20  N   UNL     1      -0.756  11.916  21.782  0.00  0.00    +0.000 N 
ATOM     21  H   UNL     1      -0.668  12.572  21.022  0.00  0.00    +0.000 HD
BRANCH  20  22
ATOM     22  C   UNL     1      -1.306  12.449  23.018  0.00  0.00    +0.000 C 
ATOM     23  C   UNL     1      -2.811  12.245  23.200  0.00  0.00    +0.000 C 
ATOM     24  C   UNL     1      -3.304  13.470  23.972  0.00  0.00    +0.000 C 
ATOM     25  N   UNL     1      -2.083  14.234  24.335  0.00  0.00    +0.000 N 
ATOM     26  C   UNL     1      -1.078  13.939  23.285  0.00  0.00    +0.000 C 
BRANCH  25  27
ATOM     27  C   UNL     1      -2.068  15.310  25.132  0.00  0.00    +0.000 C 
ATOM     28  N   UNL     1      -2.045  16.248  25.805  0.00  0.00    +0.000 NA
ENDBRANCH  25  27
ENDBRANCH  20  22
ENDBRANCH   5  18
TORSDOF 5
ENDMDL
MODEL 5
REMARK VINA RESULT:      -7.8      2.989      3.781
REMARK  Name = 
REMARK  5 active torsions:
REMARK  status: ('A' for Active; 'I' for Inactive)
REMARK    1  A    between atoms: C_2  and  C_3
REMARK    2  A    between atoms: C_7  and  C_8
REMARK    3  A    between atoms: C_12  and  C_13
REMARK    4  A    between atoms: N_15  and  C_16
REMARK    5  A    between atoms: N_19  and  C_20
REMARK                            x       y       z     vdW  Elec       q    Type
REMARK                         _______ _______ _______ _____ _____    ______ ____
ROOT
ATOM      1  C   UNL     1       2.422   7.087  18.580  0.00  0.00    +0.000 A 
ATOM      2  C   UNL     1       2.187   8.242  17.714  0.00  0.00    +0.000 A 
ATOM      3  C   UNL     1       1.656   9.369  18.224  0.00  0.00    +0.000 A 
ATOM      4  N   UNL     1       1.326   9.428  19.583  0.00  0.00    +0.000 N 
ATOM      5  C   UNL     1       0.783  10.448  20.358  0.00  0.00    +0.000 A 
ATOM      6  C   UNL     1       0.681   9.884  21.621  0.00  0.00    +0.000 A 
ATOM      7  N   UNL     1       1.135   8.597  21.659  0.00  0.00    +0.000 NA
ATOM      8  C   UNL     1       1.522   8.337  20.433  0.00  0.00    +0.000 A 
ATOM      9  C   UNL     1       2.091   7.150  19.889  0.00  0.00    +0.000 A 
ENDROOT
BRANCH   1  14
ATOM     10  C   UNL     1       5.028   4.659  17.324  0.00  0.00    +0.000 A 
ATOM     11  C   UNL     1       4.249   3.524  17.072  0.00  0.00    +0.000 A 
ATOM     12  C   UNL     1       2.877   3.549  17.323  0.00  0.00    +0.000 A 
ATOM     13  C   UNL     1       2.278   4.707  17.825  0.00  0.00    +0.000 A 
ATOM     14  C   UNL     1       3.049   5.847  18.084  0.00  0.00    +0.000 A 
ATOM     15  C   UNL     1       4.427   5.816  17.835  0.00  0.00    +0.000 A 
BRANCH  10  17
ATOM     16  N   UNL     1       7.572   4.645  16.813  0.00  0.00    +0.000 NA
ATOM     17  C   UNL     1       6.433   4.646  17.038  0.00  0.00    +0.000 C 
ENDBRANCH  10  17
ENDBRANCH   1  14
BRANCH   5  18
ATOM     18  C   UNL     1       0.411  11.776  19.909  0.00  0.00    +0.000 C 
ATOM     19  O   UNL     1      -0.744  12.183  19.859  0.00  0.00    +0.000 OA
ATOM     20  N   UNL     1       1.473  12.582  19.543  0.00  0.00    +0.000 N 
ATOM     21  H   UNL     1       2.405  12.199  19.554  0.00  0.00    +0.000 HD
BRANCH  20  22
ATOM     22  C   UNL     1       1.366  13.972  19.130  0.00  0.00    +0.000 C 
ATOM     23  C   UNL     1       2.511  14.479  18.251  0.00  0.00    +0.000 C 
ATOM     24  C   UNL     1       2.693  15.952  18.618  0.00  0.00    +0.000 C 
ATOM     25  N   UNL     1       1.582  16.275  19.548  0.00  0.00    +0.000 N 
ATOM     26  C   UNL     1       1.242  15.013  20.247  0.00  0.00    +0.000 C 
BRANCH  25  27
ATOM     27  C   UNL     1       1.302  17.503  20.002  0.00  0.00    +0.000 C 
ATOM     28  N   UNL     1       1.042  18.557  20.398  0.00  0.00    +0.000 NA
ENDBRANCH  25  27
ENDBRANCH  20  22
ENDBRANCH   5  18
TORSDOF 5
ENDMDL
MODEL 6
REMARK VINA RESULT:      -7.7      3.575     10.482
REMARK  Name = 
REMARK  5 active torsions:
REMARK  status: ('A' for Active; 'I' for Inactive)
REMARK    1  A    between atoms: C_2  and  C_3
REMARK    2  A    between atoms: C_7  and  C_8
REMARK    3  A    between atoms: C_12  and  C_13
REMARK    4  A    between atoms: N_15  and  C_16
REMARK    5  A    between atoms: N_19  and  C_20
REMARK                            x       y       z     vdW  Elec       q    Type
REMARK                         _______ _______ _______ _____ _____    ______ ____
ROOT
ATOM      1  C   UNL     1       1.528   7.679  20.328  0.00  0.00    +0.000 A 
ATOM      2  C   UNL     1       2.251   7.591  19.059  0.00  0.00    +0.000 A 
ATOM      3  C   UNL     1       2.809   6.426  18.681  0.00  0.00    +0.000 A 
ATOM      4  N   UNL     1       2.700   5.304  19.508  0.00  0.00    +0.000 N 
ATOM      5  C   UNL     1       3.165   4.000  19.363  0.00  0.00    +0.000 A 
ATOM      6  C   UNL     1       2.749   3.369  20.526  0.00  0.00    +0.000 A 
ATOM      7  N   UNL     1       2.057   4.203  21.356  0.00  0.00    +0.000 NA
ATOM      8  C   UNL     1       2.032   5.357  20.734  0.00  0.00    +0.000 A 
ATOM      9  C   UNL     1       1.437   6.591  21.125  0.00  0.00    +0.000 A 
ENDROOT
BRANCH   1  14
ATOM     10  C   UNL     1      -0.008  11.128  20.244  0.00  0.00    +0.000 A 
ATOM     11  C   UNL     1      -0.361  11.306  21.586  0.00  0.00    +0.000 A 
ATOM     12  C   UNL     1      -0.108  10.296  22.515  0.00  0.00    +0.000 A 
ATOM     13  C   UNL     1       0.500   9.106  22.106  0.00  0.00    +0.000 A 
ATOM     14  C   UNL     1       0.854   8.916  20.765  0.00  0.00    +0.000 A 
ATOM     15  C   UNL     1       0.592   9.931  19.835  0.00  0.00    +0.000 A 
BRANCH  10  17
ATOM     16  N   UNL     1      -0.424  13.031  18.531  0.00  0.00    +0.000 NA
ATOM     17  C   UNL     1      -0.241  12.176  19.293  0.00  0.00    +0.000 C 
ENDBRANCH  10  17
ENDBRANCH   1  14
BRANCH   5  18
ATOM     18  C   UNL     1       3.917   3.466  18.244  0.00  0.00    +0.000 C 
ATOM     19  O   UNL     1       3.621   2.436  17.648  0.00  0.00    +0.000 OA
ATOM     20  N   UNL     1       5.015   4.221  17.872  0.00  0.00    +0.000 N 
ATOM     21  H   UNL     1       5.254   5.037  18.413  0.00  0.00    +0.000 HD
BRANCH  20  22
ATOM     22  C   UNL     1       5.881   3.937  16.739  0.00  0.00    +0.000 C 
ATOM     23  C   UNL     1       7.087   4.867  16.594  0.00  0.00    +0.000 C 
ATOM     24  C   UNL     1       7.330   4.997  15.090  0.00  0.00    +0.000 C 
ATOM     25  N   UNL     1       6.390   4.045  14.447  0.00  0.00    +0.000 N 
ATOM     26  C   UNL     1       5.224   3.931  15.356  0.00  0.00    +0.000 C 
BRANCH  25  27
ATOM     27  C   UNL     1       6.375   3.756  13.139  0.00  0.00    +0.000 C 
ATOM     28  N   UNL     1       6.343   3.510  12.011  0.00  0.00    +0.000 NA
ENDBRANCH  25  27
ENDBRANCH  20  22
ENDBRANCH   5  18
TORSDOF 5
ENDMDL
MODEL 7
REMARK VINA RESULT:      -7.7      2.202      2.814
REMARK  Name = 
REMARK  5 active torsions:
REMARK  status: ('A' for Active; 'I' for Inactive)
REMARK    1  A    between atoms: C_2  and  C_3
REMARK    2  A    between atoms: C_7  and  C_8
REMARK    3  A    between atoms: C_12  and  C_13
REMARK    4  A    between atoms: N_15  and  C_16
REMARK    5  A    between atoms: N_19  and  C_20
REMARK                            x       y       z     vdW  Elec       q    Type
REMARK                         _______ _______ _______ _____ _____    ______ ____
ROOT
ATOM      1  C   UNL     1       2.323   5.872  19.205  0.00  0.00    +0.000 A 
ATOM      2  C   UNL     1       1.782   6.349  20.479  0.00  0.00    +0.000 A 
ATOM      3  C   UNL     1       1.437   7.642  20.621  0.00  0.00    +0.000 A 
ATOM      4  N   UNL     1       1.602   8.527  19.550  0.00  0.00    +0.000 N 
ATOM      5  C   UNL     1       1.327   9.886  19.423  0.00  0.00    +0.000 A 
ATOM      6  C   UNL     1       1.726  10.184  18.129  0.00  0.00    +0.000 A 
ATOM      7  N   UNL     1       2.214   9.095  17.466  0.00  0.00    +0.000 NA
ATOM      8  C   UNL     1       2.132   8.109  18.327  0.00  0.00    +0.000 A 
ATOM      9  C   UNL     1       2.488   6.737  18.180  0.00  0.00    +0.000 A 
ENDROOT
BRANCH   1  14
ATOM     10  C   UNL     1       3.879   2.461  19.657  0.00  0.00    +0.000 A 
ATOM     11  C   UNL     1       3.394   1.785  18.532  0.00  0.00    +0.000 A 
ATOM     12  C   UNL     1       2.551   2.440  17.633  0.00  0.00    +0.000 A 
ATOM     13  C   UNL     1       2.191   3.772  17.854  0.00  0.00    +0.000 A 
ATOM     14  C   UNL     1       2.668   4.456  18.979  0.00  0.00    +0.000 A 
ATOM     15  C   UNL     1       3.509   3.793  19.881  0.00  0.00    +0.000 A 
BRANCH  10  17
ATOM     16  N   UNL     1       5.482   1.257  21.303  0.00  0.00    +0.000 NA
ATOM     17  C   UNL     1       4.769   1.800  20.566  0.00  0.00    +0.000 C 
ENDBRANCH  10  17
ENDBRANCH   1  14
BRANCH   5  18
ATOM     18  C   UNL     1       0.764  10.756  20.437  0.00  0.00    +0.000 C 
ATOM     19  O   UNL     1       1.176  10.819  21.591  0.00  0.00    +0.000 OA
ATOM     20  N   UNL     1      -0.289  11.542  20.007  0.00  0.00    +0.000 N 
ATOM     21  H   UNL     1      -0.629  11.431  19.065  0.00  0.00    +0.000 HD
BRANCH  20  22
ATOM     22  C   UNL     1      -0.970  12.544  20.812  0.00  0.00    +0.000 C 
ATOM     23  C   UNL     1      -0.065  13.627  21.403  0.00  0.00    +0.000 C 
ATOM     24  C   UNL     1      -0.688  13.996  22.750  0.00  0.00    +0.000 C 
ATOM     25  N   UNL     1      -1.973  13.254  22.815  0.00  0.00    +0.000 N 
ATOM     26  C   UNL     1      -1.791  12.031  21.998  0.00  0.00    +0.000 C 
BRANCH  25  27
ATOM     27  C   UNL     1      -2.890  13.405  23.779  0.00  0.00    +0.000 C 
ATOM     28  N   UNL     1      -3.696  13.537  24.597  0.00  0.00    +0.000 NA
ENDBRANCH  25  27
ENDBRANCH  20  22
ENDBRANCH   5  18
TORSDOF 5
ENDMDL
MODEL 8
REMARK VINA RESULT:      -7.6      2.061      2.734
REMARK  Name = 
REMARK  5 active torsions:
REMARK  status: ('A' for Active; 'I' for Inactive)
REMARK    1  A    between atoms: C_2  and  C_3
REMARK    2  A    between atoms: C_7  and  C_8
REMARK    3  A    between atoms: C_12  and  C_13
REMARK    4  A    between atoms: N_15  and  C_16
REMARK    5  A    between atoms: N_19  and  C_20
REMARK                            x       y       z     vdW  Elec       q    Type
REMARK                         _______ _______ _______ _____ _____    ______ ____
ROOT
ATOM      1  C   UNL     1       2.452   7.173  18.531  0.00  0.00    +0.000 A 
ATOM      2  C   UNL     1       2.044   8.351  17.763  0.00  0.00    +0.000 A 
ATOM      3  C   UNL     1       1.396   9.360  18.373  0.00  0.00    +0.000 A 
ATOM      4  N   UNL     1       1.110   9.277  19.739  0.00  0.00    +0.000 N 
ATOM      5  C   UNL     1       0.471  10.160  20.606  0.00  0.00    +0.000 A 
ATOM      6  C   UNL     1       0.485   9.497  21.823  0.00  0.00    +0.000 A 
ATOM      7  N   UNL     1       1.097   8.278  21.750  0.00  0.00    +0.000 NA
ATOM      8  C   UNL     1       1.469   8.160  20.498  0.00  0.00    +0.000 A 
ATOM      9  C   UNL     1       2.162   7.098  19.849  0.00  0.00    +0.000 A 
ENDROOT
BRANCH   1  14
ATOM     10  C   UNL     1       5.171   5.274  16.724  0.00  0.00    +0.000 A 
ATOM     11  C   UNL     1       4.636   3.982  16.700  0.00  0.00    +0.000 A 
ATOM     12  C   UNL     1       3.394   3.729  17.284  0.00  0.00    +0.000 A 
ATOM     13  C   UNL     1       2.682   4.767  17.891  0.00  0.00    +0.000 A 
ATOM     14  C   UNL     1       3.210   6.063  17.924  0.00  0.00    +0.000 A 
ATOM     15  C   UNL     1       4.460   6.311  17.341  0.00  0.00    +0.000 A 
BRANCH  10  17
ATOM     16  N   UNL     1       7.457   5.768  15.601  0.00  0.00    +0.000 NA
ATOM     17  C   UNL     1       6.433   5.543  16.099  0.00  0.00    +0.000 C 
ENDBRANCH  10  17
ENDBRANCH   1  14
BRANCH   5  18
ATOM     18  C   UNL     1      -0.078  11.459  20.271  0.00  0.00    +0.000 C 
ATOM     19  O   UNL     1       0.457  12.252  19.503  0.00  0.00    +0.000 OA
ATOM     20  N   UNL     1      -1.286  11.752  20.878  0.00  0.00    +0.000 N 
ATOM     21  H   UNL     1      -1.673  11.096  21.537  0.00  0.00    +0.000 HD
BRANCH  20  22
ATOM     22  C   UNL     1      -2.070  12.954  20.647  0.00  0.00    +0.000 C 
ATOM     23  C   UNL     1      -1.860  14.074  21.668  0.00  0.00    +0.000 C 
ATOM     24  C   UNL     1      -3.212  14.777  21.794  0.00  0.00    +0.000 C 
ATOM     25  N   UNL     1      -4.082  14.163  20.759  0.00  0.00    +0.000 N 
ATOM     26  C   UNL     1      -3.589  12.779  20.566  0.00  0.00    +0.000 C 
BRANCH  25  27
ATOM     27  C   UNL     1      -5.313  14.590  20.449  0.00  0.00    +0.000 C 
ATOM     28  N   UNL     1      -6.380  14.940  20.176  0.00  0.00    +0.000 NA
ENDBRANCH  25  27
ENDBRANCH  20  22
ENDBRANCH   5  18
TORSDOF 5
ENDMDL
MODEL 9
REMARK VINA RESULT:      -7.6      1.279      1.606
REMARK  Name = 
REMARK  5 active torsions:
REMARK  status: ('A' for Active; 'I' for Inactive)
REMARK    1  A    between atoms: C_2  and  C_3
REMARK    2  A    between atoms: C_7  and  C_8
REMARK    3  A    between atoms: C_12  and  C_13
REMARK    4  A    between atoms: N_15  and  C_16
REMARK    5  A    between atoms: N_19  and  C_20
REMARK                            x       y       z     vdW  Elec       q    Type
REMARK                         _______ _______ _______ _____ _____    ______ ____
ROOT
ATOM      1  C   UNL     1       2.667   7.071  18.584  0.00  0.00    +0.000 A 
ATOM      2  C   UNL     1       2.010   7.137  19.890  0.00  0.00    +0.000 A 
ATOM      3  C   UNL     1       1.442   8.286  20.301  0.00  0.00    +0.000 A 
ATOM      4  N   UNL     1       1.490   9.417  19.478  0.00  0.00    +0.000 N 
ATOM      5  C   UNL     1       0.989  10.705  19.647  0.00  0.00    +0.000 A 
ATOM      6  C   UNL     1       1.375  11.364  18.490  0.00  0.00    +0.000 A 
ATOM      7  N   UNL     1       2.065  10.557  17.632  0.00  0.00    +0.000 NA
ATOM      8  C   UNL     1       2.124   9.393  18.234  0.00  0.00    +0.000 A 
ATOM      9  C   UNL     1       2.716   8.172  17.801  0.00  0.00    +0.000 A 
ENDROOT
BRANCH   1  14
ATOM     10  C   UNL     1       5.196   4.605  17.248  0.00  0.00    +0.000 A 
ATOM     11  C   UNL     1       4.391   3.486  17.008  0.00  0.00    +0.000 A 
ATOM     12  C   UNL     1       3.026   3.534  17.294  0.00  0.00    +0.000 A 
ATOM     13  C   UNL     1       2.461   4.700  17.818  0.00  0.00    +0.000 A 
ATOM     14  C   UNL     1       3.258   5.824  18.064  0.00  0.00    +0.000 A 
ATOM     15  C   UNL     1       4.630   5.769  17.781  0.00  0.00    +0.000 A 
BRANCH  10  17
ATOM     16  N   UNL     1       7.727   4.538  16.679  0.00  0.00    +0.000 NA
ATOM     17  C   UNL     1       6.593   4.569  16.928  0.00  0.00    +0.000 C 
ENDBRANCH  10  17
ENDBRANCH   1  14
BRANCH   5  18
ATOM     18  C   UNL     1       0.250  11.205  20.790  0.00  0.00    +0.000 C 
ATOM     19  O   UNL     1       0.529  10.940  21.955  0.00  0.00    +0.000 OA
ATOM     20  N   UNL     1      -0.810  12.035  20.477  0.00  0.00    +0.000 N 
ATOM     21  H   UNL     1      -1.037  12.194  19.507  0.00  0.00    +0.000 HD
BRANCH  20  22
ATOM     22  C   UNL     1      -1.654  12.719  21.444  0.00  0.00    +0.000 C 
ATOM     23  C   UNL     1      -0.939  13.757  22.310  0.00  0.00    +0.000 C 
ATOM     24  C   UNL     1      -1.640  13.716  23.668  0.00  0.00    +0.000 C 
ATOM     25  N   UNL     1      -2.798  12.802  23.495  0.00  0.00    +0.000 N 
ATOM     26  C   UNL     1      -2.413  11.836  22.439  0.00  0.00    +0.000 C 
BRANCH  25  27
ATOM     27  C   UNL     1      -3.748  12.595  24.416  0.00  0.00    +0.000 C 
ATOM     28  N   UNL     1      -4.571  12.398  25.202  0.00  0.00    +0.000 NA
ENDBRANCH  25  27
ENDBRANCH  20  22
ENDBRANCH   5  18
TORSDOF 5
ENDMDL
