MODEL 1
REMARK VINA RESULT:      -6.3      0.000      0.000
REMARK  Name = 
REMARK  6 active torsions:
REMARK  status: ('A' for Active; 'I' for Inactive)
REMARK    1  A    between atoms: C_1  and  O_2
REMARK    2  A    between atoms: O_2  and  C_3
REMARK    3  A    between atoms: C_3  and  C_5
REMARK    4  A    between atoms: C_5  and  C_6
REMARK    5  A    between atoms: C_10  and  C_12
REMARK    6  A    between atoms: C_18  and  C_19
REMARK                            x       y       z     vdW  Elec       q    Type
REMARK                         _______ _______ _______ _____ _____    ______ ____
ROOT
ATOM      1  C   UNL     1       4.353   5.523  17.490  0.00  0.00    +0.000 A 
ATOM      2  N   UNL     1       3.681   6.723  17.637  0.00  0.00    +0.000 NA
ATOM      3  C   UNL     1       3.004   6.723  18.753  0.00  0.00    +0.000 A 
ATOM      4  N   UNL     1       2.197   7.701  19.256  0.00  0.00    +0.000 N 
ATOM      5  C   UNL     1       1.822   8.798  18.507  0.00  0.00    +0.000 C 
ATOM      6  O   UNL     1       2.154   9.003  17.344  0.00  0.00    +0.000 OA
ATOM      7  S   UNL     1       3.125   5.315  19.706  0.00  0.00    +0.000 S 
ATOM      8  C   UNL     1       4.130   4.606  18.505  0.00  0.00    +0.000 A 
ATOM      9  C   UNL     1       4.650   3.217  18.633  0.00  0.00    +0.000 C 
ATOM     10  H   UNL     1       1.809   7.564  20.176  0.00  0.00    +0.000 HD
ENDROOT
BRANCH   5  11
ATOM     11  C   UNL     1       0.923   9.726  19.196  0.00  0.00    +0.000 A 
ATOM     12  C   UNL     1       0.399  10.897  18.677  0.00  0.00    +0.000 A 
ATOM     13  C   UNL     1      -0.484  11.554  19.582  0.00  0.00    +0.000 A 
ATOM     14  C   UNL     1      -0.594  10.873  20.773  0.00  0.00    +0.000 A 
ATOM     15  S   UNL     1       0.369   9.462  20.798  0.00  0.00    +0.000 S 
ENDBRANCH   5  11
BRANCH   1  16
ATOM     16  C   UNL     1       5.197   5.355  16.272  0.00  0.00    +0.000 C 
BRANCH  16  17
ATOM     17  C   UNL     1       6.652   5.629  16.569  0.00  0.00    +0.000 C 
ATOM     18  O   UNL     1       7.517   4.779  16.751  0.00  0.00    +0.000 OA
BRANCH  17  20
ATOM     19  C   UNL     1       7.633   7.468  17.635  0.00  0.00    +0.000 C 
ATOM     20  O   UNL     1       6.889   6.971  16.520  0.00  0.00    +0.000 OA
ENDBRANCH  17  20
ENDBRANCH  16  17
ENDBRANCH   1  16
TORSDOF 4
ENDMDL
MODEL 2
REMARK VINA RESULT:      -6.3      0.754      1.296
REMARK  Name = 
REMARK  6 active torsions:
REMARK  status: ('A' for Active; 'I' for Inactive)
REMARK    1  A    between atoms: C_1  and  O_2
REMARK    2  A    between atoms: O_2  and  C_3
REMARK    3  A    between atoms: C_3  and  C_5
REMARK    4  A    between atoms: C_5  and  C_6
REMARK    5  A    between atoms: C_10  and  C_12
REMARK    6  A    between atoms: C_18  and  C_19
REMARK                            x       y       z     vdW  Elec       q    Type
REMARK                         _______ _______ _______ _____ _____    ______ ____
ROOT
ATOM      1  C   UNL     1       4.287   6.166  17.395  0.00  0.00    +0.000 A 
ATOM      2  N   UNL     1       3.548   7.316  17.605  0.00  0.00    +0.000 NA
ATOM      3  C   UNL     1       2.817   7.189  18.678  0.00  0.00    +0.000 A 
ATOM      4  N   UNL     1       1.937   8.081  19.215  0.00  0.00    +0.000 N 
ATOM      5  C   UNL     1       1.544   9.220  18.541  0.00  0.00    +0.000 C 
ATOM      6  O   UNL     1       1.925   9.540  17.419  0.00  0.00    +0.000 OA
ATOM      7  S   UNL     1       2.961   5.711  19.516  0.00  0.00    +0.000 S 
ATOM      8  C   UNL     1       4.061   5.155  18.316  0.00  0.00    +0.000 A 
ATOM      9  C   UNL     1       4.644   3.786  18.357  0.00  0.00    +0.000 C 
ATOM     10  H   UNL     1       1.510   7.849  20.098  0.00  0.00    +0.000 HD
ENDROOT
BRANCH   5  11
ATOM     11  C   UNL     1       0.565  10.042  19.255  0.00  0.00    +0.000 A 
ATOM     12  C   UNL     1      -0.484  10.745  18.687  0.00  0.00    +0.000 A 
ATOM     13  C   UNL     1      -1.288  11.410  19.656  0.00  0.00    +0.000 A 
ATOM     14  C   UNL     1      -0.820  11.210  20.934  0.00  0.00    +0.000 A 
ATOM     15  S   UNL     1       0.585  10.237  20.959  0.00  0.00    +0.000 S 
ENDBRANCH   5  11
BRANCH   1  16
ATOM     16  C   UNL     1       5.200   6.143  16.216  0.00  0.00    +0.000 C 
BRANCH  16  17
ATOM     17  C   UNL     1       6.628   6.421  16.619  0.00  0.00    +0.000 C 
ATOM     18  O   UNL     1       7.042   7.469  17.105  0.00  0.00    +0.000 OA
BRANCH  17  20
ATOM     19  C   UNL     1       6.940   4.464  15.373  0.00  0.00    +0.000 C 
ATOM     20  O   UNL     1       7.385   5.301  16.442  0.00  0.00    +0.000 OA
ENDBRANCH  17  20
ENDBRANCH  16  17
ENDBRANCH   1  16
TORSDOF 4
ENDMDL
MODEL 3
REMARK VINA RESULT:      -6.2      0.956      1.200
REMARK  Name = 
REMARK  6 active torsions:
REMARK  status: ('A' for Active; 'I' for Inactive)
REMARK    1  A    between atoms: C_1  and  O_2
REMARK    2  A    between atoms: O_2  and  C_3
REMARK    3  A    between atoms: C_3  and  C_5
REMARK    4  A    between atoms: C_5  and  C_6
REMARK    5  A    between atoms: C_10  and  C_12
REMARK    6  A    between atoms: C_18  and  C_19
REMARK                            x       y       z     vdW  Elec       q    Type
REMARK                         _______ _______ _______ _____ _____    ______ ____
ROOT
ATOM      1  C   UNL     1       4.398   6.084  17.650  0.00  0.00    +0.000 A 
ATOM      2  N   UNL     1       3.657   7.248  17.742  0.00  0.00    +0.000 NA
ATOM      3  C   UNL     1       2.792   7.153  18.713  0.00  0.00    +0.000 A 
ATOM      4  N   UNL     1       1.864   8.069  19.116  0.00  0.00    +0.000 N 
ATOM      5  C   UNL     1       1.580   9.199  18.376  0.00  0.00    +0.000 C 
ATOM      6  O   UNL     1       2.107   9.490  17.306  0.00  0.00    +0.000 OA
ATOM      7  S   UNL     1       2.802   5.691  19.590  0.00  0.00    +0.000 S 
ATOM      8  C   UNL     1       4.039   5.096  18.553  0.00  0.00    +0.000 A 
ATOM      9  C   UNL     1       4.589   3.720  18.694  0.00  0.00    +0.000 C 
ATOM     10  H   UNL     1       1.323   7.860  19.941  0.00  0.00    +0.000 HD
ENDROOT
BRANCH   5  11
ATOM     11  C   UNL     1       0.531  10.048  18.942  0.00  0.00    +0.000 A 
ATOM     12  C   UNL     1      -0.696  10.329  18.365  0.00  0.00    +0.000 A 
ATOM     13  C   UNL     1      -1.516  11.152  19.190  0.00  0.00    +0.000 A 
ATOM     14  C   UNL     1      -0.884  11.490  20.365  0.00  0.00    +0.000 A 
ATOM     15  S   UNL     1       0.688  10.827  20.462  0.00  0.00    +0.000 S 
ENDBRANCH   5  11
BRANCH   1  16
ATOM     16  C   UNL     1       5.455   6.024  16.599  0.00  0.00    +0.000 C 
BRANCH  16  17
ATOM     17  C   UNL     1       6.788   6.493  17.131  0.00  0.00    +0.000 C 
ATOM     18  O   UNL     1       7.232   7.633  17.041  0.00  0.00    +0.000 OA
BRANCH  17  20
ATOM     19  C   UNL     1       7.884   5.855  19.099  0.00  0.00    +0.000 C 
ATOM     20  O   UNL     1       7.398   5.479  17.808  0.00  0.00    +0.000 OA
ENDBRANCH  17  20
ENDBRANCH  16  17
ENDBRANCH   1  16
TORSDOF 4
ENDMDL
MODEL 4
REMARK VINA RESULT:      -6.2      1.745      2.051
REMARK  Name = 
REMARK  6 active torsions:
REMARK  status: ('A' for Active; 'I' for Inactive)
REMARK    1  A    between atoms: C_1  and  O_2
REMARK    2  A    between atoms: O_2  and  C_3
REMARK    3  A    between atoms: C_3  and  C_5
REMARK    4  A    between atoms: C_5  and  C_6
REMARK    5  A    between atoms: C_10  and  C_12
REMARK    6  A    between atoms: C_18  and  C_19
REMARK                            x       y       z     vdW  Elec       q    Type
REMARK                         _______ _______ _______ _____ _____    ______ ____
ROOT
ATOM      1  C   UNL     1       3.562   4.946  18.844  0.00  0.00    +0.000 A 
ATOM      2  N   UNL     1       3.037   6.180  19.184  0.00  0.00    +0.000 NA
ATOM      3  C   UNL     1       2.295   6.072  20.251  0.00  0.00    +0.000 A 
ATOM      4  N   UNL     1       1.587   7.044  20.894  0.00  0.00    +0.000 N 
ATOM      5  C   UNL     1       1.400   8.298  20.347  0.00  0.00    +0.000 C 
ATOM      6  O   UNL     1       1.830   8.661  19.255  0.00  0.00    +0.000 OA
ATOM      7  S   UNL     1       2.178   4.514  20.932  0.00  0.00    +0.000 S 
ATOM      8  C   UNL     1       3.162   3.901  19.661  0.00  0.00    +0.000 A 
ATOM      9  C   UNL     1       3.495   2.455  19.551  0.00  0.00    +0.000 C 
ATOM     10  H   UNL     1       1.126   6.800  21.756  0.00  0.00    +0.000 HD
ENDROOT
BRANCH   5  11
ATOM     11  C   UNL     1       0.581   9.200  21.159  0.00  0.00    +0.000 A 
ATOM     12  C   UNL     1       0.243   9.024  22.490  0.00  0.00    +0.000 A 
ATOM     13  C   UNL     1      -0.527  10.105  23.008  0.00  0.00    +0.000 A 
ATOM     14  C   UNL     1      -0.768  11.066  22.054  0.00  0.00    +0.000 A 
ATOM     15  S   UNL     1      -0.080  10.658  20.544  0.00  0.00    +0.000 S 
ENDBRANCH   5  11
BRANCH   1  16
ATOM     16  C   UNL     1       4.455   4.886  17.651  0.00  0.00    +0.000 C 
BRANCH  16  17
ATOM     17  C   UNL     1       5.873   5.265  18.005  0.00  0.00    +0.000 C 
ATOM     18  O   UNL     1       6.707   4.521  18.510  0.00  0.00    +0.000 OA
BRANCH  17  20
ATOM     19  C   UNL     1       7.505   6.911  17.671  0.00  0.00    +0.000 C 
ATOM     20  O   UNL     1       6.125   6.543  17.602  0.00  0.00    +0.000 OA
ENDBRANCH  17  20
ENDBRANCH  16  17
ENDBRANCH   1  16
TORSDOF 4
ENDMDL
MODEL 5
REMARK VINA RESULT:      -6.2      1.463      1.894
REMARK  Name = 
REMARK  6 active torsions:
REMARK  status: ('A' for Active; 'I' for Inactive)
REMARK    1  A    between atoms: C_1  and  O_2
REMARK    2  A    between atoms: O_2  and  C_3
REMARK    3  A    between atoms: C_3  and  C_5
REMARK    4  A    between atoms: C_5  and  C_6
REMARK    5  A    between atoms: C_10  and  C_12
REMARK    6  A    between atoms: C_18  and  C_19
REMARK                            x       y       z     vdW  Elec       q    Type
REMARK                         _______ _______ _______ _____ _____    ______ ____
ROOT
ATOM      1  C   UNL     1       3.829   5.571  18.051  0.00  0.00    +0.000 A 
ATOM      2  N   UNL     1       3.218   6.712  18.538  0.00  0.00    +0.000 NA
ATOM      3  C   UNL     1       2.617   6.452  19.666  0.00  0.00    +0.000 A 
ATOM      4  N   UNL     1       1.886   7.294  20.452  0.00  0.00    +0.000 N 
ATOM      5  C   UNL     1       1.509   8.551  20.026  0.00  0.00    +0.000 C 
ATOM      6  O   UNL     1       1.773   9.031  18.928  0.00  0.00    +0.000 OA
ATOM      7  S   UNL     1       2.740   4.849  20.233  0.00  0.00    +0.000 S 
ATOM      8  C   UNL     1       3.635   4.436  18.822  0.00  0.00    +0.000 A 
ATOM      9  C   UNL     1       4.103   3.047  18.567  0.00  0.00    +0.000 C 
ATOM     10  H   UNL     1       1.553   6.943  21.336  0.00  0.00    +0.000 HD
ENDROOT
BRANCH   5  11
ATOM     11  C   UNL     1       0.696   9.300  20.987  0.00  0.00    +0.000 A 
ATOM     12  C   UNL     1       0.372   8.902  22.273  0.00  0.00    +0.000 A 
ATOM     13  C   UNL     1      -0.395   9.876  22.973  0.00  0.00    +0.000 A 
ATOM     14  C   UNL     1      -0.650  10.982  22.196  0.00  0.00    +0.000 A 
ATOM     15  S   UNL     1       0.023  10.837  20.632  0.00  0.00    +0.000 S 
ENDBRANCH   5  11
BRANCH   1  16
ATOM     16  C   UNL     1       4.584   5.690  16.771  0.00  0.00    +0.000 C 
BRANCH  16  17
ATOM     17  C   UNL     1       5.991   6.184  17.006  0.00  0.00    +0.000 C 
ATOM     18  O   UNL     1       6.375   7.341  16.870  0.00  0.00    +0.000 OA
BRANCH  17  20
ATOM     19  C   UNL     1       7.542   5.514  18.627  0.00  0.00    +0.000 C 
ATOM     20  O   UNL     1       6.766   5.166  17.478  0.00  0.00    +0.000 OA
ENDBRANCH  17  20
ENDBRANCH  16  17
ENDBRANCH   1  16
TORSDOF 4
ENDMDL
MODEL 6
REMARK VINA RESULT:      -6.1      1.331      1.585
REMARK  Name = 
REMARK  6 active torsions:
REMARK  status: ('A' for Active; 'I' for Inactive)
REMARK    1  A    between atoms: C_1  and  O_2
REMARK    2  A    between atoms: O_2  and  C_3
REMARK    3  A    between atoms: C_3  and  C_5
REMARK    4  A    between atoms: C_5  and  C_6
REMARK    5  A    between atoms: C_10  and  C_12
REMARK    6  A    between atoms: C_18  and  C_19
REMARK                            x       y       z     vdW  Elec       q    Type
REMARK                         _______ _______ _______ _____ _____    ______ ____
ROOT
ATOM      1  C   UNL     1       4.303   4.840  17.962  0.00  0.00    +0.000 A 
ATOM      2  N   UNL     1       3.780   6.121  17.969  0.00  0.00    +0.000 NA
ATOM      3  C   UNL     1       3.002   6.282  19.003  0.00  0.00    +0.000 A 
ATOM      4  N   UNL     1       2.283   7.385  19.361  0.00  0.00    +0.000 N 
ATOM      5  C   UNL     1       2.129   8.465  18.515  0.00  0.00    +0.000 C 
ATOM      6  O   UNL     1       2.599   8.546  17.384  0.00  0.00    +0.000 OA
ATOM      7  S   UNL     1       2.844   4.940  20.043  0.00  0.00    +0.000 S 
ATOM      8  C   UNL     1       3.864   4.030  18.997  0.00  0.00    +0.000 A 
ATOM      9  C   UNL     1       4.184   2.601  19.259  0.00  0.00    +0.000 C 
ATOM     10  H   UNL     1       1.791   7.362  20.240  0.00  0.00    +0.000 HD
ENDROOT
BRANCH   5  11
ATOM     11  C   UNL     1       1.294   9.542  19.051  0.00  0.00    +0.000 A 
ATOM     12  C   UNL     1       0.313   9.413  20.020  0.00  0.00    +0.000 A 
ATOM     13  C   UNL     1      -0.289  10.658  20.360  0.00  0.00    +0.000 A 
ATOM     14  C   UNL     1       0.236  11.698  19.629  0.00  0.00    +0.000 A 
ATOM     15  S   UNL     1       1.438  11.171  18.535  0.00  0.00    +0.000 S 
ENDBRANCH   5  11
BRANCH   1  16
ATOM     16  C   UNL     1       5.234   4.486  16.853  0.00  0.00    +0.000 C 
BRANCH  16  17
ATOM     17  C   UNL     1       6.676   4.593  17.289  0.00  0.00    +0.000 C 
ATOM     18  O   UNL     1       7.079   4.534  18.446  0.00  0.00    +0.000 OA
BRANCH  17  20
ATOM     19  C   UNL     1       6.779   4.872  14.967  0.00  0.00    +0.000 C 
ATOM     20  O   UNL     1       7.485   4.681  16.195  0.00  0.00    +0.000 OA
ENDBRANCH  17  20
ENDBRANCH  16  17
ENDBRANCH   1  16
TORSDOF 4
ENDMDL
MODEL 7
REMARK VINA RESULT:      -6.1      1.415      1.643
REMARK  Name = 
REMARK  6 active torsions:
REMARK  status: ('A' for Active; 'I' for Inactive)
REMARK    1  A    between atoms: C_1  and  O_2
REMARK    2  A    between atoms: O_2  and  C_3
REMARK    3  A    between atoms: C_3  and  C_5
REMARK    4  A    between atoms: C_5  and  C_6
REMARK    5  A    between atoms: C_10  and  C_12
REMARK    6  A    between atoms: C_18  and  C_19
REMARK                            x       y       z     vdW  Elec       q    Type
REMARK                         _______ _______ _______ _____ _____    ______ ____
ROOT
ATOM      1  C   UNL     1       4.118   4.104  17.387  0.00  0.00    +0.000 A 
ATOM      2  N   UNL     1       3.755   5.409  17.667  0.00  0.00    +0.000 NA
ATOM      3  C   UNL     1       2.900   5.435  18.652  0.00  0.00    +0.000 A 
ATOM      4  N   UNL     1       2.285   6.515  19.215  0.00  0.00    +0.000 N 
ATOM      5  C   UNL     1       2.348   7.772  18.647  0.00  0.00    +0.000 C 
ATOM      6  O   UNL     1       2.937   8.044  17.605  0.00  0.00    +0.000 OA
ATOM      7  S   UNL     1       2.478   3.925  19.322  0.00  0.00    +0.000 S 
ATOM      8  C   UNL     1       3.483   3.147  18.162  0.00  0.00    +0.000 A 
ATOM      9  C   UNL     1       3.602   1.665  18.092  0.00  0.00    +0.000 C 
ATOM     10  H   UNL     1       1.707   6.359  20.025  0.00  0.00    +0.000 HD
ENDROOT
BRANCH   5  11
ATOM     11  C   UNL     1       1.597   8.802  19.367  0.00  0.00    +0.000 A 
ATOM     12  C   UNL     1       1.152  10.006  18.846  0.00  0.00    +0.000 A 
ATOM     13  C   UNL     1       0.408  10.771  19.790  0.00  0.00    +0.000 A 
ATOM     14  C   UNL     1       0.322  10.137  21.008  0.00  0.00    +0.000 A 
ATOM     15  S   UNL     1       1.142   8.638  21.012  0.00  0.00    +0.000 S 
ENDBRANCH   5  11
BRANCH   1  16
ATOM     16  C   UNL     1       5.109   3.888  16.294  0.00  0.00    +0.000 C 
BRANCH  16  17
ATOM     17  C   UNL     1       6.385   4.654  16.547  0.00  0.00    +0.000 C 
ATOM     18  O   UNL     1       7.151   4.475  17.488  0.00  0.00    +0.000 OA
BRANCH  17  20
ATOM     19  C   UNL     1       6.907   4.890  14.277  0.00  0.00    +0.000 C 
ATOM     20  O   UNL     1       6.612   5.525  15.524  0.00  0.00    +0.000 OA
ENDBRANCH  17  20
ENDBRANCH  16  17
ENDBRANCH   1  16
TORSDOF 4
ENDMDL
MODEL 8
REMARK VINA RESULT:      -6.1      1.435      1.802
REMARK  Name = 
REMARK  6 active torsions:
REMARK  status: ('A' for Active; 'I' for Inactive)
REMARK    1  A    between atoms: C_1  and  O_2
REMARK    2  A    between atoms: O_2  and  C_3
REMARK    3  A    between atoms: C_3  and  C_5
REMARK    4  A    between atoms: C_5  and  C_6
REMARK    5  A    between atoms: C_10  and  C_12
REMARK    6  A    between atoms: C_18  and  C_19
REMARK                            x       y       z     vdW  Elec       q    Type
REMARK                         _______ _______ _______ _____ _____    ______ ____
ROOT
ATOM      1  C   UNL     1       4.008   4.418  17.343  0.00  0.00    +0.000 A 
ATOM      2  N   UNL     1       3.588   5.659  17.789  0.00  0.00    +0.000 NA
ATOM      3  C   UNL     1       2.884   5.528  18.879  0.00  0.00    +0.000 A 
ATOM      4  N   UNL     1       2.274   6.500  19.618  0.00  0.00    +0.000 N 
ATOM      5  C   UNL     1       2.158   7.799  19.165  0.00  0.00    +0.000 C 
ATOM      6  O   UNL     1       2.570   8.207  18.083  0.00  0.00    +0.000 OA
ATOM      7  S   UNL     1       2.680   3.937  19.457  0.00  0.00    +0.000 S 
ATOM      8  C   UNL     1       3.565   3.349  18.105  0.00  0.00    +0.000 A 
ATOM      9  C   UNL     1       3.787   1.894  17.883  0.00  0.00    +0.000 C 
ATOM     10  H   UNL     1       1.831   6.228  20.481  0.00  0.00    +0.000 HD
ENDROOT
BRANCH   5  11
ATOM     11  C   UNL     1       1.441   8.696  20.073  0.00  0.00    +0.000 A 
ATOM     12  C   UNL     1       1.195   8.477  21.418  0.00  0.00    +0.000 A 
ATOM     13  C   UNL     1       0.512   9.564  22.036  0.00  0.00    +0.000 A 
ATOM     14  C   UNL     1       0.240  10.573  21.141  0.00  0.00    +0.000 A 
ATOM     15  S   UNL     1       0.796  10.204  19.568  0.00  0.00    +0.000 S 
ENDBRANCH   5  11
BRANCH   1  16
ATOM     16  C   UNL     1       4.846   4.380  16.111  0.00  0.00    +0.000 C 
BRANCH  16  17
ATOM     17  C   UNL     1       5.648   5.650  15.950  0.00  0.00    +0.000 C 
ATOM     18  O   UNL     1       5.307   6.633  15.301  0.00  0.00    +0.000 OA
BRANCH  17  20
ATOM     19  C   UNL     1       7.084   6.792  17.405  0.00  0.00    +0.000 C 
ATOM     20  O   UNL     1       6.780   5.581  16.707  0.00  0.00    +0.000 OA
ENDBRANCH  17  20
ENDBRANCH  16  17
ENDBRANCH   1  16
TORSDOF 4
ENDMDL
MODEL 9
REMARK VINA RESULT:      -6.0      1.491      1.701
REMARK  Name = 
REMARK  6 active torsions:
REMARK  status: ('A' for Active; 'I' for Inactive)
REMARK    1  A    between atoms: C_1  and  O_2
REMARK    2  A    between atoms: O_2  and  C_3
REMARK    3  A    between atoms: C_3  and  C_5
REMARK    4  A    between atoms: C_5  and  C_6
REMARK    5  A    between atoms: C_10  and  C_12
REMARK    6  A    between atoms: C_18  and  C_19
REMARK                            x       y       z     vdW  Elec       q    Type
REMARK                         _______ _______ _______ _____ _____    ______ ____
ROOT
ATOM      1  C   UNL     1       3.863   4.569  18.479  0.00  0.00    +0.000 A 
ATOM      2  N   UNL     1       3.352   5.833  18.712  0.00  0.00    +0.000 NA
ATOM      3  C   UNL     1       2.671   5.843  19.825  0.00  0.00    +0.000 A 
ATOM      4  N   UNL     1       1.994   6.880  20.396  0.00  0.00    +0.000 N 
ATOM      5  C   UNL     1       1.772   8.068  19.728  0.00  0.00    +0.000 C 
ATOM      6  O   UNL     1       2.140   8.309  18.582  0.00  0.00    +0.000 OA
ATOM      7  S   UNL     1       2.597   4.367  20.675  0.00  0.00    +0.000 S 
ATOM      8  C   UNL     1       3.513   3.619  19.426  0.00  0.00    +0.000 A 
ATOM      9  C   UNL     1       3.845   2.169  19.455  0.00  0.00    +0.000 C 
ATOM     10  H   UNL     1       1.582   6.731  21.304  0.00  0.00    +0.000 HD
ENDROOT
BRANCH   5  11
ATOM     11  C   UNL     1       0.996   9.054  20.482  0.00  0.00    +0.000 A 
ATOM     12  C   UNL     1       0.158  10.019  19.948  0.00  0.00    +0.000 A 
ATOM     13  C   UNL     1      -0.493  10.796  20.949  0.00  0.00    +0.000 A 
ATOM     14  C   UNL     1      -0.120  10.413  22.217  0.00  0.00    +0.000 A 
ATOM     15  S   UNL     1       1.014   9.135  22.195  0.00  0.00    +0.000 S 
ENDBRANCH   5  11
BRANCH   1  16
ATOM     16  C   UNL     1       4.689   4.379  17.253  0.00  0.00    +0.000 C 
BRANCH  16  17
ATOM     17  C   UNL     1       6.139   4.715  17.508  0.00  0.00    +0.000 C 
ATOM     18  O   UNL     1       6.800   4.343  18.472  0.00  0.00    +0.000 OA
BRANCH  17  20
ATOM     19  C   UNL     1       7.020   4.623  15.340  0.00  0.00    +0.000 C 
ATOM     20  O   UNL     1       6.640   5.428  16.459  0.00  0.00    +0.000 OA
ENDBRANCH  17  20
ENDBRANCH  16  17
ENDBRANCH   1  16
TORSDOF 4
ENDMDL
