MODEL 1
REMARK VINA RESULT:      -7.7      0.000      0.000
REMARK  Name = 
REMARK  4 active torsions:
REMARK  status: ('A' for Active; 'I' for Inactive)
REMARK    1  A    between atoms: C_1  and  C_2
REMARK    2  A    between atoms: N_4  and  C_5
REMARK    3  A    between atoms: C_9  and  C_10
REMARK    4  A    between atoms: C_12  and  C_13
REMARK                            x       y       z     vdW  Elec       q    Type
REMARK                         _______ _______ _______ _____ _____    ______ ____
ROOT
ATOM      1  C   UNL     1       4.510   4.716  17.321  0.00  0.00    +0.000 A 
ATOM      2  C   UNL     1       4.483   3.793  18.364  0.00  0.00    +0.000 A 
ATOM      3  N   UNL     1       3.897   4.017  19.564  0.00  0.00    +0.000 NA
ATOM      4  C   UNL     1       3.285   5.211  19.720  0.00  0.00    +0.000 A 
ATOM      5  C   UNL     1       3.235   6.214  18.752  0.00  0.00    +0.000 A 
ATOM      6  C   UNL     1       3.892   5.952  17.541  0.00  0.00    +0.000 A 
ENDROOT
BRANCH   1  10
ATOM      7  C   UNL     1       6.808   4.368  14.355  0.00  0.00    +0.000 C 
ATOM      8  C   UNL     1       6.469   4.598  15.804  0.00  0.00    +0.000 C 
ATOM      9  O   UNL     1       7.347   4.858  16.619  0.00  0.00    +0.000 OA
ATOM     10  N   UNL     1       5.117   4.480  16.068  0.00  0.00    +0.000 N 
ATOM     11  H   UNL     1       4.529   4.101  15.337  0.00  0.00    +0.000 HD
ENDBRANCH   1  10
BRANCH   5  12
ATOM     12  C   UNL     1       2.452   7.434  18.988  0.00  0.00    +0.000 A 
ATOM     13  C   UNL     1       1.850   7.840  20.166  0.00  0.00    +0.000 A 
ATOM     14  C   UNL     1       1.121   9.067  20.052  0.00  0.00    +0.000 A 
ATOM     15  C   UNL     1       1.211   9.566  18.767  0.00  0.00    +0.000 A 
ATOM     16  S   UNL     1       2.163   8.579  17.744  0.00  0.00    +0.000 S 
BRANCH  14  17
ATOM     17  C   UNL     1       0.370   9.729  21.113  0.00  0.00    +0.000 A 
ATOM     18  C   UNL     1      -0.523  10.765  20.816  0.00  0.00    +0.000 A 
ATOM     19  C   UNL     1      -1.201  11.415  21.843  0.00  0.00    +0.000 A 
ATOM     20  C   UNL     1      -0.970  11.008  23.145  0.00  0.00    +0.000 A 
ATOM     21  N   UNL     1      -0.122  10.012  23.478  0.00  0.00    +0.000 NA
ATOM     22  C   UNL     1       0.529   9.400  22.458  0.00  0.00    +0.000 A 
ENDBRANCH  14  17
ENDBRANCH   5  12
TORSDOF 3
ENDMDL
MODEL 2
REMARK VINA RESULT:      -7.6      2.526      3.801
REMARK  Name = 
REMARK  4 active torsions:
REMARK  status: ('A' for Active; 'I' for Inactive)
REMARK    1  A    between atoms: C_1  and  C_2
REMARK    2  A    between atoms: N_4  and  C_5
REMARK    3  A    between atoms: C_9  and  C_10
REMARK    4  A    between atoms: C_12  and  C_13
REMARK                            x       y       z     vdW  Elec       q    Type
REMARK                         _______ _______ _______ _____ _____    ______ ____
ROOT
ATOM      1  C   UNL     1       6.077   4.192  14.617  0.00  0.00    +0.000 A 
ATOM      2  C   UNL     1       7.287   4.868  14.758  0.00  0.00    +0.000 A 
ATOM      3  N   UNL     1       7.536   5.791  15.716  0.00  0.00    +0.000 NA
ATOM      4  C   UNL     1       6.537   6.031  16.594  0.00  0.00    +0.000 A 
ATOM      5  C   UNL     1       5.286   5.415  16.565  0.00  0.00    +0.000 A 
ATOM      6  C   UNL     1       5.061   4.497  15.529  0.00  0.00    +0.000 A 
ENDROOT
BRANCH   1  10
ATOM      7  C   UNL     1       5.768   2.155  11.462  0.00  0.00    +0.000 C 
ATOM      8  C   UNL     1       6.279   3.284  12.317  0.00  0.00    +0.000 C 
ATOM      9  O   UNL     1       7.023   4.138  11.848  0.00  0.00    +0.000 OA
ATOM     10  N   UNL     1       5.819   3.225  13.620  0.00  0.00    +0.000 N 
ATOM     11  H   UNL     1       5.347   2.379  13.912  0.00  0.00    +0.000 HD
ENDBRANCH   1  10
BRANCH   5  12
ATOM     12  C   UNL     1       4.309   5.672  17.631  0.00  0.00    +0.000 A 
ATOM     13  C   UNL     1       3.616   6.844  17.882  0.00  0.00    +0.000 A 
ATOM     14  C   UNL     1       2.763   6.779  19.030  0.00  0.00    +0.000 A 
ATOM     15  C   UNL     1       2.829   5.528  19.612  0.00  0.00    +0.000 A 
ATOM     16  S   UNL     1       3.883   4.469  18.777  0.00  0.00    +0.000 S 
BRANCH  14  17
ATOM     17  C   UNL     1       1.931   7.857  19.551  0.00  0.00    +0.000 A 
ATOM     18  C   UNL     1       1.413   7.796  20.850  0.00  0.00    +0.000 A 
ATOM     19  C   UNL     1       0.586   8.813  21.318  0.00  0.00    +0.000 A 
ATOM     20  C   UNL     1       0.301   9.870  20.474  0.00  0.00    +0.000 A 
ATOM     21  N   UNL     1       0.780   9.974  19.216  0.00  0.00    +0.000 NA
ATOM     22  C   UNL     1       1.578   8.966  18.785  0.00  0.00    +0.000 A 
ENDBRANCH  14  17
ENDBRANCH   5  12
TORSDOF 3
ENDMDL
MODEL 3
REMARK VINA RESULT:      -7.6      1.970      2.788
REMARK  Name = 
REMARK  4 active torsions:
REMARK  status: ('A' for Active; 'I' for Inactive)
REMARK    1  A    between atoms: C_1  and  C_2
REMARK    2  A    between atoms: N_4  and  C_5
REMARK    3  A    between atoms: C_9  and  C_10
REMARK    4  A    between atoms: C_12  and  C_13
REMARK                            x       y       z     vdW  Elec       q    Type
REMARK                         _______ _______ _______ _____ _____    ______ ____
ROOT
ATOM      1  C   UNL     1       6.162   4.322  16.407  0.00  0.00    +0.000 A 
ATOM      2  C   UNL     1       7.345   4.384  17.140  0.00  0.00    +0.000 A 
ATOM      3  N   UNL     1       7.437   4.883  18.395  0.00  0.00    +0.000 NA
ATOM      4  C   UNL     1       6.287   5.316  18.955  0.00  0.00    +0.000 A 
ATOM      5  C   UNL     1       5.040   5.300  18.330  0.00  0.00    +0.000 A 
ATOM      6  C   UNL     1       5.002   4.813  17.016  0.00  0.00    +0.000 A 
ENDROOT
BRANCH   1  10
ATOM      7  C   UNL     1       6.254   3.637  12.702  0.00  0.00    +0.000 C 
ATOM      8  C   UNL     1       6.593   4.385  13.965  0.00  0.00    +0.000 C 
ATOM      9  O   UNL     1       7.271   5.405  13.925  0.00  0.00    +0.000 OA
ATOM     10  N   UNL     1       6.065   3.797  15.099  0.00  0.00    +0.000 N 
ATOM     11  H   UNL     1       5.667   2.872  15.004  0.00  0.00    +0.000 HD
ENDBRANCH   1  10
BRANCH   5  12
ATOM     12  C   UNL     1       3.835   5.698  19.070  0.00  0.00    +0.000 A 
ATOM     13  C   UNL     1       3.281   6.962  19.172  0.00  0.00    +0.000 A 
ATOM     14  C   UNL     1       2.120   7.021  20.008  0.00  0.00    +0.000 A 
ATOM     15  C   UNL     1       1.820   5.769  20.508  0.00  0.00    +0.000 A 
ATOM     16  S   UNL     1       2.908   4.565  19.965  0.00  0.00    +0.000 S 
BRANCH  14  17
ATOM     17  C   UNL     1       1.339   8.212  20.319  0.00  0.00    +0.000 A 
ATOM     18  C   UNL     1       0.701   8.344  21.558  0.00  0.00    +0.000 A 
ATOM     19  C   UNL     1      -0.076   9.468  21.825  0.00  0.00    +0.000 A 
ATOM     20  C   UNL     1      -0.192  10.436  20.843  0.00  0.00    +0.000 A 
ATOM     21  N   UNL     1       0.408  10.354  19.637  0.00  0.00    +0.000 NA
ATOM     22  C   UNL     1       1.153   9.245  19.403  0.00  0.00    +0.000 A 
ENDBRANCH  14  17
ENDBRANCH   5  12
TORSDOF 3
ENDMDL
MODEL 4
REMARK VINA RESULT:      -7.4      1.841      2.636
REMARK  Name = 
REMARK  4 active torsions:
REMARK  status: ('A' for Active; 'I' for Inactive)
REMARK    1  A    between atoms: C_1  and  C_2
REMARK    2  A    between atoms: N_4  and  C_5
REMARK    3  A    between atoms: C_9  and  C_10
REMARK    4  A    between atoms: C_12  and  C_13
REMARK                            x       y       z     vdW  Elec       q    Type
REMARK                         _______ _______ _______ _____ _____    ______ ____
ROOT
ATOM      1  C   UNL     1       6.162   4.326  16.421  0.00  0.00    +0.000 A 
ATOM      2  C   UNL     1       7.345   4.391  17.154  0.00  0.00    +0.000 A 
ATOM      3  N   UNL     1       7.438   4.895  18.407  0.00  0.00    +0.000 NA
ATOM      4  C   UNL     1       6.288   5.328  18.967  0.00  0.00    +0.000 A 
ATOM      5  C   UNL     1       5.041   5.309  18.343  0.00  0.00    +0.000 A 
ATOM      6  C   UNL     1       5.002   4.818  17.030  0.00  0.00    +0.000 A 
ENDROOT
BRANCH   1  10
ATOM      7  C   UNL     1       6.262   3.624  12.720  0.00  0.00    +0.000 C 
ATOM      8  C   UNL     1       6.605   4.373  13.981  0.00  0.00    +0.000 C 
ATOM      9  O   UNL     1       7.297   5.384  13.940  0.00  0.00    +0.000 OA
ATOM     10  N   UNL     1       6.064   3.796  15.116  0.00  0.00    +0.000 N 
ATOM     11  H   UNL     1       5.654   2.877  15.022  0.00  0.00    +0.000 HD
ENDBRANCH   1  10
BRANCH   5  12
ATOM     12  C   UNL     1       3.836   5.708  19.083  0.00  0.00    +0.000 A 
ATOM     13  C   UNL     1       3.264   6.966  19.156  0.00  0.00    +0.000 A 
ATOM     14  C   UNL     1       2.109   7.029  20.001  0.00  0.00    +0.000 A 
ATOM     15  C   UNL     1       1.832   5.787  20.536  0.00  0.00    +0.000 A 
ATOM     16  S   UNL     1       2.934   4.585  20.014  0.00  0.00    +0.000 S 
BRANCH  14  17
ATOM     17  C   UNL     1       1.313   8.217  20.288  0.00  0.00    +0.000 A 
ATOM     18  C   UNL     1       1.214   9.253  19.352  0.00  0.00    +0.000 A 
ATOM     19  C   UNL     1       0.484  10.398  19.657  0.00  0.00    +0.000 A 
ATOM     20  C   UNL     1      -0.134  10.476  20.892  0.00  0.00    +0.000 A 
ATOM     21  N   UNL     1      -0.070   9.501  21.823  0.00  0.00    +0.000 NA
ATOM     22  C   UNL     1       0.653   8.399  21.501  0.00  0.00    +0.000 A 
ENDBRANCH  14  17
ENDBRANCH   5  12
TORSDOF 3
ENDMDL
MODEL 5
REMARK VINA RESULT:      -7.4      0.792      1.135
REMARK  Name = 
REMARK  4 active torsions:
REMARK  status: ('A' for Active; 'I' for Inactive)
REMARK    1  A    between atoms: C_1  and  C_2
REMARK    2  A    between atoms: N_4  and  C_5
REMARK    3  A    between atoms: C_9  and  C_10
REMARK    4  A    between atoms: C_12  and  C_13
REMARK                            x       y       z     vdW  Elec       q    Type
REMARK                         _______ _______ _______ _____ _____    ______ ____
ROOT
ATOM      1  C   UNL     1       4.333   4.537  17.477  0.00  0.00    +0.000 A 
ATOM      2  C   UNL     1       4.313   3.668  18.567  0.00  0.00    +0.000 A 
ATOM      3  N   UNL     1       3.777   3.972  19.772  0.00  0.00    +0.000 NA
ATOM      4  C   UNL     1       3.207   5.191  19.886  0.00  0.00    +0.000 A 
ATOM      5  C   UNL     1       3.154   6.145  18.870  0.00  0.00    +0.000 A 
ATOM      6  C   UNL     1       3.761   5.801  17.653  0.00  0.00    +0.000 A 
ENDROOT
BRANCH   1  10
ATOM      7  C   UNL     1       6.137   4.447  14.170  0.00  0.00    +0.000 C 
ATOM      8  C   UNL     1       5.791   5.005  15.525  0.00  0.00    +0.000 C 
ATOM      9  O   UNL     1       6.291   6.053  15.918  0.00  0.00    +0.000 OA
ATOM     10  N   UNL     1       4.888   4.219  16.218  0.00  0.00    +0.000 N 
ATOM     11  H   UNL     1       4.686   3.300  15.845  0.00  0.00    +0.000 HD
ENDBRANCH   1  10
BRANCH   5  12
ATOM     12  C   UNL     1       2.417   7.400  19.069  0.00  0.00    +0.000 A 
ATOM     13  C   UNL     1       1.777   7.834  20.216  0.00  0.00    +0.000 A 
ATOM     14  C   UNL     1       1.112   9.094  20.068  0.00  0.00    +0.000 A 
ATOM     15  C   UNL     1       1.289   9.587  18.790  0.00  0.00    +0.000 A 
ATOM     16  S   UNL     1       2.245   8.556  17.813  0.00  0.00    +0.000 S 
BRANCH  14  17
ATOM     17  C   UNL     1       0.341   9.790  21.091  0.00  0.00    +0.000 A 
ATOM     18  C   UNL     1       0.101   9.193  22.334  0.00  0.00    +0.000 A 
ATOM     19  C   UNL     1      -0.672   9.852  23.286  0.00  0.00    +0.000 A 
ATOM     20  C   UNL     1      -1.183  11.098  22.970  0.00  0.00    +0.000 A 
ATOM     21  N   UNL     1      -0.975  11.715  21.787  0.00  0.00    +0.000 NA
ATOM     22  C   UNL     1      -0.223  11.046  20.877  0.00  0.00    +0.000 A 
ENDBRANCH  14  17
ENDBRANCH   5  12
TORSDOF 3
ENDMDL
MODEL 6
REMARK VINA RESULT:      -7.3      3.442      8.191
REMARK  Name = 
REMARK  4 active torsions:
REMARK  status: ('A' for Active; 'I' for Inactive)
REMARK    1  A    between atoms: C_1  and  C_2
REMARK    2  A    between atoms: N_4  and  C_5
REMARK    3  A    between atoms: C_9  and  C_10
REMARK    4  A    between atoms: C_12  and  C_13
REMARK                            x       y       z     vdW  Elec       q    Type
REMARK                         _______ _______ _______ _____ _____    ______ ____
ROOT
ATOM      1  C   UNL     1      -0.027   9.994  18.455  0.00  0.00    +0.000 A 
ATOM      2  C   UNL     1      -0.003  10.453  19.770  0.00  0.00    +0.000 A 
ATOM      3  N   UNL     1       0.736   9.894  20.757  0.00  0.00    +0.000 NA
ATOM      4  C   UNL     1       1.509   8.843  20.408  0.00  0.00    +0.000 A 
ATOM      5  C   UNL     1       1.580   8.297  19.127  0.00  0.00    +0.000 A 
ATOM      6  C   UNL     1       0.766   8.883  18.147  0.00  0.00    +0.000 A 
ENDROOT
BRANCH   1  10
ATOM      7  C   UNL     1      -2.640  11.002  15.933  0.00  0.00    +0.000 C 
ATOM      8  C   UNL     1      -2.115  10.282  17.147  0.00  0.00    +0.000 C 
ATOM      9  O   UNL     1      -2.836   9.521  17.783  0.00  0.00    +0.000 OA
ATOM     10  N   UNL     1      -0.794  10.580  17.424  0.00  0.00    +0.000 N 
ATOM     11  H   UNL     1      -0.372  11.347  16.916  0.00  0.00    +0.000 HD
ENDBRANCH   1  10
BRANCH   5  12
ATOM     12  C   UNL     1       2.535   7.220  18.832  0.00  0.00    +0.000 A 
ATOM     13  C   UNL     1       3.420   7.138  17.772  0.00  0.00    +0.000 A 
ATOM     14  C   UNL     1       4.188   5.930  17.749  0.00  0.00    +0.000 A 
ATOM     15  C   UNL     1       3.862   5.130  18.826  0.00  0.00    +0.000 A 
ATOM     16  S   UNL     1       2.672   5.834  19.834  0.00  0.00    +0.000 S 
BRANCH  14  17
ATOM     17  C   UNL     1       5.180   5.555  16.749  0.00  0.00    +0.000 A 
ATOM     18  C   UNL     1       4.939   4.495  15.866  0.00  0.00    +0.000 A 
ATOM     19  C   UNL     1       5.912   4.122  14.944  0.00  0.00    +0.000 A 
ATOM     20  C   UNL     1       7.104   4.823  14.925  0.00  0.00    +0.000 A 
ATOM     21  N   UNL     1       7.380   5.853  15.753  0.00  0.00    +0.000 NA
ATOM     22  C   UNL     1       6.416   6.191  16.645  0.00  0.00    +0.000 A 
ENDBRANCH  14  17
ENDBRANCH   5  12
TORSDOF 3
ENDMDL
MODEL 7
REMARK VINA RESULT:      -7.2      3.901      8.389
REMARK  Name = 
REMARK  4 active torsions:
REMARK  status: ('A' for Active; 'I' for Inactive)
REMARK    1  A    between atoms: C_1  and  C_2
REMARK    2  A    between atoms: N_4  and  C_5
REMARK    3  A    between atoms: C_9  and  C_10
REMARK    4  A    between atoms: C_12  and  C_13
REMARK                            x       y       z     vdW  Elec       q    Type
REMARK                         _______ _______ _______ _____ _____    ______ ____
ROOT
ATOM      1  C   UNL     1      -1.288  11.823  18.308  0.00  0.00    +0.000 A 
ATOM      2  C   UNL     1      -0.469  12.949  18.335  0.00  0.00    +0.000 A 
ATOM      3  N   UNL     1       0.855  12.921  18.615  0.00  0.00    +0.000 NA
ATOM      4  C   UNL     1       1.393  11.705  18.851  0.00  0.00    +0.000 A 
ATOM      5  C   UNL     1       0.684  10.504  18.844  0.00  0.00    +0.000 A 
ATOM      6  C   UNL     1      -0.693  10.589  18.591  0.00  0.00    +0.000 A 
ENDROOT
BRANCH   1  10
ATOM      7  C   UNL     1      -4.724  11.652  16.768  0.00  0.00    +0.000 C 
ATOM      8  C   UNL     1      -3.238  11.415  16.829  0.00  0.00    +0.000 C 
ATOM      9  O   UNL     1      -2.650  10.884  15.894  0.00  0.00    +0.000 OA
ATOM     10  N   UNL     1      -2.669  11.851  18.012  0.00  0.00    +0.000 N 
ATOM     11  H   UNL     1      -3.294  12.119  18.760  0.00  0.00    +0.000 HD
ENDBRANCH   1  10
BRANCH   5  12
ATOM     12  C   UNL     1       1.389   9.226  19.010  0.00  0.00    +0.000 A 
ATOM     13  C   UNL     1       2.139   8.543  18.069  0.00  0.00    +0.000 A 
ATOM     14  C   UNL     1       2.664   7.297  18.539  0.00  0.00    +0.000 A 
ATOM     15  C   UNL     1       2.298   7.083  19.853  0.00  0.00    +0.000 A 
ATOM     16  S   UNL     1       1.360   8.364  20.492  0.00  0.00    +0.000 S 
BRANCH  14  17
ATOM     17  C   UNL     1       3.470   6.354  17.772  0.00  0.00    +0.000 A 
ATOM     18  C   UNL     1       4.509   6.806  16.951  0.00  0.00    +0.000 A 
ATOM     19  C   UNL     1       5.243   5.898  16.193  0.00  0.00    +0.000 A 
ATOM     20  C   UNL     1       4.918   4.556  16.279  0.00  0.00    +0.000 A 
ATOM     21  N   UNL     1       3.929   4.073  17.059  0.00  0.00    +0.000 NA
ATOM     22  C   UNL     1       3.227   4.981  17.782  0.00  0.00    +0.000 A 
ENDBRANCH  14  17
ENDBRANCH   5  12
TORSDOF 3
ENDMDL
MODEL 8
REMARK VINA RESULT:      -7.2      2.862      8.540
REMARK  Name = 
REMARK  4 active torsions:
REMARK  status: ('A' for Active; 'I' for Inactive)
REMARK    1  A    between atoms: C_1  and  C_2
REMARK    2  A    between atoms: N_4  and  C_5
REMARK    3  A    between atoms: C_9  and  C_10
REMARK    4  A    between atoms: C_12  and  C_13
REMARK                            x       y       z     vdW  Elec       q    Type
REMARK                         _______ _______ _______ _____ _____    ______ ____
ROOT
ATOM      1  C   UNL     1       2.035   5.727  20.429  0.00  0.00    +0.000 A 
ATOM      2  C   UNL     1       1.450   4.467  20.531  0.00  0.00    +0.000 A 
ATOM      3  N   UNL     1       1.839   3.387  19.814  0.00  0.00    +0.000 NA
ATOM      4  C   UNL     1       2.882   3.567  18.975  0.00  0.00    +0.000 A 
ATOM      5  C   UNL     1       3.557   4.773  18.789  0.00  0.00    +0.000 A 
ATOM      6  C   UNL     1       3.091   5.874  19.522  0.00  0.00    +0.000 A 
ENDROOT
BRANCH   1  10
ATOM      7  C   UNL     1       1.165   9.148  21.749  0.00  0.00    +0.000 C 
ATOM      8  C   UNL     1       1.537   8.143  20.691  0.00  0.00    +0.000 C 
ATOM      9  O   UNL     1       1.723   8.495  19.531  0.00  0.00    +0.000 OA
ATOM     10  N   UNL     1       1.632   6.853  21.180  0.00  0.00    +0.000 N 
ATOM     11  H   UNL     1       1.292   6.683  22.117  0.00  0.00    +0.000 HD
ENDBRANCH   1  10
BRANCH   5  12
ATOM     12  C   UNL     1       4.747   4.832  17.929  0.00  0.00    +0.000 A 
ATOM     13  C   UNL     1       4.805   4.706  16.552  0.00  0.00    +0.000 A 
ATOM     14  C   UNL     1       6.132   4.770  16.019  0.00  0.00    +0.000 A 
ATOM     15  C   UNL     1       7.051   4.963  17.031  0.00  0.00    +0.000 A 
ATOM     16  S   UNL     1       6.318   5.075  18.574  0.00  0.00    +0.000 S 
BRANCH  14  17
ATOM     17  C   UNL     1       6.506   4.649  14.615  0.00  0.00    +0.000 A 
ATOM     18  C   UNL     1       5.871   3.717  13.785  0.00  0.00    +0.000 A 
ATOM     19  C   UNL     1       6.268   3.584  12.457  0.00  0.00    +0.000 A 
ATOM     20  C   UNL     1       7.290   4.391  11.992  0.00  0.00    +0.000 A 
ATOM     21  N   UNL     1       7.928   5.305  12.753  0.00  0.00    +0.000 NA
ATOM     22  C   UNL     1       7.524   5.410  14.044  0.00  0.00    +0.000 A 
ENDBRANCH  14  17
ENDBRANCH   5  12
TORSDOF 3
ENDMDL
MODEL 9
REMARK VINA RESULT:      -7.2      2.559      3.915
REMARK  Name = 
REMARK  4 active torsions:
REMARK  status: ('A' for Active; 'I' for Inactive)
REMARK    1  A    between atoms: C_1  and  C_2
REMARK    2  A    between atoms: N_4  and  C_5
REMARK    3  A    between atoms: C_9  and  C_10
REMARK    4  A    between atoms: C_12  and  C_13
REMARK                            x       y       z     vdW  Elec       q    Type
REMARK                         _______ _______ _______ _____ _____    ______ ____
ROOT
ATOM      1  C   UNL     1       6.330   4.083  14.380  0.00  0.00    +0.000 A 
ATOM      2  C   UNL     1       7.481   4.842  14.581  0.00  0.00    +0.000 A 
ATOM      3  N   UNL     1       7.596   5.819  15.510  0.00  0.00    +0.000 NA
ATOM      4  C   UNL     1       6.518   6.031  16.296  0.00  0.00    +0.000 A 
ATOM      5  C   UNL     1       5.313   5.335  16.201  0.00  0.00    +0.000 A 
ATOM      6  C   UNL     1       5.227   4.361  15.196  0.00  0.00    +0.000 A 
ENDROOT
BRANCH   1  10
ATOM      7  C   UNL     1       5.513   1.891  11.425  0.00  0.00    +0.000 C 
ATOM      8  C   UNL     1       5.545   3.178  12.208  0.00  0.00    +0.000 C 
ATOM      9  O   UNL     1       5.017   4.192  11.767  0.00  0.00    +0.000 OA
ATOM     10  N   UNL     1       6.211   3.059  13.414  0.00  0.00    +0.000 N 
ATOM     11  H   UNL     1       6.738   2.211  13.576  0.00  0.00    +0.000 HD
ENDBRANCH   1  10
BRANCH   5  12
ATOM     12  C   UNL     1       4.241   5.574  17.176  0.00  0.00    +0.000 A 
ATOM     13  C   UNL     1       3.726   6.790  17.589  0.00  0.00    +0.000 A 
ATOM     14  C   UNL     1       2.707   6.679  18.589  0.00  0.00    +0.000 A 
ATOM     15  C   UNL     1       2.471   5.353  18.894  0.00  0.00    +0.000 A 
ATOM     16  S   UNL     1       3.447   4.284  17.982  0.00  0.00    +0.000 S 
BRANCH  14  17
ATOM     17  C   UNL     1       1.998   7.783  19.227  0.00  0.00    +0.000 A 
ATOM     18  C   UNL     1       1.705   8.950  18.513  0.00  0.00    +0.000 A 
ATOM     19  C   UNL     1       1.064  10.011  19.146  0.00  0.00    +0.000 A 
ATOM     20  C   UNL     1       0.730   9.875  20.482  0.00  0.00    +0.000 A 
ATOM     21  N   UNL     1       0.989   8.768  21.209  0.00  0.00    +0.000 NA
ATOM     22  C   UNL     1       1.619   7.753  20.567  0.00  0.00    +0.000 A 
ENDBRANCH  14  17
ENDBRANCH   5  12
TORSDOF 3
ENDMDL
