MODEL 1
REMARK VINA RESULT:      -6.7      0.000      0.000
REMARK  Name = 
REMARK  6 active torsions:
REMARK  status: ('A' for Active; 'I' for Inactive)
REMARK    1  A    between atoms: C_2  and  C_3
REMARK    2  A    between atoms: C_3  and  C_4
REMARK    3  A    between atoms: C_16  and  O_17
REMARK    4  A    between atoms: O_17  and  C_18
REMARK    5  A    between atoms: C_18  and  C_19
REMARK    6  A    between atoms: C_19  and  O_20
REMARK                            x       y       z     vdW  Elec       q    Type
REMARK                         _______ _______ _______ _____ _____    ______ ____
ROOT
ATOM      1  O   UNL     1       5.389   7.092  17.855  0.00  0.00    +0.000 OA
ATOM      2  C   UNL     1       5.342   5.896  18.154  0.00  0.00    +0.000 C 
ATOM      3  N   UNL     1       4.217   5.328  18.739  0.00  0.00    +0.000 N 
ATOM      4  C   UNL     1       4.057   3.937  19.158  0.00  0.00    +0.000 C 
ATOM      5  C   UNL     1       2.933   3.274  18.360  0.00  0.00    +0.000 C 
ATOM      6  C   UNL     1       1.626   4.078  18.466  0.00  0.00    +0.000 C 
ATOM      7  C   UNL     1       1.894   5.532  18.040  0.00  0.00    +0.000 C 
ATOM      8  C   UNL     1       3.012   6.142  18.884  0.00  0.00    +0.000 C 
ENDROOT
BRANCH   2   9
ATOM      9  C   UNL     1       6.535   5.002  17.840  0.00  0.00    +0.000 C 
BRANCH   9  10
ATOM     10  C   UNL     1       6.627   4.721  16.372  0.00  0.00    +0.000 A 
ATOM     11  C   UNL     1       7.464   5.304  15.443  0.00  0.00    +0.000 A 
ATOM     12  C   UNL     1       7.232   4.844  14.103  0.00  0.00    +0.000 A 
ATOM     13  C   UNL     1       7.855   5.206  12.885  0.00  0.00    +0.000 A 
ATOM     14  C   UNL     1       7.451   4.620  11.681  0.00  0.00    +0.000 A 
ATOM     15  C   UNL     1       6.437   3.673  11.669  0.00  0.00    +0.000 A 
ATOM     16  C   UNL     1       5.805   3.295  12.857  0.00  0.00    +0.000 A 
ATOM     17  C   UNL     1       6.210   3.893  14.066  0.00  0.00    +0.000 A 
ATOM     18  S   UNL     1       5.568   3.602  15.635  0.00  0.00    +0.000 S 
ENDBRANCH   9  10
ENDBRANCH   2   9
BRANCH   6  19
ATOM     19  O   UNL     1       1.140   3.986  19.819  0.00  0.00    +0.000 OA
BRANCH  19  20
ATOM     20  C   UNL     1       1.099   2.636  20.311  0.00  0.00    +0.000 C 
BRANCH  20  21
ATOM     21  C   UNL     1       1.391   2.617  21.806  0.00  0.00    +0.000 C 
BRANCH  21  22
ATOM     22  O   UNL     1       2.792   2.468  22.030  0.00  0.00    +0.000 OA
ATOM     23  H   UNL     1       3.215   2.647  21.169  0.00  0.00    +0.000 HD
ENDBRANCH  21  22
ENDBRANCH  20  21
ENDBRANCH  19  20
ENDBRANCH   6  19
TORSDOF 6
ENDMDL
MODEL 2
REMARK VINA RESULT:      -6.4      1.200      1.702
REMARK  Name = 
REMARK  6 active torsions:
REMARK  status: ('A' for Active; 'I' for Inactive)
REMARK    1  A    between atoms: C_2  and  C_3
REMARK    2  A    between atoms: C_3  and  C_4
REMARK    3  A    between atoms: C_16  and  O_17
REMARK    4  A    between atoms: O_17  and  C_18
REMARK    5  A    between atoms: C_18  and  C_19
REMARK    6  A    between atoms: C_19  and  O_20
REMARK                            x       y       z     vdW  Elec       q    Type
REMARK                         _______ _______ _______ _____ _____    ______ ____
ROOT
ATOM      1  O   UNL     1       3.591   7.010  17.757  0.00  0.00    +0.000 OA
ATOM      2  C   UNL     1       4.269   6.005  17.983  0.00  0.00    +0.000 C 
ATOM      3  N   UNL     1       3.724   4.864  18.561  0.00  0.00    +0.000 N 
ATOM      4  C   UNL     1       4.430   3.630  18.897  0.00  0.00    +0.000 C 
ATOM      5  C   UNL     1       3.863   2.463  18.089  0.00  0.00    +0.000 C 
ATOM      6  C   UNL     1       2.341   2.343  18.278  0.00  0.00    +0.000 C 
ATOM      7  C   UNL     1       1.684   3.691  17.935  0.00  0.00    +0.000 C 
ATOM      8  C   UNL     1       2.281   4.811  18.786  0.00  0.00    +0.000 C 
ENDROOT
BRANCH   2   9
ATOM      9  C   UNL     1       5.739   5.992  17.584  0.00  0.00    +0.000 C 
BRANCH   9  10
ATOM     10  C   UNL     1       5.917   5.457  16.196  0.00  0.00    +0.000 A 
ATOM     11  C   UNL     1       5.032   4.705  15.452  0.00  0.00    +0.000 A 
ATOM     12  C   UNL     1       5.560   4.300  14.181  0.00  0.00    +0.000 A 
ATOM     13  C   UNL     1       4.985   3.516  13.152  0.00  0.00    +0.000 A 
ATOM     14  C   UNL     1       5.705   3.240  11.985  0.00  0.00    +0.000 A 
ATOM     15  C   UNL     1       6.990   3.736  11.822  0.00  0.00    +0.000 A 
ATOM     16  C   UNL     1       7.583   4.514  12.820  0.00  0.00    +0.000 A 
ATOM     17  C   UNL     1       6.857   4.783  13.997  0.00  0.00    +0.000 A 
ATOM     18  S   UNL     1       7.386   5.693  15.358  0.00  0.00    +0.000 S 
ENDBRANCH   9  10
ENDBRANCH   2   9
BRANCH   6  19
ATOM     19  O   UNL     1       2.079   1.936  19.634  0.00  0.00    +0.000 OA
BRANCH  19  20
ATOM     20  C   UNL     1       1.010   2.674  20.247  0.00  0.00    +0.000 C 
BRANCH  20  21
ATOM     21  C   UNL     1       1.346   2.965  21.705  0.00  0.00    +0.000 C 
BRANCH  21  22
ATOM     22  O   UNL     1       2.671   2.526  22.000  0.00  0.00    +0.000 OA
ATOM     23  H   UNL     1       3.196   3.341  22.118  0.00  0.00    +0.000 HD
ENDBRANCH  21  22
ENDBRANCH  20  21
ENDBRANCH  19  20
ENDBRANCH   6  19
TORSDOF 6
ENDMDL
MODEL 3
REMARK VINA RESULT:      -6.3      0.887      1.021
REMARK  Name = 
REMARK  6 active torsions:
REMARK  status: ('A' for Active; 'I' for Inactive)
REMARK    1  A    between atoms: C_2  and  C_3
REMARK    2  A    between atoms: C_3  and  C_4
REMARK    3  A    between atoms: C_16  and  O_17
REMARK    4  A    between atoms: O_17  and  C_18
REMARK    5  A    between atoms: C_18  and  C_19
REMARK    6  A    between atoms: C_19  and  O_20
REMARK                            x       y       z     vdW  Elec       q    Type
REMARK                         _______ _______ _______ _____ _____    ______ ____
ROOT
ATOM      1  O   UNL     1       3.994   6.683  17.882  0.00  0.00    +0.000 OA
ATOM      2  C   UNL     1       4.532   5.618  18.192  0.00  0.00    +0.000 C 
ATOM      3  N   UNL     1       3.816   4.570  18.758  0.00  0.00    +0.000 N 
ATOM      4  C   UNL     1       4.348   3.278  19.188  0.00  0.00    +0.000 C 
ATOM      5  C   UNL     1       3.715   2.150  18.371  0.00  0.00    +0.000 C 
ATOM      6  C   UNL     1       2.179   2.210  18.439  0.00  0.00    +0.000 C 
ATOM      7  C   UNL     1       1.710   3.608  18.003  0.00  0.00    +0.000 C 
ATOM      8  C   UNL     1       2.363   4.687  18.866  0.00  0.00    +0.000 C 
ENDROOT
BRANCH   2   9
ATOM      9  C   UNL     1       6.017   5.425  17.915  0.00  0.00    +0.000 C 
BRANCH   9  10
ATOM     10  C   UNL     1       6.255   5.050  16.484  0.00  0.00    +0.000 A 
ATOM     11  C   UNL     1       7.183   5.574  15.608  0.00  0.00    +0.000 A 
ATOM     12  C   UNL     1       7.085   5.029  14.285  0.00  0.00    +0.000 A 
ATOM     13  C   UNL     1       7.829   5.313  13.114  0.00  0.00    +0.000 A 
ATOM     14  C   UNL     1       7.545   4.650  11.916  0.00  0.00    +0.000 A 
ATOM     15  C   UNL     1       6.533   3.702  11.864  0.00  0.00    +0.000 A 
ATOM     16  C   UNL     1       5.784   3.399  13.004  0.00  0.00    +0.000 A 
ATOM     17  C   UNL     1       6.069   4.075  14.206  0.00  0.00    +0.000 A 
ATOM     18  S   UNL     1       5.271   3.883  15.719  0.00  0.00    +0.000 S 
ENDBRANCH   9  10
ENDBRANCH   2   9
BRANCH   6  19
ATOM     19  O   UNL     1       1.768   1.888  19.781  0.00  0.00    +0.000 OA
BRANCH  19  20
ATOM     20  C   UNL     1       0.941   2.902  20.375  0.00  0.00    +0.000 C 
BRANCH  20  21
ATOM     21  C   UNL     1       1.522   3.329  21.717  0.00  0.00    +0.000 C 
BRANCH  21  22
ATOM     22  O   UNL     1       2.631   2.499  22.058  0.00  0.00    +0.000 OA
ATOM     23  H   UNL     1       3.407   2.916  21.637  0.00  0.00    +0.000 HD
ENDBRANCH  21  22
ENDBRANCH  20  21
ENDBRANCH  19  20
ENDBRANCH   6  19
TORSDOF 6
ENDMDL
MODEL 4
REMARK VINA RESULT:      -6.2      3.312      7.874
REMARK  Name = 
REMARK  6 active torsions:
REMARK  status: ('A' for Active; 'I' for Inactive)
REMARK    1  A    between atoms: C_2  and  C_3
REMARK    2  A    between atoms: C_3  and  C_4
REMARK    3  A    between atoms: C_16  and  O_17
REMARK    4  A    between atoms: O_17  and  C_18
REMARK    5  A    between atoms: C_18  and  C_19
REMARK    6  A    between atoms: C_19  and  O_20
REMARK                            x       y       z     vdW  Elec       q    Type
REMARK                         _______ _______ _______ _____ _____    ______ ____
ROOT
ATOM      1  O   UNL     1       5.769   5.557  19.714  0.00  0.00    +0.000 OA
ATOM      2  C   UNL     1       5.036   5.427  18.730  0.00  0.00    +0.000 C 
ATOM      3  N   UNL     1       5.528   5.495  17.432  0.00  0.00    +0.000 N 
ATOM      4  C   UNL     1       4.757   5.383  16.197  0.00  0.00    +0.000 C 
ATOM      5  C   UNL     1       5.212   4.159  15.401  0.00  0.00    +0.000 C 
ATOM      6  C   UNL     1       6.730   4.192  15.150  0.00  0.00    +0.000 C 
ATOM      7  C   UNL     1       7.459   4.344  16.495  0.00  0.00    +0.000 C 
ATOM      8  C   UNL     1       6.973   5.592  17.232  0.00  0.00    +0.000 C 
ENDROOT
BRANCH   2   9
ATOM      9  C   UNL     1       3.554   5.147  18.937  0.00  0.00    +0.000 C 
BRANCH   9  10
ATOM     10  C   UNL     1       2.811   6.399  19.291  0.00  0.00    +0.000 A 
ATOM     11  C   UNL     1       2.143   6.693  20.461  0.00  0.00    +0.000 A 
ATOM     12  C   UNL     1       1.478   7.964  20.431  0.00  0.00    +0.000 A 
ATOM     13  C   UNL     1       0.682   8.610  21.407  0.00  0.00    +0.000 A 
ATOM     14  C   UNL     1       0.122   9.865  21.147  0.00  0.00    +0.000 A 
ATOM     15  C   UNL     1       0.344  10.492  19.930  0.00  0.00    +0.000 A 
ATOM     16  C   UNL     1       1.127   9.879  18.948  0.00  0.00    +0.000 A 
ATOM     17  C   UNL     1       1.683   8.612  19.211  0.00  0.00    +0.000 A 
ATOM     18  S   UNL     1       2.655   7.664  18.154  0.00  0.00    +0.000 S 
ENDBRANCH   9  10
ENDBRANCH   2   9
BRANCH   6  19
ATOM     19  O   UNL     1       7.020   5.274  14.245  0.00  0.00    +0.000 OA
BRANCH  19  20
ATOM     20  C   UNL     1       7.351   4.827  12.920  0.00  0.00    +0.000 C 
BRANCH  20  21
ATOM     21  C   UNL     1       6.402   3.714  12.492  0.00  0.00    +0.000 C 
BRANCH  21  22
ATOM     22  O   UNL     1       7.126   2.680  11.828  0.00  0.00    +0.000 OA
ATOM     23  H   UNL     1       7.920   2.525  12.375  0.00  0.00    +0.000 HD
ENDBRANCH  21  22
ENDBRANCH  20  21
ENDBRANCH  19  20
ENDBRANCH   6  19
TORSDOF 6
ENDMDL
MODEL 5
REMARK VINA RESULT:      -6.0      3.422      7.897
REMARK  Name = 
REMARK  6 active torsions:
REMARK  status: ('A' for Active; 'I' for Inactive)
REMARK    1  A    between atoms: C_2  and  C_3
REMARK    2  A    between atoms: C_3  and  C_4
REMARK    3  A    between atoms: C_16  and  O_17
REMARK    4  A    between atoms: O_17  and  C_18
REMARK    5  A    between atoms: C_18  and  C_19
REMARK    6  A    between atoms: C_19  and  O_20
REMARK                            x       y       z     vdW  Elec       q    Type
REMARK                         _______ _______ _______ _____ _____    ______ ____
ROOT
ATOM      1  O   UNL     1       5.277   5.521  19.638  0.00  0.00    +0.000 OA
ATOM      2  C   UNL     1       4.739   5.557  18.529  0.00  0.00    +0.000 C 
ATOM      3  N   UNL     1       5.475   5.693  17.358  0.00  0.00    +0.000 N 
ATOM      4  C   UNL     1       4.948   5.774  15.998  0.00  0.00    +0.000 C 
ATOM      5  C   UNL     1       5.444   4.588  15.170  0.00  0.00    +0.000 C 
ATOM      6  C   UNL     1       6.980   4.490  15.205  0.00  0.00    +0.000 C 
ATOM      7  C   UNL     1       7.448   4.443  16.669  0.00  0.00    +0.000 C 
ATOM      8  C   UNL     1       6.934   5.661  17.436  0.00  0.00    +0.000 C 
ENDROOT
BRANCH   2   9
ATOM      9  C   UNL     1       3.226   5.411  18.431  0.00  0.00    +0.000 C 
BRANCH   9  10
ATOM     10  C   UNL     1       2.535   6.688  18.799  0.00  0.00    +0.000 A 
ATOM     11  C   UNL     1       2.334   7.806  18.017  0.00  0.00    +0.000 A 
ATOM     12  C   UNL     1       1.694   8.882  18.718  0.00  0.00    +0.000 A 
ATOM     13  C   UNL     1       1.336  10.181  18.282  0.00  0.00    +0.000 A 
ATOM     14  C   UNL     1       0.718  11.076  19.160  0.00  0.00    +0.000 A 
ATOM     15  C   UNL     1       0.443  10.699  20.467  0.00  0.00    +0.000 A 
ATOM     16  C   UNL     1       0.783   9.423  20.924  0.00  0.00    +0.000 A 
ATOM     17  C   UNL     1       1.412   8.526  20.038  0.00  0.00    +0.000 A 
ATOM     18  S   UNL     1       1.936   6.924  20.381  0.00  0.00    +0.000 S 
ENDBRANCH   9  10
ENDBRANCH   2   9
BRANCH   6  19
ATOM     19  O   UNL     1       7.526   5.615  14.491  0.00  0.00    +0.000 OA
BRANCH  19  20
ATOM     20  C   UNL     1       8.274   5.233  13.325  0.00  0.00    +0.000 C 
BRANCH  20  21
ATOM     21  C   UNL     1       7.336   5.060  12.137  0.00  0.00    +0.000 C 
BRANCH  21  22
ATOM     22  O   UNL     1       7.107   3.674  11.890  0.00  0.00    +0.000 OA
ATOM     23  H   UNL     1       6.683   3.631  11.011  0.00  0.00    +0.000 HD
ENDBRANCH  21  22
ENDBRANCH  20  21
ENDBRANCH  19  20
ENDBRANCH   6  19
TORSDOF 6
ENDMDL
MODEL 6
REMARK VINA RESULT:      -6.0      5.251      8.208
REMARK  Name = 
REMARK  6 active torsions:
REMARK  status: ('A' for Active; 'I' for Inactive)
REMARK    1  A    between atoms: C_2  and  C_3
REMARK    2  A    between atoms: C_3  and  C_4
REMARK    3  A    between atoms: C_16  and  O_17
REMARK    4  A    between atoms: O_17  and  C_18
REMARK    5  A    between atoms: C_18  and  C_19
REMARK    6  A    between atoms: C_19  and  O_20
REMARK                            x       y       z     vdW  Elec       q    Type
REMARK                         _______ _______ _______ _____ _____    ______ ____
ROOT
ATOM      1  O   UNL     1       0.259   8.677  21.424  0.00  0.00    +0.000 OA
ATOM      2  C   UNL     1       1.055   8.638  20.483  0.00  0.00    +0.000 C 
ATOM      3  N   UNL     1       1.840   7.519  20.230  0.00  0.00    +0.000 N 
ATOM      4  C   UNL     1       2.832   7.368  19.167  0.00  0.00    +0.000 C 
ATOM      5  C   UNL     1       2.418   6.242  18.218  0.00  0.00    +0.000 C 
ATOM      6  C   UNL     1       2.168   4.932  18.985  0.00  0.00    +0.000 C 
ATOM      7  C   UNL     1       1.141   5.190  20.101  0.00  0.00    +0.000 C 
ATOM      8  C   UNL     1       1.620   6.311  21.023  0.00  0.00    +0.000 C 
ENDROOT
BRANCH   2   9
ATOM      9  C   UNL     1       1.159   9.832  19.544  0.00  0.00    +0.000 C 
BRANCH   9  10
ATOM     10  C   UNL     1      -0.152  10.107  18.874  0.00  0.00    +0.000 A 
ATOM     11  C   UNL     1      -0.617   9.609  17.674  0.00  0.00    +0.000 A 
ATOM     12  C   UNL     1      -1.894  10.143  17.295  0.00  0.00    +0.000 A 
ATOM     13  C   UNL     1      -2.687   9.905  16.147  0.00  0.00    +0.000 A 
ATOM     14  C   UNL     1      -3.914  10.556  15.987  0.00  0.00    +0.000 A 
ATOM     15  C   UNL     1      -4.370  11.439  16.955  0.00  0.00    +0.000 A 
ATOM     16  C   UNL     1      -3.609  11.691  18.100  0.00  0.00    +0.000 A 
ATOM     17  C   UNL     1      -2.370  11.039  18.254  0.00  0.00    +0.000 A 
ATOM     18  S   UNL     1      -1.262  11.209  19.559  0.00  0.00    +0.000 S 
ENDBRANCH   9  10
ENDBRANCH   2   9
BRANCH   6  19
ATOM     19  O   UNL     1       3.426   4.456  19.498  0.00  0.00    +0.000 OA
BRANCH  19  20
ATOM     20  C   UNL     1       3.327   3.165  20.122  0.00  0.00    +0.000 C 
BRANCH  20  21
ATOM     21  C   UNL     1       4.206   2.161  19.385  0.00  0.00    +0.000 C 
BRANCH  21  22
ATOM     22  O   UNL     1       5.166   1.601  20.279  0.00  0.00    +0.000 OA
ATOM     23  H   UNL     1       5.921   2.220  20.273  0.00  0.00    +0.000 HD
ENDBRANCH  21  22
ENDBRANCH  20  21
ENDBRANCH  19  20
ENDBRANCH   6  19
TORSDOF 6
ENDMDL
MODEL 7
REMARK VINA RESULT:      -5.9      3.436      7.342
REMARK  Name = 
REMARK  6 active torsions:
REMARK  status: ('A' for Active; 'I' for Inactive)
REMARK    1  A    between atoms: C_2  and  C_3
REMARK    2  A    between atoms: C_3  and  C_4
REMARK    3  A    between atoms: C_16  and  O_17
REMARK    4  A    between atoms: O_17  and  C_18
REMARK    5  A    between atoms: C_18  and  C_19
REMARK    6  A    between atoms: C_19  and  O_20
REMARK                            x       y       z     vdW  Elec       q    Type
REMARK                         _______ _______ _______ _____ _____    ______ ____
ROOT
ATOM      1  O   UNL     1       1.227   3.800  19.215  0.00  0.00    +0.000 OA
ATOM      2  C   UNL     1       2.227   4.425  19.576  0.00  0.00    +0.000 C 
ATOM      3  N   UNL     1       3.443   4.315  18.913  0.00  0.00    +0.000 N 
ATOM      4  C   UNL     1       4.694   4.982  19.263  0.00  0.00    +0.000 C 
ATOM      5  C   UNL     1       5.127   5.917  18.132  0.00  0.00    +0.000 C 
ATOM      6  C   UNL     1       5.212   5.166  16.792  0.00  0.00    +0.000 C 
ATOM      7  C   UNL     1       3.868   4.469  16.520  0.00  0.00    +0.000 C 
ATOM      8  C   UNL     1       3.501   3.539  17.676  0.00  0.00    +0.000 C 
ENDROOT
BRANCH   2   9
ATOM      9  C   UNL     1       2.123   5.376  20.762  0.00  0.00    +0.000 C 
BRANCH   9  10
ATOM     10  C   UNL     1       1.823   6.771  20.309  0.00  0.00    +0.000 A 
ATOM     11  C   UNL     1       2.115   7.356  19.095  0.00  0.00    +0.000 A 
ATOM     12  C   UNL     1       1.746   8.741  19.028  0.00  0.00    +0.000 A 
ATOM     13  C   UNL     1       1.893   9.684  17.982  0.00  0.00    +0.000 A 
ATOM     14  C   UNL     1       1.458  11.002  18.150  0.00  0.00    +0.000 A 
ATOM     15  C   UNL     1       0.872  11.399  19.344  0.00  0.00    +0.000 A 
ATOM     16  C   UNL     1       0.712  10.489  20.392  0.00  0.00    +0.000 A 
ATOM     17  C   UNL     1       1.158   9.164  20.221  0.00  0.00    +0.000 A 
ATOM     18  S   UNL     1       1.084   7.887  21.371  0.00  0.00    +0.000 S 
ENDBRANCH   9  10
ENDBRANCH   2   9
BRANCH   6  19
ATOM     19  O   UNL     1       6.308   4.235  16.859  0.00  0.00    +0.000 OA
BRANCH  19  20
ATOM     20  C   UNL     1       7.347   4.519  15.908  0.00  0.00    +0.000 C 
BRANCH  20  21
ATOM     21  C   UNL     1       6.751   4.675  14.514  0.00  0.00    +0.000 C 
BRANCH  21  22
ATOM     22  O   UNL     1       6.307   3.410  14.026  0.00  0.00    +0.000 OA
ATOM     23  H   UNL     1       5.585   3.610  13.401  0.00  0.00    +0.000 HD
ENDBRANCH  21  22
ENDBRANCH  20  21
ENDBRANCH  19  20
ENDBRANCH   6  19
TORSDOF 6
ENDMDL
MODEL 8
REMARK VINA RESULT:      -5.9      3.175      4.833
REMARK  Name = 
REMARK  6 active torsions:
REMARK  status: ('A' for Active; 'I' for Inactive)
REMARK    1  A    between atoms: C_2  and  C_3
REMARK    2  A    between atoms: C_3  and  C_4
REMARK    3  A    between atoms: C_16  and  O_17
REMARK    4  A    between atoms: O_17  and  C_18
REMARK    5  A    between atoms: C_18  and  C_19
REMARK    6  A    between atoms: C_19  and  O_20
REMARK                            x       y       z     vdW  Elec       q    Type
REMARK                         _______ _______ _______ _____ _____    ______ ____
ROOT
ATOM      1  O   UNL     1       2.348   1.950  18.604  0.00  0.00    +0.000 OA
ATOM      2  C   UNL     1       2.528   3.096  18.184  0.00  0.00    +0.000 C 
ATOM      3  N   UNL     1       1.982   4.206  18.818  0.00  0.00    +0.000 N 
ATOM      4  C   UNL     1       2.104   5.600  18.400  0.00  0.00    +0.000 C 
ATOM      5  C   UNL     1       2.838   6.408  19.472  0.00  0.00    +0.000 C 
ATOM      6  C   UNL     1       2.158   6.259  20.844  0.00  0.00    +0.000 C 
ATOM      7  C   UNL     1       2.041   4.764  21.187  0.00  0.00    +0.000 C 
ATOM      8  C   UNL     1       1.285   4.018  20.089  0.00  0.00    +0.000 C 
ENDROOT
BRANCH   2   9
ATOM      9  C   UNL     1       3.406   3.311  16.958  0.00  0.00    +0.000 C 
BRANCH   9  10
ATOM     10  C   UNL     1       4.560   4.211  17.272  0.00  0.00    +0.000 A 
ATOM     11  C   UNL     1       5.424   4.148  18.345  0.00  0.00    +0.000 A 
ATOM     12  C   UNL     1       6.377   5.221  18.371  0.00  0.00    +0.000 A 
ATOM     13  C   UNL     1       7.402   5.520  19.300  0.00  0.00    +0.000 A 
ATOM     14  C   UNL     1       8.217   6.642  19.120  0.00  0.00    +0.000 A 
ATOM     15  C   UNL     1       8.032   7.472  18.023  0.00  0.00    +0.000 A 
ATOM     16  C   UNL     1       7.030   7.200  17.088  0.00  0.00    +0.000 A 
ATOM     17  C   UNL     1       6.207   6.073  17.278  0.00  0.00    +0.000 A 
ATOM     18  S   UNL     1       4.907   5.556  16.277  0.00  0.00    +0.000 S 
ENDBRANCH   9  10
ENDBRANCH   2   9
BRANCH   6  19
ATOM     19  O   UNL     1       0.875   6.910  20.791  0.00  0.00    +0.000 OA
BRANCH  19  20
ATOM     20  C   UNL     1       0.964   8.339  20.911  0.00  0.00    +0.000 C 
BRANCH  20  21
ATOM     21  C   UNL     1      -0.035   8.839  21.947  0.00  0.00    +0.000 C 
BRANCH  21  22
ATOM     22  O   UNL     1       0.591   9.782  22.816  0.00  0.00    +0.000 OA
ATOM     23  H   UNL     1       1.544   9.574  22.784  0.00  0.00    +0.000 HD
ENDBRANCH  21  22
ENDBRANCH  20  21
ENDBRANCH  19  20
ENDBRANCH   6  19
TORSDOF 6
ENDMDL
MODEL 9
REMARK VINA RESULT:      -5.9      5.060      8.228
REMARK  Name = 
REMARK  6 active torsions:
REMARK  status: ('A' for Active; 'I' for Inactive)
REMARK    1  A    between atoms: C_2  and  C_3
REMARK    2  A    between atoms: C_3  and  C_4
REMARK    3  A    between atoms: C_16  and  O_17
REMARK    4  A    between atoms: O_17  and  C_18
REMARK    5  A    between atoms: C_18  and  C_19
REMARK    6  A    between atoms: C_19  and  O_20
REMARK                            x       y       z     vdW  Elec       q    Type
REMARK                         _______ _______ _______ _____ _____    ______ ____
ROOT
ATOM      1  O   UNL     1       0.763   8.256  21.430  0.00  0.00    +0.000 OA
ATOM      2  C   UNL     1       1.457   8.274  20.411  0.00  0.00    +0.000 C 
ATOM      3  N   UNL     1       2.142   7.149  19.968  0.00  0.00    +0.000 N 
ATOM      4  C   UNL     1       3.010   7.058  18.796  0.00  0.00    +0.000 C 
ATOM      5  C   UNL     1       2.434   6.059  17.791  0.00  0.00    +0.000 C 
ATOM      6  C   UNL     1       2.182   4.691  18.448  0.00  0.00    +0.000 C 
ATOM      7  C   UNL     1       1.291   4.884  19.687  0.00  0.00    +0.000 C 
ATOM      8  C   UNL     1       1.928   5.878  20.658  0.00  0.00    +0.000 C 
ENDROOT
BRANCH   2   9
ATOM      9  C   UNL     1       1.539   9.552  19.588  0.00  0.00    +0.000 C 
BRANCH   9  10
ATOM     10  C   UNL     1       0.205   9.906  19.006  0.00  0.00    +0.000 A 
ATOM     11  C   UNL     1      -0.334   9.505  17.801  0.00  0.00    +0.000 A 
ATOM     12  C   UNL     1      -1.612  10.096  17.526  0.00  0.00    +0.000 A 
ATOM     13  C   UNL     1      -2.468   9.959  16.407  0.00  0.00    +0.000 A 
ATOM     14  C   UNL     1      -3.683  10.651  16.355  0.00  0.00    +0.000 A 
ATOM     15  C   UNL     1      -4.063  11.476  17.404  0.00  0.00    +0.000 A 
ATOM     16  C   UNL     1      -3.239  11.629  18.522  0.00  0.00    +0.000 A 
ATOM     17  C   UNL     1      -2.014  10.936  18.566  0.00  0.00    +0.000 A 
ATOM     18  S   UNL     1      -0.838  10.986  19.821  0.00  0.00    +0.000 S 
ENDBRANCH   9  10
ENDBRANCH   2   9
BRANCH   6  19
ATOM     19  O   UNL     1       3.454   4.101  18.776  0.00  0.00    +0.000 OA
BRANCH  19  20
ATOM     20  C   UNL     1       3.952   3.229  17.748  0.00  0.00    +0.000 C 
BRANCH  20  21
ATOM     21  C   UNL     1       4.863   4.003  16.803  0.00  0.00    +0.000 C 
BRANCH  21  22
ATOM     22  O   UNL     1       5.822   3.124  16.217  0.00  0.00    +0.000 OA
ATOM     23  H   UNL     1       6.018   3.500  15.338  0.00  0.00    +0.000 HD
ENDBRANCH  21  22
ENDBRANCH  20  21
ENDBRANCH  19  20
ENDBRANCH   6  19
TORSDOF 6
ENDMDL
