MODEL 1
REMARK VINA RESULT:      -8.2      0.000      0.000
REMARK  Name = 
REMARK  5 active torsions:
REMARK  status: ('A' for Active; 'I' for Inactive)
REMARK    1  A    between atoms: O_1  and  C_2
REMARK    2  A    between atoms: C_7  and  C_8
REMARK    3  A    between atoms: C_8  and  C_9
REMARK    4  A    between atoms: C_17  and  C_18
REMARK    5  A    between atoms: C_18  and  N_19
REMARK                            x       y       z     vdW  Elec       q    Type
REMARK                         _______ _______ _______ _____ _____    ______ ____
ROOT
ATOM      1  C   UNL     1       2.748   5.970  19.784  0.00  0.00    +0.000 A 
ATOM      2  C   UNL     1       2.458   7.129  19.052  0.00  0.00    +0.000 A 
ATOM      3  C   UNL     1       3.113   7.404  17.852  0.00  0.00    +0.000 A 
ATOM      4  C   UNL     1       4.106   6.505  17.477  0.00  0.00    +0.000 A 
ATOM      5  N   UNL     1       5.021   6.538  16.460  0.00  0.00    +0.000 N 
ATOM      6  C   UNL     1       5.866   5.465  16.606  0.00  0.00    +0.000 A 
ATOM      7  N   UNL     1       5.448   4.677  17.576  0.00  0.00    +0.000 NA
ATOM      8  C   UNL     1       4.388   5.327  18.170  0.00  0.00    +0.000 A 
ATOM      9  C   UNL     1       3.663   4.988  19.339  0.00  0.00    +0.000 A 
ATOM     10  H   UNL     1       5.143   7.293  15.800  0.00  0.00    +0.000 HD
ENDROOT
BRANCH   1  11
ATOM     11  O   UNL     1       2.155   5.813  21.010  0.00  0.00    +0.000 OA
ATOM     12  H   UNL     1       2.846   5.731  21.688  0.00  0.00    +0.000 HD
ENDBRANCH   1  11
BRANCH   6  13
ATOM     13  C   UNL     1       7.131   5.331  15.812  0.00  0.00    +0.000 C 
BRANCH  13  14
ATOM     14  C   UNL     1       6.909   4.793  14.408  0.00  0.00    +0.000 A 
ATOM     15  C   UNL     1       7.741   5.165  13.338  0.00  0.00    +0.000 A 
ATOM     16  C   UNL     1       7.518   4.669  12.051  0.00  0.00    +0.000 A 
ATOM     17  C   UNL     1       6.481   3.771  11.821  0.00  0.00    +0.000 A 
ATOM     18  C   UNL     1       5.674   3.356  12.880  0.00  0.00    +0.000 A 
ATOM     19  C   UNL     1       5.891   3.859  14.166  0.00  0.00    +0.000 A 
ENDBRANCH  13  14
ENDBRANCH   6  13
BRANCH   9  20
ATOM     20  C   UNL     1       3.942   3.722  20.121  0.00  0.00    +0.000 C 
BRANCH  20  21
ATOM     21  N   UNL     1       3.172   2.504  19.811  0.00  0.00    +0.000 NA
ATOM     22  C   UNL     1       3.406   1.931  18.487  0.00  0.00    +0.000 C 
ATOM     23  C   UNL     1       2.218   2.370  17.653  0.00  0.00    +0.000 C 
ATOM     24  C   UNL     1       1.073   2.353  18.649  0.00  0.00    +0.000 C 
ATOM     25  C   UNL     1       1.726   2.602  20.005  0.00  0.00    +0.000 C 
ENDBRANCH  20  21
ENDBRANCH   9  20
TORSDOF 5
ENDMDL
MODEL 2
REMARK VINA RESULT:      -8.1      0.080      1.009
REMARK  Name = 
REMARK  5 active torsions:
REMARK  status: ('A' for Active; 'I' for Inactive)
REMARK    1  A    between atoms: O_1  and  C_2
REMARK    2  A    between atoms: C_7  and  C_8
REMARK    3  A    between atoms: C_8  and  C_9
REMARK    4  A    between atoms: C_17  and  C_18
REMARK    5  A    between atoms: C_18  and  N_19
REMARK                            x       y       z     vdW  Elec       q    Type
REMARK                         _______ _______ _______ _____ _____    ______ ____
ROOT
ATOM      1  C   UNL     1       2.734   5.998  19.755  0.00  0.00    +0.000 A 
ATOM      2  C   UNL     1       2.463   7.164  19.025  0.00  0.00    +0.000 A 
ATOM      3  C   UNL     1       3.133   7.438  17.834  0.00  0.00    +0.000 A 
ATOM      4  C   UNL     1       4.122   6.532  17.465  0.00  0.00    +0.000 A 
ATOM      5  N   UNL     1       5.048   6.560  16.459  0.00  0.00    +0.000 N 
ATOM      6  C   UNL     1       5.882   5.479  16.609  0.00  0.00    +0.000 A 
ATOM      7  N   UNL     1       5.446   4.691  17.571  0.00  0.00    +0.000 NA
ATOM      8  C   UNL     1       4.385   5.348  18.156  0.00  0.00    +0.000 A 
ATOM      9  C   UNL     1       3.644   5.010  19.315  0.00  0.00    +0.000 A 
ATOM     10  H   UNL     1       5.185   7.318  15.804  0.00  0.00    +0.000 HD
ENDROOT
BRANCH   1  11
ATOM     11  O   UNL     1       2.126   5.841  20.974  0.00  0.00    +0.000 OA
ATOM     12  H   UNL     1       2.780   5.519  21.615  0.00  0.00    +0.000 HD
ENDBRANCH   1  11
BRANCH   6  13
ATOM     13  C   UNL     1       7.154   5.338  15.829  0.00  0.00    +0.000 C 
BRANCH  13  14
ATOM     14  C   UNL     1       6.946   4.786  14.428  0.00  0.00    +0.000 A 
ATOM     15  C   UNL     1       5.905   3.888  14.138  0.00  0.00    +0.000 A 
ATOM     16  C   UNL     1       5.733   3.382  12.848  0.00  0.00    +0.000 A 
ATOM     17  C   UNL     1       6.579   3.790  11.821  0.00  0.00    +0.000 A 
ATOM     18  C   UNL     1       7.589   4.716  12.082  0.00  0.00    +0.000 A 
ATOM     19  C   UNL     1       7.767   5.215  13.374  0.00  0.00    +0.000 A 
ENDBRANCH  13  14
ENDBRANCH   6  13
BRANCH   9  20
ATOM     20  C   UNL     1       3.903   3.739  20.095  0.00  0.00    +0.000 C 
BRANCH  20  21
ATOM     21  N   UNL     1       3.146   2.521  19.752  0.00  0.00    +0.000 NA
ATOM     22  C   UNL     1       3.307   2.045  18.380  0.00  0.00    +0.000 C 
ATOM     23  C   UNL     1       2.056   2.502  17.655  0.00  0.00    +0.000 C 
ATOM     24  C   UNL     1       0.980   2.386  18.719  0.00  0.00    +0.000 C 
ATOM     25  C   UNL     1       1.714   2.564  20.044  0.00  0.00    +0.000 C 
ENDBRANCH  20  21
ENDBRANCH   9  20
TORSDOF 5
ENDMDL
MODEL 3
REMARK VINA RESULT:      -7.9      0.871      1.167
REMARK  Name = 
REMARK  5 active torsions:
REMARK  status: ('A' for Active; 'I' for Inactive)
REMARK    1  A    between atoms: O_1  and  C_2
REMARK    2  A    between atoms: C_7  and  C_8
REMARK    3  A    between atoms: C_8  and  C_9
REMARK    4  A    between atoms: C_17  and  C_18
REMARK    5  A    between atoms: C_18  and  N_19
REMARK                            x       y       z     vdW  Elec       q    Type
REMARK                         _______ _______ _______ _____ _____    ______ ____
ROOT
ATOM      1  C   UNL     1       2.715   6.725  19.490  0.00  0.00    +0.000 A 
ATOM      2  C   UNL     1       2.462   7.744  18.562  0.00  0.00    +0.000 A 
ATOM      3  C   UNL     1       3.154   7.802  17.352  0.00  0.00    +0.000 A 
ATOM      4  C   UNL     1       4.142   6.842  17.165  0.00  0.00    +0.000 A 
ATOM      5  N   UNL     1       5.084   6.689  16.185  0.00  0.00    +0.000 N 
ATOM      6  C   UNL     1       5.910   5.649  16.538  0.00  0.00    +0.000 A 
ATOM      7  N   UNL     1       5.454   5.045  17.616  0.00  0.00    +0.000 NA
ATOM      8  C   UNL     1       4.388   5.798  18.059  0.00  0.00    +0.000 A 
ATOM      9  C   UNL     1       3.627   5.672  19.247  0.00  0.00    +0.000 A 
ATOM     10  H   UNL     1       5.236   7.319  15.409  0.00  0.00    +0.000 HD
ENDROOT
BRANCH   1  11
ATOM     11  O   UNL     1       2.087   6.788  20.707  0.00  0.00    +0.000 OA
ATOM     12  H   UNL     1       2.337   6.010  21.233  0.00  0.00    +0.000 HD
ENDBRANCH   1  11
BRANCH   6  13
ATOM     13  C   UNL     1       7.193   5.369  15.816  0.00  0.00    +0.000 C 
BRANCH  13  14
ATOM     14  C   UNL     1       6.990   4.838  14.406  0.00  0.00    +0.000 A 
ATOM     15  C   UNL     1       7.788   5.272  13.334  0.00  0.00    +0.000 A 
ATOM     16  C   UNL     1       7.582   4.781  12.042  0.00  0.00    +0.000 A 
ATOM     17  C   UNL     1       6.597   3.827  11.809  0.00  0.00    +0.000 A 
ATOM     18  C   UNL     1       5.826   3.351  12.869  0.00  0.00    +0.000 A 
ATOM     19  C   UNL     1       6.026   3.848  14.160  0.00  0.00    +0.000 A 
ENDBRANCH  13  14
ENDBRANCH   6  13
BRANCH   9  20
ATOM     20  C   UNL     1       3.866   4.558  20.243  0.00  0.00    +0.000 C 
BRANCH  20  21
ATOM     21  N   UNL     1       3.086   3.312  20.125  0.00  0.00    +0.000 NA
ATOM     22  C   UNL     1       1.900   3.390  19.276  0.00  0.00    +0.000 C 
ATOM     23  C   UNL     1       0.734   3.517  20.237  0.00  0.00    +0.000 C 
ATOM     24  C   UNL     1       1.164   2.661  21.414  0.00  0.00    +0.000 C 
ATOM     25  C   UNL     1       2.689   2.693  21.389  0.00  0.00    +0.000 C 
ENDBRANCH  20  21
ENDBRANCH   9  20
TORSDOF 5
ENDMDL
MODEL 4
REMARK VINA RESULT:      -7.9      2.651      6.842
REMARK  Name = 
REMARK  5 active torsions:
REMARK  status: ('A' for Active; 'I' for Inactive)
REMARK    1  A    between atoms: O_1  and  C_2
REMARK    2  A    between atoms: C_7  and  C_8
REMARK    3  A    between atoms: C_8  and  C_9
REMARK    4  A    between atoms: C_17  and  C_18
REMARK    5  A    between atoms: C_18  and  N_19
REMARK                            x       y       z     vdW  Elec       q    Type
REMARK                         _______ _______ _______ _____ _____    ______ ____
ROOT
ATOM      1  C   UNL     1       4.366   3.027  19.249  0.00  0.00    +0.000 A 
ATOM      2  C   UNL     1       3.129   2.581  18.765  0.00  0.00    +0.000 A 
ATOM      3  C   UNL     1       2.235   3.462  18.158  0.00  0.00    +0.000 A 
ATOM      4  C   UNL     1       2.615   4.799  18.133  0.00  0.00    +0.000 A 
ATOM      5  N   UNL     1       1.940   5.927  17.752  0.00  0.00    +0.000 N 
ATOM      6  C   UNL     1       2.721   7.018  18.047  0.00  0.00    +0.000 A 
ATOM      7  N   UNL     1       3.911   6.634  18.462  0.00  0.00    +0.000 NA
ATOM      8  C   UNL     1       3.855   5.262  18.577  0.00  0.00    +0.000 A 
ATOM      9  C   UNL     1       4.812   4.362  19.107  0.00  0.00    +0.000 A 
ATOM     10  H   UNL     1       0.979   5.963  17.440  0.00  0.00    +0.000 HD
ENDROOT
BRANCH   1  11
ATOM     11  O   UNL     1       5.152   2.138  19.936  0.00  0.00    +0.000 OA
ATOM     12  H   UNL     1       5.181   1.299  19.447  0.00  0.00    +0.000 HD
ENDBRANCH   1  11
BRANCH   6  13
ATOM     13  C   UNL     1       2.190   8.418  17.989  0.00  0.00    +0.000 C 
BRANCH  13  14
ATOM     14  C   UNL     1       1.404   8.819  19.228  0.00  0.00    +0.000 A 
ATOM     15  C   UNL     1       1.609   8.186  20.465  0.00  0.00    +0.000 A 
ATOM     16  C   UNL     1       0.872   8.560  21.592  0.00  0.00    +0.000 A 
ATOM     17  C   UNL     1      -0.057   9.592  21.506  0.00  0.00    +0.000 A 
ATOM     18  C   UNL     1      -0.240  10.262  20.296  0.00  0.00    +0.000 A 
ATOM     19  C   UNL     1       0.491   9.882  19.167  0.00  0.00    +0.000 A 
ENDBRANCH  13  14
ENDBRANCH   6  13
BRANCH   9  20
ATOM     20  C   UNL     1       6.165   4.824  19.603  0.00  0.00    +0.000 C 
BRANCH  20  21
ATOM     21  N   UNL     1       7.262   4.999  18.634  0.00  0.00    +0.000 NA
ATOM     22  C   UNL     1       7.835   6.341  18.566  0.00  0.00    +0.000 C 
ATOM     23  C   UNL     1       7.224   6.968  17.328  0.00  0.00    +0.000 C 
ATOM     24  C   UNL     1       7.105   5.796  16.372  0.00  0.00    +0.000 C 
ATOM     25  C   UNL     1       6.972   4.569  17.266  0.00  0.00    +0.000 C 
ENDBRANCH  20  21
ENDBRANCH   9  20
TORSDOF 5
ENDMDL
MODEL 5
REMARK VINA RESULT:      -7.9      2.650      6.832
REMARK  Name = 
REMARK  5 active torsions:
REMARK  status: ('A' for Active; 'I' for Inactive)
REMARK    1  A    between atoms: O_1  and  C_2
REMARK    2  A    between atoms: C_7  and  C_8
REMARK    3  A    between atoms: C_8  and  C_9
REMARK    4  A    between atoms: C_17  and  C_18
REMARK    5  A    between atoms: C_18  and  N_19
REMARK                            x       y       z     vdW  Elec       q    Type
REMARK                         _______ _______ _______ _____ _____    ______ ____
ROOT
ATOM      1  C   UNL     1       4.299   2.997  19.191  0.00  0.00    +0.000 A 
ATOM      2  C   UNL     1       3.049   2.576  18.717  0.00  0.00    +0.000 A 
ATOM      3  C   UNL     1       2.160   3.478  18.133  0.00  0.00    +0.000 A 
ATOM      4  C   UNL     1       2.561   4.809  18.119  0.00  0.00    +0.000 A 
ATOM      5  N   UNL     1       1.899   5.952  17.760  0.00  0.00    +0.000 N 
ATOM      6  C   UNL     1       2.700   7.027  18.059  0.00  0.00    +0.000 A 
ATOM      7  N   UNL     1       3.890   6.620  18.453  0.00  0.00    +0.000 NA
ATOM      8  C   UNL     1       3.813   5.247  18.552  0.00  0.00    +0.000 A 
ATOM      9  C   UNL     1       4.763   4.326  19.060  0.00  0.00    +0.000 A 
ATOM     10  H   UNL     1       0.935   6.006  17.461  0.00  0.00    +0.000 HD
ENDROOT
BRANCH   1  11
ATOM     11  O   UNL     1       5.078   2.087  19.857  0.00  0.00    +0.000 OA
ATOM     12  H   UNL     1       5.725   1.711  19.238  0.00  0.00    +0.000 HD
ENDBRANCH   1  11
BRANCH   6  13
ATOM     13  C   UNL     1       2.190   8.436  18.024  0.00  0.00    +0.000 C 
BRANCH  13  14
ATOM     14  C   UNL     1       1.414   8.829  19.271  0.00  0.00    +0.000 A 
ATOM     15  C   UNL     1       0.453   9.854  19.246  0.00  0.00    +0.000 A 
ATOM     16  C   UNL     1      -0.246  10.210  20.402  0.00  0.00    +0.000 A 
ATOM     17  C   UNL     1      -0.017   9.526  21.592  0.00  0.00    +0.000 A 
ATOM     18  C   UNL     1       0.901   8.476  21.623  0.00  0.00    +0.000 A 
ATOM     19  C   UNL     1       1.606   8.126  20.469  0.00  0.00    +0.000 A 
ENDBRANCH  13  14
ENDBRANCH   6  13
BRANCH   9  20
ATOM     20  C   UNL     1       6.129   4.762  19.544  0.00  0.00    +0.000 C 
BRANCH  20  21
ATOM     21  N   UNL     1       7.219   4.923  18.564  0.00  0.00    +0.000 NA
ATOM     22  C   UNL     1       7.867   6.232  18.553  0.00  0.00    +0.000 C 
ATOM     23  C   UNL     1       7.274   6.955  17.360  0.00  0.00    +0.000 C 
ATOM     24  C   UNL     1       7.072   5.842  16.349  0.00  0.00    +0.000 C 
ATOM     25  C   UNL     1       6.883   4.580  17.183  0.00  0.00    +0.000 C 
ENDBRANCH  20  21
ENDBRANCH   9  20
TORSDOF 5
ENDMDL
MODEL 6
REMARK VINA RESULT:      -7.7      1.896      2.903
REMARK  Name = 
REMARK  5 active torsions:
REMARK  status: ('A' for Active; 'I' for Inactive)
REMARK    1  A    between atoms: O_1  and  C_2
REMARK    2  A    between atoms: C_7  and  C_8
REMARK    3  A    between atoms: C_8  and  C_9
REMARK    4  A    between atoms: C_17  and  C_18
REMARK    5  A    between atoms: C_18  and  N_19
REMARK                            x       y       z     vdW  Elec       q    Type
REMARK                         _______ _______ _______ _____ _____    ______ ____
ROOT
ATOM      1  C   UNL     1       5.664   4.485  18.879  0.00  0.00    +0.000 A 
ATOM      2  C   UNL     1       6.640   5.480  19.021  0.00  0.00    +0.000 A 
ATOM      3  C   UNL     1       7.253   6.050  17.905  0.00  0.00    +0.000 A 
ATOM      4  C   UNL     1       6.888   5.523  16.671  0.00  0.00    +0.000 A 
ATOM      5  N   UNL     1       7.378   5.741  15.412  0.00  0.00    +0.000 N 
ATOM      6  C   UNL     1       6.757   4.869  14.551  0.00  0.00    +0.000 A 
ATOM      7  N   UNL     1       5.799   4.212  15.172  0.00  0.00    +0.000 NA
ATOM      8  C   UNL     1       5.894   4.558  16.503  0.00  0.00    +0.000 A 
ATOM      9  C   UNL     1       5.197   4.039  17.621  0.00  0.00    +0.000 A 
ATOM     10  H   UNL     1       8.160   6.337  15.178  0.00  0.00    +0.000 HD
ENDROOT
BRANCH   1  11
ATOM     11  O   UNL     1       5.183   3.883  20.014  0.00  0.00    +0.000 OA
ATOM     12  H   UNL     1       5.800   3.185  20.288  0.00  0.00    +0.000 HD
ENDBRANCH   1  11
BRANCH   6  13
ATOM     13  C   UNL     1       7.229   4.666  13.143  0.00  0.00    +0.000 C 
BRANCH  13  14
ATOM     14  C   UNL     1       6.383   3.677  12.357  0.00  0.00    +0.000 A 
ATOM     15  C   UNL     1       6.915   2.465  11.887  0.00  0.00    +0.000 A 
ATOM     16  C   UNL     1       6.127   1.571  11.158  0.00  0.00    +0.000 A 
ATOM     17  C   UNL     1       4.788   1.862  10.915  0.00  0.00    +0.000 A 
ATOM     18  C   UNL     1       4.232   3.040  11.414  0.00  0.00    +0.000 A 
ATOM     19  C   UNL     1       5.022   3.938  12.135  0.00  0.00    +0.000 A 
ENDBRANCH  13  14
ENDBRANCH   6  13
BRANCH   9  20
ATOM     20  C   UNL     1       4.116   2.989  17.481  0.00  0.00    +0.000 C 
BRANCH  20  21
ATOM     21  N   UNL     1       2.705   3.414  17.434  0.00  0.00    +0.000 NA
ATOM     22  C   UNL     1       2.454   4.805  17.806  0.00  0.00    +0.000 C 
ATOM     23  C   UNL     1       1.935   4.744  19.229  0.00  0.00    +0.000 C 
ATOM     24  C   UNL     1       1.128   3.459  19.247  0.00  0.00    +0.000 C 
ATOM     25  C   UNL     1       1.767   2.577  18.180  0.00  0.00    +0.000 C 
ENDBRANCH  20  21
ENDBRANCH   9  20
TORSDOF 5
ENDMDL
MODEL 7
REMARK VINA RESULT:      -7.7      1.862      2.897
REMARK  Name = 
REMARK  5 active torsions:
REMARK  status: ('A' for Active; 'I' for Inactive)
REMARK    1  A    between atoms: O_1  and  C_2
REMARK    2  A    between atoms: C_7  and  C_8
REMARK    3  A    between atoms: C_8  and  C_9
REMARK    4  A    between atoms: C_17  and  C_18
REMARK    5  A    between atoms: C_18  and  N_19
REMARK                            x       y       z     vdW  Elec       q    Type
REMARK                         _______ _______ _______ _____ _____    ______ ____
ROOT
ATOM      1  C   UNL     1       5.661   4.582  18.964  0.00  0.00    +0.000 A 
ATOM      2  C   UNL     1       6.611   5.605  19.081  0.00  0.00    +0.000 A 
ATOM      3  C   UNL     1       7.218   6.155  17.952  0.00  0.00    +0.000 A 
ATOM      4  C   UNL     1       6.877   5.579  16.733  0.00  0.00    +0.000 A 
ATOM      5  N   UNL     1       7.372   5.769  15.471  0.00  0.00    +0.000 N 
ATOM      6  C   UNL     1       6.780   4.854  14.634  0.00  0.00    +0.000 A 
ATOM      7  N   UNL     1       5.834   4.193  15.269  0.00  0.00    +0.000 NA
ATOM      8  C   UNL     1       5.910   4.584  16.588  0.00  0.00    +0.000 A 
ATOM      9  C   UNL     1       5.216   4.084  17.718  0.00  0.00    +0.000 A 
ATOM     10  H   UNL     1       8.140   6.377  15.223  0.00  0.00    +0.000 HD
ENDROOT
BRANCH   1  11
ATOM     11  O   UNL     1       5.186   4.005  20.114  0.00  0.00    +0.000 OA
ATOM     12  H   UNL     1       5.722   3.222  20.320  0.00  0.00    +0.000 HD
ENDBRANCH   1  11
BRANCH   6  13
ATOM     13  C   UNL     1       7.269   4.618  13.237  0.00  0.00    +0.000 C 
BRANCH  13  14
ATOM     14  C   UNL     1       6.384   3.676  12.437  0.00  0.00    +0.000 A 
ATOM     15  C   UNL     1       5.042   3.986  12.159  0.00  0.00    +0.000 A 
ATOM     16  C   UNL     1       4.238   3.106  11.431  0.00  0.00    +0.000 A 
ATOM     17  C   UNL     1       4.773   1.916  10.944  0.00  0.00    +0.000 A 
ATOM     18  C   UNL     1       6.115   1.614  11.172  0.00  0.00    +0.000 A 
ATOM     19  C   UNL     1       6.917   2.491  11.908  0.00  0.00    +0.000 A 
ENDBRANCH  13  14
ENDBRANCH   6  13
BRANCH   9  20
ATOM     20  C   UNL     1       4.163   3.002  17.604  0.00  0.00    +0.000 C 
BRANCH  20  21
ATOM     21  N   UNL     1       2.742   3.389  17.549  0.00  0.00    +0.000 NA
ATOM     22  C   UNL     1       2.447   4.763  17.949  0.00  0.00    +0.000 C 
ATOM     23  C   UNL     1       1.914   4.656  19.364  0.00  0.00    +0.000 C 
ATOM     24  C   UNL     1       1.143   3.349  19.343  0.00  0.00    +0.000 C 
ATOM     25  C   UNL     1       1.819   2.509  18.265  0.00  0.00    +0.000 C 
ENDBRANCH  20  21
ENDBRANCH   9  20
TORSDOF 5
ENDMDL
MODEL 8
REMARK VINA RESULT:      -7.6      1.184      1.605
REMARK  Name = 
REMARK  5 active torsions:
REMARK  status: ('A' for Active; 'I' for Inactive)
REMARK    1  A    between atoms: O_1  and  C_2
REMARK    2  A    between atoms: C_7  and  C_8
REMARK    3  A    between atoms: C_8  and  C_9
REMARK    4  A    between atoms: C_17  and  C_18
REMARK    5  A    between atoms: C_18  and  N_19
REMARK                            x       y       z     vdW  Elec       q    Type
REMARK                         _______ _______ _______ _____ _____    ______ ____
ROOT
ATOM      1  C   UNL     1       3.745   5.699  19.039  0.00  0.00    +0.000 A 
ATOM      2  C   UNL     1       3.584   6.982  18.500  0.00  0.00    +0.000 A 
ATOM      3  C   UNL     1       4.006   7.275  17.203  0.00  0.00    +0.000 A 
ATOM      4  C   UNL     1       4.651   6.247  16.523  0.00  0.00    +0.000 A 
ATOM      5  N   UNL     1       5.302   6.225  15.320  0.00  0.00    +0.000 N 
ATOM      6  C   UNL     1       5.882   4.989  15.165  0.00  0.00    +0.000 A 
ATOM      7  N   UNL     1       5.512   4.182  16.139  0.00  0.00    +0.000 NA
ATOM      8  C   UNL     1       4.792   4.953  17.026  0.00  0.00    +0.000 A 
ATOM      9  C   UNL     1       4.282   4.617  18.304  0.00  0.00    +0.000 A 
ATOM     10  H   UNL     1       5.452   7.021  14.715  0.00  0.00    +0.000 HD
ENDROOT
BRANCH   1  11
ATOM     11  O   UNL     1       3.415   5.504  20.356  0.00  0.00    +0.000 OA
ATOM     12  H   UNL     1       2.613   4.959  20.404  0.00  0.00    +0.000 HD
ENDBRANCH   1  11
BRANCH   6  13
ATOM     13  C   UNL     1       6.874   4.704  14.079  0.00  0.00    +0.000 C 
BRANCH  13  14
ATOM     14  C   UNL     1       6.321   3.818  12.973  0.00  0.00    +0.000 A 
ATOM     15  C   UNL     1       7.132   2.888  12.301  0.00  0.00    +0.000 A 
ATOM     16  C   UNL     1       6.612   2.088  11.281  0.00  0.00    +0.000 A 
ATOM     17  C   UNL     1       5.267   2.185  10.938  0.00  0.00    +0.000 A 
ATOM     18  C   UNL     1       4.437   3.070  11.626  0.00  0.00    +0.000 A 
ATOM     19  C   UNL     1       4.959   3.877  12.640  0.00  0.00    +0.000 A 
ENDBRANCH  13  14
ENDBRANCH   6  13
BRANCH   9  20
ATOM     20  C   UNL     1       4.419   3.227  18.887  0.00  0.00    +0.000 C 
BRANCH  20  21
ATOM     21  N   UNL     1       3.234   2.351  18.936  0.00  0.00    +0.000 NA
ATOM     22  C   UNL     1       2.307   2.482  17.815  0.00  0.00    +0.000 C 
ATOM     23  C   UNL     1       1.165   3.326  18.344  0.00  0.00    +0.000 C 
ATOM     24  C   UNL     1       1.053   2.885  19.792  0.00  0.00    +0.000 C 
ATOM     25  C   UNL     1       2.452   2.414  20.170  0.00  0.00    +0.000 C 
ENDBRANCH  20  21
ENDBRANCH   9  20
TORSDOF 5
ENDMDL
MODEL 9
REMARK VINA RESULT:      -7.6      2.778      6.536
REMARK  Name = 
REMARK  5 active torsions:
REMARK  status: ('A' for Active; 'I' for Inactive)
REMARK    1  A    between atoms: O_1  and  C_2
REMARK    2  A    between atoms: C_7  and  C_8
REMARK    3  A    between atoms: C_8  and  C_9
REMARK    4  A    between atoms: C_17  and  C_18
REMARK    5  A    between atoms: C_18  and  N_19
REMARK                            x       y       z     vdW  Elec       q    Type
REMARK                         _______ _______ _______ _____ _____    ______ ____
ROOT
ATOM      1  C   UNL     1       5.054   4.183  16.888  0.00  0.00    +0.000 A 
ATOM      2  C   UNL     1       6.037   5.174  16.760  0.00  0.00    +0.000 A 
ATOM      3  C   UNL     1       5.766   6.501  17.096  0.00  0.00    +0.000 A 
ATOM      4  C   UNL     1       4.461   6.779  17.487  0.00  0.00    +0.000 A 
ATOM      5  N   UNL     1       3.826   7.963  17.745  0.00  0.00    +0.000 N 
ATOM      6  C   UNL     1       2.496   7.700  17.966  0.00  0.00    +0.000 A 
ATOM      7  N   UNL     1       2.284   6.400  18.003  0.00  0.00    +0.000 NA
ATOM      8  C   UNL     1       3.477   5.805  17.654  0.00  0.00    +0.000 A 
ATOM      9  C   UNL     1       3.766   4.439  17.410  0.00  0.00    +0.000 A 
ATOM     10  H   UNL     1       4.231   8.884  17.650  0.00  0.00    +0.000 HD
ENDROOT
BRANCH   1  11
ATOM     11  O   UNL     1       5.345   2.922  16.435  0.00  0.00    +0.000 OA
ATOM     12  H   UNL     1       4.583   2.343  16.600  0.00  0.00    +0.000 HD
ENDBRANCH   1  11
BRANCH   6  13
ATOM     13  C   UNL     1       1.467   8.788  18.035  0.00  0.00    +0.000 C 
BRANCH  13  14
ATOM     14  C   UNL     1       1.077   9.162  19.456  0.00  0.00    +0.000 A 
ATOM     15  C   UNL     1       0.258  10.272  19.726  0.00  0.00    +0.000 A 
ATOM     16  C   UNL     1      -0.084  10.609  21.037  0.00  0.00    +0.000 A 
ATOM     17  C   UNL     1       0.362   9.824  22.096  0.00  0.00    +0.000 A 
ATOM     18  C   UNL     1       1.138   8.693  21.843  0.00  0.00    +0.000 A 
ATOM     19  C   UNL     1       1.488   8.361  20.532  0.00  0.00    +0.000 A 
ENDBRANCH  13  14
ENDBRANCH   6  13
BRANCH   9  20
ATOM     20  C   UNL     1       2.724   3.353  17.575  0.00  0.00    +0.000 C 
BRANCH  20  21
ATOM     21  N   UNL     1       2.454   2.819  18.923  0.00  0.00    +0.000 NA
ATOM     22  C   UNL     1       1.053   2.828  19.334  0.00  0.00    +0.000 C 
ATOM     23  C   UNL     1       0.921   4.024  20.257  0.00  0.00    +0.000 C 
ATOM     24  C   UNL     1       2.257   4.053  20.975  0.00  0.00    +0.000 C 
ATOM     25  C   UNL     1       3.241   3.407  20.006  0.00  0.00    +0.000 C 
ENDBRANCH  20  21
ENDBRANCH   9  20
TORSDOF 5
ENDMDL
