MODEL 1
REMARK VINA RESULT:      -7.6      0.000      0.000
REMARK  Name = 
REMARK  19 active torsions:
REMARK  status: ('A' for Active; 'I' for Inactive)
REMARK    1  A    between atoms: CD1_1  and  CG1_2
REMARK    2  A    between atoms: CG1_2  and  CB_3
REMARK    3  A    between atoms: CB_3  and  CG2_4
REMARK    4  A    between atoms: CB_3  and  CA_5
REMARK    5  A    between atoms: CA_5  and  N_6
REMARK    6  A    between atoms: CA_5  and  C_26
REMARK    7  A    between atoms: C_7  and  CA_9
REMARK    8  A    between atoms: CA_9  and  N_10
REMARK    9  A    between atoms: CA_9  and  CB_23
REMARK   10  A    between atoms: C_11  and  C_13
REMARK   11  A    between atoms: C_13  and  N_14
REMARK   12  A    between atoms: C_13  and  C_15
REMARK   13  A    between atoms: C_15  and  C_16
REMARK   14  A    between atoms: CB_23  and  CG1_24
REMARK   15  A    between atoms: CB_23  and  CG2_25
REMARK   16  A    between atoms: N_28  and  CA_29
REMARK   17  A    between atoms: CA_29  and  CB_30
REMARK   18  A    between atoms: CA_29  and  C_31
REMARK   19  A    between atoms: C_31  and  OXT_33
REMARK                            x       y       z     vdW  Elec       q    Type
REMARK                         _______ _______ _______ _____ _____    ______ ____
ROOT
ATOM      1  CA  VAL A   2       1.407   9.430  19.978  0.00  0.00    +0.000 C 
ENDROOT
BRANCH   1   3
ATOM      2  N   ILE A   3       2.547   7.467  19.049  0.00  0.00    +0.000 N 
ATOM      3  C   VAL A   2       1.832   8.596  18.749  0.00  0.00    +0.000 C 
ATOM      4  O   VAL A   2       1.609   8.950  17.593  0.00  0.00    +0.000 OA
ATOM      5  H   ILE A   3       2.874   7.315  20.005  0.00  0.00    +0.000 HD
BRANCH   2   6
ATOM      6  CA  ILE A   3       2.987   6.515  18.029  0.00  0.00    +0.000 C 
BRANCH   6   7
ATOM      7  C   ILE A   3       2.434   5.140  18.468  0.00  0.00    +0.000 C 
ATOM      8  O   ILE A   3       1.938   4.346  17.664  0.00  0.00    +0.000 OA
ATOM      9  N   ALA A   4       2.556   4.837  19.804  0.00  0.00    +0.000 N 
ATOM     10  H   ALA A   4       2.961   5.503  20.453  0.00  0.00    +0.000 HD
BRANCH   9  11
ATOM     11  CA  ALA A   4       2.193   3.524  20.331  0.00  0.00    +0.000 C 
ATOM     12  CB  ALA A   4       0.720   3.209  20.088  0.00  0.00    +0.000 C 
BRANCH  11  13
ATOM     13  C   ALA A   4       3.057   2.460  19.651  0.00  0.00    +0.000 C 
ATOM     14  O   ALA A   4       4.268   2.367  19.809  0.00  0.00    +0.000 OA
BRANCH  13  15
ATOM     15  OXT ALA A   4       2.369   1.638  18.825  0.00  0.00    +0.000 OA
ATOM     16  HXT ALA A   4       1.689   1.092  19.267  0.00  0.00    +0.000 HD
ENDBRANCH  13  15
ENDBRANCH  11  13
ENDBRANCH   9  11
ENDBRANCH   6   7
BRANCH   6  17
ATOM     17  CB  ILE A   3       4.519   6.582  17.796  0.00  0.00    +0.000 C 
ATOM     18  CG2 ILE A   3       4.865   6.567  16.305  0.00  0.00    +0.000 C 
BRANCH  17  20
ATOM     19  CD1 ILE A   3       6.251   4.681  17.727  0.00  0.00    +0.000 C 
ATOM     20  CG1 ILE A   3       5.288   5.498  18.583  0.00  0.00    +0.000 C 
ENDBRANCH  17  20
ENDBRANCH   6  17
ENDBRANCH   2   6
ENDBRANCH   1   3
BRANCH   1  21
ATOM     21  N   VAL A   2       0.249  10.239  19.582  0.00  0.00    +0.000 N 
ATOM     22  C   UNK A   1       0.356  11.613  19.449  0.00  0.00    +0.000 C 
ATOM     23  O   UNK A   1       1.388  12.218  19.724  0.00  0.00    +0.000 OA
ATOM     24  H   VAL A   2      -0.487   9.769  19.072  0.00  0.00    +0.000 HD
BRANCH  22  25
ATOM     25  C   UNK A   1      -0.969  12.321  19.068  0.00  0.00    +0.000 C 
BRANCH  25  26
ATOM     26  N   UNK A   1      -0.774  12.951  17.742  0.00  0.00    +0.000 NA
ATOM     27  H   UNK A   1      -1.311  13.819  17.714  0.00  0.00    +0.000 HD
ATOM     28  H   UNK A   1      -1.179  12.352  17.022  0.00  0.00    +0.000 HD
ENDBRANCH  25  26
BRANCH  25  29
ATOM     29  C   UNK A   1      -2.119  11.296  19.072  0.00  0.00    +0.000 C 
BRANCH  29  30
ATOM     30  C   UNK A   1      -2.691  10.959  17.712  0.00  0.00    +0.000 A 
ATOM     31  C   UNK A   1      -2.043  10.029  16.883  0.00  0.00    +0.000 A 
ATOM     32  C   UNK A   1      -2.581   9.687  15.639  0.00  0.00    +0.000 A 
ATOM     33  C   UNK A   1      -3.769  10.276  15.224  0.00  0.00    +0.000 A 
ATOM     34  F   UNK A   1      -4.294   9.937  14.038  0.00  0.00    +0.000 F 
ATOM     35  C   UNK A   1      -4.422  11.206  16.022  0.00  0.00    +0.000 A 
ATOM     36  C   UNK A   1      -3.882  11.552  17.264  0.00  0.00    +0.000 A 
ENDBRANCH  29  30
ENDBRANCH  25  29
ENDBRANCH  22  25
ENDBRANCH   1  21
BRANCH   1  37
ATOM     37  CB  VAL A   2       1.067   8.494  21.163  0.00  0.00    +0.000 C 
ATOM     38  CG1 VAL A   2       1.518   9.108  22.496  0.00  0.00    +0.000 C 
ATOM     39  CG2 VAL A   2      -0.433   8.194  21.244  0.00  0.00    +0.000 C 
ENDBRANCH   1  37
TORSDOF 14
ENDMDL
MODEL 2
REMARK VINA RESULT:      -7.6      3.605      5.590
REMARK  Name = 
REMARK  19 active torsions:
REMARK  status: ('A' for Active; 'I' for Inactive)
REMARK    1  A    between atoms: CD1_1  and  CG1_2
REMARK    2  A    between atoms: CG1_2  and  CB_3
REMARK    3  A    between atoms: CB_3  and  CG2_4
REMARK    4  A    between atoms: CB_3  and  CA_5
REMARK    5  A    between atoms: CA_5  and  N_6
REMARK    6  A    between atoms: CA_5  and  C_26
REMARK    7  A    between atoms: C_7  and  CA_9
REMARK    8  A    between atoms: CA_9  and  N_10
REMARK    9  A    between atoms: CA_9  and  CB_23
REMARK   10  A    between atoms: C_11  and  C_13
REMARK   11  A    between atoms: C_13  and  N_14
REMARK   12  A    between atoms: C_13  and  C_15
REMARK   13  A    between atoms: C_15  and  C_16
REMARK   14  A    between atoms: CB_23  and  CG1_24
REMARK   15  A    between atoms: CB_23  and  CG2_25
REMARK   16  A    between atoms: N_28  and  CA_29
REMARK   17  A    between atoms: CA_29  and  CB_30
REMARK   18  A    between atoms: CA_29  and  C_31
REMARK   19  A    between atoms: C_31  and  OXT_33
REMARK                            x       y       z     vdW  Elec       q    Type
REMARK                         _______ _______ _______ _____ _____    ______ ____
ROOT
ATOM      1  CA  VAL A   2       3.254   5.857  18.522  0.00  0.00    +0.000 C 
ENDROOT
BRANCH   1   3
ATOM      2  N   ILE A   3       5.568   6.126  17.755  0.00  0.00    +0.000 N 
ATOM      3  C   VAL A   2       4.265   6.489  17.540  0.00  0.00    +0.000 C 
ATOM      4  O   VAL A   2       3.939   7.303  16.679  0.00  0.00    +0.000 OA
ATOM      5  H   ILE A   3       5.814   5.602  18.598  0.00  0.00    +0.000 HD
BRANCH   2   6
ATOM      6  CA  ILE A   3       6.665   6.567  16.896  0.00  0.00    +0.000 C 
BRANCH   6   7
ATOM      7  C   ILE A   3       6.994   5.366  15.980  0.00  0.00    +0.000 C 
ATOM      8  O   ILE A   3       7.768   4.469  16.328  0.00  0.00    +0.000 OA
ATOM      9  N   ALA A   4       6.351   5.337  14.765  0.00  0.00    +0.000 N 
ATOM     10  H   ALA A   4       5.721   6.085  14.492  0.00  0.00    +0.000 HD
BRANCH   9  11
ATOM     11  CA  ALA A   4       6.471   4.198  13.858  0.00  0.00    +0.000 C 
ATOM     12  CB  ALA A   4       5.112   3.765  13.318  0.00  0.00    +0.000 C 
BRANCH  11  13
ATOM     13  C   ALA A   4       7.380   4.589  12.690  0.00  0.00    +0.000 C 
ATOM     14  O   ALA A   4       8.068   5.601  12.675  0.00  0.00    +0.000 OA
BRANCH  13  15
ATOM     15  OXT ALA A   4       7.336   3.726  11.648  0.00  0.00    +0.000 OA
ATOM     16  HXT ALA A   4       7.459   2.787  11.891  0.00  0.00    +0.000 HD
ENDBRANCH  13  15
ENDBRANCH  11  13
ENDBRANCH   9  11
ENDBRANCH   6   7
BRANCH   6  17
ATOM     17  CB  ILE A   3       7.853   7.134  17.716  0.00  0.00    +0.000 C 
ATOM     18  CG2 ILE A   3       7.969   6.458  19.085  0.00  0.00    +0.000 C 
BRANCH  17  20
ATOM     19  CD1 ILE A   3       8.835   9.243  18.813  0.00  0.00    +0.000 C 
ATOM     20  CG1 ILE A   3       7.818   8.674  17.829  0.00  0.00    +0.000 C 
ENDBRANCH  17  20
ENDBRANCH   6  17
ENDBRANCH   2   6
ENDBRANCH   1   3
BRANCH   1  21
ATOM     21  N   VAL A   2       2.433   6.945  19.069  0.00  0.00    +0.000 N 
ATOM     22  C   UNK A   1       2.009   6.921  20.386  0.00  0.00    +0.000 C 
ATOM     23  O   UNK A   1       2.233   5.968  21.128  0.00  0.00    +0.000 OA
ATOM     24  H   VAL A   2       2.494   7.843  18.606  0.00  0.00    +0.000 HD
BRANCH  22  25
ATOM     25  C   UNK A   1       1.117   8.121  20.791  0.00  0.00    +0.000 C 
BRANCH  25  26
ATOM     26  N   UNK A   1       1.635   8.653  22.072  0.00  0.00    +0.000 NA
ATOM     27  H   UNK A   1       0.914   9.241  22.493  0.00  0.00    +0.000 HD
ATOM     28  H   UNK A   1       2.423   9.273  21.885  0.00  0.00    +0.000 HD
ENDBRANCH  25  26
BRANCH  25  29
ATOM     29  C   UNK A   1       1.130   9.173  19.665  0.00  0.00    +0.000 C 
BRANCH  29  30
ATOM     30  C   UNK A   1      -0.055  10.116  19.646  0.00  0.00    +0.000 A 
ATOM     31  C   UNK A   1      -0.359  10.892  20.776  0.00  0.00    +0.000 A 
ATOM     32  C   UNK A   1      -1.430  11.789  20.756  0.00  0.00    +0.000 A 
ATOM     33  C   UNK A   1      -2.199  11.910  19.605  0.00  0.00    +0.000 A 
ATOM     34  F   UNK A   1      -3.217  12.781  19.580  0.00  0.00    +0.000 F 
ATOM     35  C   UNK A   1      -1.923  11.145  18.479  0.00  0.00    +0.000 A 
ATOM     36  C   UNK A   1      -0.855  10.244  18.499  0.00  0.00    +0.000 A 
ENDBRANCH  29  30
ENDBRANCH  25  29
ENDBRANCH  22  25
ENDBRANCH   1  21
BRANCH   1  37
ATOM     37  CB  VAL A   2       2.387   4.806  17.790  0.00  0.00    +0.000 C 
ATOM     38  CG1 VAL A   2       3.264   3.821  17.002  0.00  0.00    +0.000 C 
ATOM     39  CG2 VAL A   2       1.508   4.010  18.761  0.00  0.00    +0.000 C 
ENDBRANCH   1  37
TORSDOF 14
ENDMDL
MODEL 3
REMARK VINA RESULT:      -7.4      3.258      5.047
REMARK  Name = 
REMARK  19 active torsions:
REMARK  status: ('A' for Active; 'I' for Inactive)
REMARK    1  A    between atoms: CD1_1  and  CG1_2
REMARK    2  A    between atoms: CG1_2  and  CB_3
REMARK    3  A    between atoms: CB_3  and  CG2_4
REMARK    4  A    between atoms: CB_3  and  CA_5
REMARK    5  A    between atoms: CA_5  and  N_6
REMARK    6  A    between atoms: CA_5  and  C_26
REMARK    7  A    between atoms: C_7  and  CA_9
REMARK    8  A    between atoms: CA_9  and  N_10
REMARK    9  A    between atoms: CA_9  and  CB_23
REMARK   10  A    between atoms: C_11  and  C_13
REMARK   11  A    between atoms: C_13  and  N_14
REMARK   12  A    between atoms: C_13  and  C_15
REMARK   13  A    between atoms: C_15  and  C_16
REMARK   14  A    between atoms: CB_23  and  CG1_24
REMARK   15  A    between atoms: CB_23  and  CG2_25
REMARK   16  A    between atoms: N_28  and  CA_29
REMARK   17  A    between atoms: CA_29  and  CB_30
REMARK   18  A    between atoms: CA_29  and  C_31
REMARK   19  A    between atoms: C_31  and  OXT_33
REMARK                            x       y       z     vdW  Elec       q    Type
REMARK                         _______ _______ _______ _____ _____    ______ ____
ROOT
ATOM      1  CA  VAL A   2       3.061   6.238  19.140  0.00  0.00    +0.000 C 
ENDROOT
BRANCH   1   3
ATOM      2  N   ILE A   3       5.420   6.093  18.482  0.00  0.00    +0.000 N 
ATOM      3  C   VAL A   2       4.190   6.595  18.148  0.00  0.00    +0.000 C 
ATOM      4  O   VAL A   2       4.017   7.327  17.175  0.00  0.00    +0.000 OA
ATOM      5  H   ILE A   3       5.555   5.655  19.395  0.00  0.00    +0.000 HD
BRANCH   2   6
ATOM      6  CA  ILE A   3       6.602   6.269  17.640  0.00  0.00    +0.000 C 
BRANCH   6   7
ATOM      7  C   ILE A   3       6.557   5.123  16.603  0.00  0.00    +0.000 C 
ATOM      8  O   ILE A   3       6.135   3.998  16.888  0.00  0.00    +0.000 OA
ATOM      9  N   ALA A   4       6.983   5.438  15.334  0.00  0.00    +0.000 N 
ATOM     10  H   ALA A   4       7.332   6.366  15.119  0.00  0.00    +0.000 HD
BRANCH   9  11
ATOM     11  CA  ALA A   4       6.874   4.489  14.229  0.00  0.00    +0.000 C 
ATOM     12  CB  ALA A   4       5.424   4.292  13.799  0.00  0.00    +0.000 C 
BRANCH  11  13
ATOM     13  C   ALA A   4       7.687   5.014  13.044  0.00  0.00    +0.000 C 
ATOM     14  O   ALA A   4       8.497   5.928  13.128  0.00  0.00    +0.000 OA
BRANCH  13  15
ATOM     15  OXT ALA A   4       7.412   4.394  11.871  0.00  0.00    +0.000 OA
ATOM     16  HXT ALA A   4       6.723   3.703  11.928  0.00  0.00    +0.000 HD
ENDBRANCH  13  15
ENDBRANCH  11  13
ENDBRANCH   9  11
ENDBRANCH   6   7
BRANCH   6  17
ATOM     17  CB  ILE A   3       7.902   6.366  18.479  0.00  0.00    +0.000 C 
ATOM     18  CG2 ILE A   3       7.763   5.648  19.825  0.00  0.00    +0.000 C 
BRANCH  17  20
ATOM     19  CD1 ILE A   3       7.855   8.780  17.589  0.00  0.00    +0.000 C 
ATOM     20  CG1 ILE A   3       8.396   7.821  18.645  0.00  0.00    +0.000 C 
ENDBRANCH  17  20
ENDBRANCH   6  17
ENDBRANCH   2   6
ENDBRANCH   1   3
BRANCH   1  21
ATOM     21  N   VAL A   2       2.332   7.475  19.442  0.00  0.00    +0.000 N 
ATOM     22  C   UNK A   1       1.584   7.593  20.600  0.00  0.00    +0.000 C 
ATOM     23  O   UNK A   1       1.435   6.657  21.381  0.00  0.00    +0.000 OA
ATOM     24  H   VAL A   2       2.668   8.324  19.006  0.00  0.00    +0.000 HD
BRANCH  22  25
ATOM     25  C   UNK A   1       0.843   8.947  20.745  0.00  0.00    +0.000 C 
BRANCH  25  26
ATOM     26  N   UNK A   1       1.404   9.639  21.928  0.00  0.00    +0.000 NA
ATOM     27  H   UNK A   1       1.533  10.625  21.695  0.00  0.00    +0.000 HD
ATOM     28  H   UNK A   1       2.337   9.276  22.120  0.00  0.00    +0.000 HD
ENDBRANCH  25  26
BRANCH  25  29
ATOM     29  C   UNK A   1       1.006   9.763  19.449  0.00  0.00    +0.000 C 
BRANCH  29  30
ATOM     30  C   UNK A   1      -0.272  10.349  18.888  0.00  0.00    +0.000 A 
ATOM     31  C   UNK A   1      -0.819   9.843  17.698  0.00  0.00    +0.000 A 
ATOM     32  C   UNK A   1      -2.016  10.354  17.190  0.00  0.00    +0.000 A 
ATOM     33  C   UNK A   1      -2.666  11.375  17.872  0.00  0.00    +0.000 A 
ATOM     34  F   UNK A   1      -3.822  11.856  17.394  0.00  0.00    +0.000 F 
ATOM     35  C   UNK A   1      -2.138  11.899  19.045  0.00  0.00    +0.000 A 
ATOM     36  C   UNK A   1      -0.939  11.391  19.552  0.00  0.00    +0.000 A 
ENDBRANCH  29  30
ENDBRANCH  25  29
ENDBRANCH  22  25
ENDBRANCH   1  21
BRANCH   1  37
ATOM     37  CB  VAL A   2       2.130   5.168  18.523  0.00  0.00    +0.000 C 
ATOM     38  CG1 VAL A   2       2.827   4.430  17.370  0.00  0.00    +0.000 C 
ATOM     39  CG2 VAL A   2       1.676   4.136  19.560  0.00  0.00    +0.000 C 
ENDBRANCH   1  37
TORSDOF 14
ENDMDL
MODEL 4
REMARK VINA RESULT:      -7.3      1.014      1.555
REMARK  Name = 
REMARK  19 active torsions:
REMARK  status: ('A' for Active; 'I' for Inactive)
REMARK    1  A    between atoms: CD1_1  and  CG1_2
REMARK    2  A    between atoms: CG1_2  and  CB_3
REMARK    3  A    between atoms: CB_3  and  CG2_4
REMARK    4  A    between atoms: CB_3  and  CA_5
REMARK    5  A    between atoms: CA_5  and  N_6
REMARK    6  A    between atoms: CA_5  and  C_26
REMARK    7  A    between atoms: C_7  and  CA_9
REMARK    8  A    between atoms: CA_9  and  N_10
REMARK    9  A    between atoms: CA_9  and  CB_23
REMARK   10  A    between atoms: C_11  and  C_13
REMARK   11  A    between atoms: C_13  and  N_14
REMARK   12  A    between atoms: C_13  and  C_15
REMARK   13  A    between atoms: C_15  and  C_16
REMARK   14  A    between atoms: CB_23  and  CG1_24
REMARK   15  A    between atoms: CB_23  and  CG2_25
REMARK   16  A    between atoms: N_28  and  CA_29
REMARK   17  A    between atoms: CA_29  and  CB_30
REMARK   18  A    between atoms: CA_29  and  C_31
REMARK   19  A    between atoms: C_31  and  OXT_33
REMARK                            x       y       z     vdW  Elec       q    Type
REMARK                         _______ _______ _______ _____ _____    ______ ____
ROOT
ATOM      1  CA  VAL A   2       1.383   9.395  20.039  0.00  0.00    +0.000 C 
ENDROOT
BRANCH   1   3
ATOM      2  N   ILE A   3       2.610   7.449  19.186  0.00  0.00    +0.000 N 
ATOM      3  C   VAL A   2       1.814   8.512  18.847  0.00  0.00    +0.000 C 
ATOM      4  O   VAL A   2       1.525   8.776  17.682  0.00  0.00    +0.000 OA
ATOM      5  H   ILE A   3       2.980   7.379  20.135  0.00  0.00    +0.000 HD
BRANCH   2   6
ATOM      6  CA  ILE A   3       3.070   6.463  18.210  0.00  0.00    +0.000 C 
BRANCH   6   7
ATOM      7  C   ILE A   3       2.920   5.086  18.897  0.00  0.00    +0.000 C 
ATOM      8  O   ILE A   3       2.787   4.974  20.119  0.00  0.00    +0.000 OA
ATOM      9  N   ALA A   4       2.911   3.992  18.064  0.00  0.00    +0.000 N 
ATOM     10  H   ALA A   4       3.027   4.101  17.062  0.00  0.00    +0.000 HD
BRANCH   9  11
ATOM     11  CA  ALA A   4       2.649   2.645  18.566  0.00  0.00    +0.000 C 
ATOM     12  CB  ALA A   4       3.653   2.242  19.642  0.00  0.00    +0.000 C 
BRANCH  11  13
ATOM     13  C   ALA A   4       1.235   2.600  19.150  0.00  0.00    +0.000 C 
ATOM     14  O   ALA A   4       0.220   2.562  18.467  0.00  0.00    +0.000 OA
BRANCH  13  15
ATOM     15  OXT ALA A   4       1.198   2.637  20.503  0.00  0.00    +0.000 OA
ATOM     16  HXT ALA A   4       1.864   3.223  20.913  0.00  0.00    +0.000 HD
ENDBRANCH  13  15
ENDBRANCH  11  13
ENDBRANCH   9  11
ENDBRANCH   6   7
BRANCH   6  17
ATOM     17  CB  ILE A   3       4.486   6.796  17.673  0.00  0.00    +0.000 C 
ATOM     18  CG2 ILE A   3       4.549   6.702  16.146  0.00  0.00    +0.000 C 
BRANCH  17  20
ATOM     19  CD1 ILE A   3       7.000   6.286  17.863  0.00  0.00    +0.000 C 
ATOM     20  CG1 ILE A   3       5.593   5.960  18.353  0.00  0.00    +0.000 C 
ENDBRANCH  17  20
ENDBRANCH   6  17
ENDBRANCH   2   6
ENDBRANCH   1   3
BRANCH   1  21
ATOM     21  N   VAL A   2       0.223  10.184  19.606  0.00  0.00    +0.000 N 
ATOM     22  C   UNK A   1       0.330  11.548  19.403  0.00  0.00    +0.000 C 
ATOM     23  O   UNK A   1       1.363  12.167  19.643  0.00  0.00    +0.000 OA
ATOM     24  H   VAL A   2      -0.514   9.688  19.123  0.00  0.00    +0.000 HD
BRANCH  22  25
ATOM     25  C   UNK A   1      -0.996  12.237  18.991  0.00  0.00    +0.000 C 
BRANCH  25  26
ATOM     26  N   UNK A   1      -0.784  12.858  17.663  0.00  0.00    +0.000 NA
ATOM     27  H   UNK A   1      -1.628  13.374  17.409  0.00  0.00    +0.000 HD
ATOM     28  H   UNK A   1      -0.686  12.125  16.960  0.00  0.00    +0.000 HD
ENDBRANCH  25  26
BRANCH  25  29
ATOM     29  C   UNK A   1      -2.134  11.197  18.982  0.00  0.00    +0.000 C 
BRANCH  29  30
ATOM     30  C   UNK A   1      -2.684  10.851  17.615  0.00  0.00    +0.000 A 
ATOM     31  C   UNK A   1      -3.845  11.481  17.140  0.00  0.00    +0.000 A 
ATOM     32  C   UNK A   1      -4.342  11.193  15.866  0.00  0.00    +0.000 A 
ATOM     33  C   UNK A   1      -3.676  10.272  15.066  0.00  0.00    +0.000 A 
ATOM     34  F   UNK A   1      -4.144  10.006  13.838  0.00  0.00    +0.000 F 
ATOM     35  C   UNK A   1      -2.533   9.628  15.519  0.00  0.00    +0.000 A 
ATOM     36  C   UNK A   1      -2.037   9.913  16.795  0.00  0.00    +0.000 A 
ENDBRANCH  29  30
ENDBRANCH  25  29
ENDBRANCH  22  25
ENDBRANCH   1  21
BRANCH   1  37
ATOM     37  CB  VAL A   2       1.042   8.509  21.261  0.00  0.00    +0.000 C 
ATOM     38  CG1 VAL A   2       1.530   9.158  22.564  0.00  0.00    +0.000 C 
ATOM     39  CG2 VAL A   2      -0.463   8.247  21.378  0.00  0.00    +0.000 C 
ENDBRANCH   1  37
TORSDOF 14
ENDMDL
MODEL 5
REMARK VINA RESULT:      -7.2      3.222      4.798
REMARK  Name = 
REMARK  19 active torsions:
REMARK  status: ('A' for Active; 'I' for Inactive)
REMARK    1  A    between atoms: CD1_1  and  CG1_2
REMARK    2  A    between atoms: CG1_2  and  CB_3
REMARK    3  A    between atoms: CB_3  and  CG2_4
REMARK    4  A    between atoms: CB_3  and  CA_5
REMARK    5  A    between atoms: CA_5  and  N_6
REMARK    6  A    between atoms: CA_5  and  C_26
REMARK    7  A    between atoms: C_7  and  CA_9
REMARK    8  A    between atoms: CA_9  and  N_10
REMARK    9  A    between atoms: CA_9  and  CB_23
REMARK   10  A    between atoms: C_11  and  C_13
REMARK   11  A    between atoms: C_13  and  N_14
REMARK   12  A    between atoms: C_13  and  C_15
REMARK   13  A    between atoms: C_15  and  C_16
REMARK   14  A    between atoms: CB_23  and  CG1_24
REMARK   15  A    between atoms: CB_23  and  CG2_25
REMARK   16  A    between atoms: N_28  and  CA_29
REMARK   17  A    between atoms: CA_29  and  CB_30
REMARK   18  A    between atoms: CA_29  and  C_31
REMARK   19  A    between atoms: C_31  and  OXT_33
REMARK                            x       y       z     vdW  Elec       q    Type
REMARK                         _______ _______ _______ _____ _____    ______ ____
ROOT
ATOM      1  CA  VAL A   2       3.078   6.726  18.756  0.00  0.00    +0.000 C 
ENDROOT
BRANCH   1   3
ATOM      2  N   ILE A   3       5.476   6.485  18.302  0.00  0.00    +0.000 N 
ATOM      3  C   VAL A   2       4.267   6.864  17.781  0.00  0.00    +0.000 C 
ATOM      4  O   VAL A   2       4.154   7.338  16.652  0.00  0.00    +0.000 OA
ATOM      5  H   ILE A   3       5.554   6.280  19.300  0.00  0.00    +0.000 HD
BRANCH   2   6
ATOM      6  CA  ILE A   3       6.710   6.483  17.519  0.00  0.00    +0.000 C 
BRANCH   6   7
ATOM      7  C   ILE A   3       6.614   5.258  16.581  0.00  0.00    +0.000 C 
ATOM      8  O   ILE A   3       6.243   4.151  16.984  0.00  0.00    +0.000 OA
ATOM      9  N   ALA A   4       6.934   5.479  15.262  0.00  0.00    +0.000 N 
ATOM     10  H   ALA A   4       7.242   6.394  14.948  0.00  0.00    +0.000 HD
BRANCH   9  11
ATOM     11  CA  ALA A   4       6.764   4.443  14.245  0.00  0.00    +0.000 C 
ATOM     12  CB  ALA A   4       5.295   4.252  13.879  0.00  0.00    +0.000 C 
BRANCH  11  13
ATOM     13  C   ALA A   4       7.550   4.843  12.995  0.00  0.00    +0.000 C 
ATOM     14  O   ALA A   4       7.322   4.396  11.878  0.00  0.00    +0.000 OA
BRANCH  13  15
ATOM     15  OXT ALA A   4       8.554   5.720  13.233  0.00  0.00    +0.000 OA
ATOM     16  HXT ALA A   4       8.925   5.679  14.137  0.00  0.00    +0.000 HD
ENDBRANCH  13  15
ENDBRANCH  11  13
ENDBRANCH   9  11
ENDBRANCH   6   7
BRANCH   6  17
ATOM     17  CB  ILE A   3       7.970   6.542  18.421  0.00  0.00    +0.000 C 
ATOM     18  CG2 ILE A   3       7.762   5.783  19.734  0.00  0.00    +0.000 C 
BRANCH  17  20
ATOM     19  CD1 ILE A   3       7.836   9.015  17.723  0.00  0.00    +0.000 C 
ATOM     20  CG1 ILE A   3       8.466   7.986  18.657  0.00  0.00    +0.000 C 
ENDBRANCH  17  20
ENDBRANCH   6  17
ENDBRANCH   2   6
ENDBRANCH   1   3
BRANCH   1  21
ATOM     21  N   VAL A   2       2.227   7.910  18.583  0.00  0.00    +0.000 N 
ATOM     22  C   UNK A   1       1.561   8.469  19.660  0.00  0.00    +0.000 C 
ATOM     23  O   UNK A   1       1.590   7.965  20.780  0.00  0.00    +0.000 OA
ATOM     24  H   VAL A   2       2.421   8.503  17.787  0.00  0.00    +0.000 HD
BRANCH  22  25
ATOM     25  C   UNK A   1       0.673   9.686  19.299  0.00  0.00    +0.000 C 
BRANCH  25  26
ATOM     26  N   UNK A   1       1.544  10.883  19.271  0.00  0.00    +0.000 NA
ATOM     27  H   UNK A   1       1.661  11.220  20.228  0.00  0.00    +0.000 HD
ATOM     28  H   UNK A   1       1.068  11.634  18.770  0.00  0.00    +0.000 HD
ENDBRANCH  25  26
BRANCH  25  29
ATOM     29  C   UNK A   1      -0.024   9.430  17.948  0.00  0.00    +0.000 C 
BRANCH  29  30
ATOM     30  C   UNK A   1      -1.337  10.156  17.750  0.00  0.00    +0.000 A 
ATOM     31  C   UNK A   1      -2.081   9.964  16.574  0.00  0.00    +0.000 A 
ATOM     32  C   UNK A   1      -3.310  10.604  16.396  0.00  0.00    +0.000 A 
ATOM     33  C   UNK A   1      -3.796  11.439  17.396  0.00  0.00    +0.000 A 
ATOM     34  F   UNK A   1      -4.982  12.042  17.232  0.00  0.00    +0.000 F 
ATOM     35  C   UNK A   1      -3.073  11.652  18.562  0.00  0.00    +0.000 A 
ATOM     36  C   UNK A   1      -1.841  11.016  18.739  0.00  0.00    +0.000 A 
ENDBRANCH  29  30
ENDBRANCH  25  29
ENDBRANCH  22  25
ENDBRANCH   1  21
BRANCH   1  37
ATOM     37  CB  VAL A   2       2.300   5.421  18.465  0.00  0.00    +0.000 C 
ATOM     38  CG1 VAL A   2       3.043   4.554  17.438  0.00  0.00    +0.000 C 
ATOM     39  CG2 VAL A   2       2.074   4.593  19.734  0.00  0.00    +0.000 C 
ENDBRANCH   1  37
TORSDOF 14
ENDMDL
MODEL 6
REMARK VINA RESULT:      -7.2      1.780      3.045
REMARK  Name = 
REMARK  19 active torsions:
REMARK  status: ('A' for Active; 'I' for Inactive)
REMARK    1  A    between atoms: CD1_1  and  CG1_2
REMARK    2  A    between atoms: CG1_2  and  CB_3
REMARK    3  A    between atoms: CB_3  and  CG2_4
REMARK    4  A    between atoms: CB_3  and  CA_5
REMARK    5  A    between atoms: CA_5  and  N_6
REMARK    6  A    between atoms: CA_5  and  C_26
REMARK    7  A    between atoms: C_7  and  CA_9
REMARK    8  A    between atoms: CA_9  and  N_10
REMARK    9  A    between atoms: CA_9  and  CB_23
REMARK   10  A    between atoms: C_11  and  C_13
REMARK   11  A    between atoms: C_13  and  N_14
REMARK   12  A    between atoms: C_13  and  C_15
REMARK   13  A    between atoms: C_15  and  C_16
REMARK   14  A    between atoms: CB_23  and  CG1_24
REMARK   15  A    between atoms: CB_23  and  CG2_25
REMARK   16  A    between atoms: N_28  and  CA_29
REMARK   17  A    between atoms: CA_29  and  CB_30
REMARK   18  A    between atoms: CA_29  and  C_31
REMARK   19  A    between atoms: C_31  and  OXT_33
REMARK                            x       y       z     vdW  Elec       q    Type
REMARK                         _______ _______ _______ _____ _____    ______ ____
ROOT
ATOM      1  CA  VAL A   2       1.574   8.992  20.393  0.00  0.00    +0.000 C 
ENDROOT
BRANCH   1   3
ATOM      2  N   ILE A   3       2.751   6.890  19.930  0.00  0.00    +0.000 N 
ATOM      3  C   VAL A   2       1.932   7.857  19.409  0.00  0.00    +0.000 C 
ATOM      4  O   VAL A   2       1.570   7.853  18.234  0.00  0.00    +0.000 OA
ATOM      5  H   ILE A   3       3.181   7.033  20.846  0.00  0.00    +0.000 HD
BRANCH   2   6
ATOM      6  CA  ILE A   3       3.152   5.703  19.178  0.00  0.00    +0.000 C 
BRANCH   6   7
ATOM      7  C   ILE A   3       4.231   6.180  18.178  0.00  0.00    +0.000 C 
ATOM      8  O   ILE A   3       3.951   6.857  17.184  0.00  0.00    +0.000 OA
ATOM      9  N   ALA A   4       5.528   5.836  18.477  0.00  0.00    +0.000 N 
ATOM     10  H   ALA A   4       5.741   5.274  19.296  0.00  0.00    +0.000 HD
BRANCH   9  11
ATOM     11  CA  ALA A   4       6.656   6.328  17.690  0.00  0.00    +0.000 C 
ATOM     12  CB  ALA A   4       7.886   6.566  18.560  0.00  0.00    +0.000 C 
BRANCH  11  13
ATOM     13  C   ALA A   4       6.992   5.300  16.608  0.00  0.00    +0.000 C 
ATOM     14  O   ALA A   4       7.429   5.595  15.504  0.00  0.00    +0.000 OA
BRANCH  13  15
ATOM     15  OXT ALA A   4       6.732   4.020  16.966  0.00  0.00    +0.000 OA
ATOM     16  HXT ALA A   4       7.526   3.464  17.094  0.00  0.00    +0.000 HD
ENDBRANCH  13  15
ENDBRANCH  11  13
ENDBRANCH   9  11
ENDBRANCH   6   7
BRANCH   6  17
ATOM     17  CB  ILE A   3       1.935   4.972  18.555  0.00  0.00    +0.000 C 
ATOM     18  CG2 ILE A   3       1.134   4.205  19.612  0.00  0.00    +0.000 C 
BRANCH  17  20
ATOM     19  CD1 ILE A   3       2.677   2.644  17.751  0.00  0.00    +0.000 C 
ATOM     20  CG1 ILE A   3       2.326   4.076  17.359  0.00  0.00    +0.000 C 
ENDBRANCH  17  20
ENDBRANCH   6  17
ENDBRANCH   2   6
ENDBRANCH   1   3
BRANCH   1  21
ATOM     21  N   VAL A   2       0.510   9.792  19.774  0.00  0.00    +0.000 N 
ATOM     22  C   UNK A   1       0.523  11.174  19.854  0.00  0.00    +0.000 C 
ATOM     23  O   UNK A   1       1.372  11.783  20.500  0.00  0.00    +0.000 OA
ATOM     24  H   VAL A   2      -0.000   9.366  19.011  0.00  0.00    +0.000 HD
BRANCH  22  25
ATOM     25  C   UNK A   1      -0.693  11.863  19.186  0.00  0.00    +0.000 C 
BRANCH  25  26
ATOM     26  N   UNK A   1      -0.260  12.344  17.855  0.00  0.00    +0.000 NA
ATOM     27  H   UNK A   1       0.525  12.985  17.982  0.00  0.00    +0.000 HD
ATOM     28  H   UNK A   1      -1.006  12.902  17.439  0.00  0.00    +0.000 HD
ENDBRANCH  25  26
BRANCH  25  29
ATOM     29  C   UNK A   1      -1.866  10.866  19.102  0.00  0.00    +0.000 C 
BRANCH  29  30
ATOM     30  C   UNK A   1      -2.482  10.706  17.729  0.00  0.00    +0.000 A 
ATOM     31  C   UNK A   1      -1.925   9.807  16.804  0.00  0.00    +0.000 A 
ATOM     32  C   UNK A   1      -2.506   9.628  15.546  0.00  0.00    +0.000 A 
ATOM     33  C   UNK A   1      -3.646  10.349  15.212  0.00  0.00    +0.000 A 
ATOM     34  F   UNK A   1      -4.213  10.167  14.011  0.00  0.00    +0.000 F 
ATOM     35  C   UNK A   1      -4.208  11.252  16.106  0.00  0.00    +0.000 A 
ATOM     36  C   UNK A   1      -3.625  11.435  17.362  0.00  0.00    +0.000 A 
ENDBRANCH  29  30
ENDBRANCH  25  29
ENDBRANCH  22  25
ENDBRANCH   1  21
BRANCH   1  37
ATOM     37  CB  VAL A   2       1.121   8.398  21.748  0.00  0.00    +0.000 C 
ATOM     38  CG1 VAL A   2       1.578   9.282  22.917  0.00  0.00    +0.000 C 
ATOM     39  CG2 VAL A   2      -0.400   8.234  21.822  0.00  0.00    +0.000 C 
ENDBRANCH   1  37
TORSDOF 14
ENDMDL
MODEL 7
REMARK VINA RESULT:      -7.1      2.974      4.428
REMARK  Name = 
REMARK  19 active torsions:
REMARK  status: ('A' for Active; 'I' for Inactive)
REMARK    1  A    between atoms: CD1_1  and  CG1_2
REMARK    2  A    between atoms: CG1_2  and  CB_3
REMARK    3  A    between atoms: CB_3  and  CG2_4
REMARK    4  A    between atoms: CB_3  and  CA_5
REMARK    5  A    between atoms: CA_5  and  N_6
REMARK    6  A    between atoms: CA_5  and  C_26
REMARK    7  A    between atoms: C_7  and  CA_9
REMARK    8  A    between atoms: CA_9  and  N_10
REMARK    9  A    between atoms: CA_9  and  CB_23
REMARK   10  A    between atoms: C_11  and  C_13
REMARK   11  A    between atoms: C_13  and  N_14
REMARK   12  A    between atoms: C_13  and  C_15
REMARK   13  A    between atoms: C_15  and  C_16
REMARK   14  A    between atoms: CB_23  and  CG1_24
REMARK   15  A    between atoms: CB_23  and  CG2_25
REMARK   16  A    between atoms: N_28  and  CA_29
REMARK   17  A    between atoms: CA_29  and  CB_30
REMARK   18  A    between atoms: CA_29  and  C_31
REMARK   19  A    between atoms: C_31  and  OXT_33
REMARK                            x       y       z     vdW  Elec       q    Type
REMARK                         _______ _______ _______ _____ _____    ______ ____
ROOT
ATOM      1  CA  VAL A   2       1.565   8.904  20.099  0.00  0.00    +0.000 C 
ENDROOT
BRANCH   1   3
ATOM      2  N   ILE A   3       2.796   6.805  19.788  0.00  0.00    +0.000 N 
ATOM      3  C   VAL A   2       2.001   7.741  19.181  0.00  0.00    +0.000 C 
ATOM      4  O   VAL A   2       1.717   7.692  17.985  0.00  0.00    +0.000 OA
ATOM      5  H   ILE A   3       3.163   6.986  20.724  0.00  0.00    +0.000 HD
BRANCH   2   6
ATOM      6  CA  ILE A   3       3.261   5.599  19.105  0.00  0.00    +0.000 C 
BRANCH   6   7
ATOM      7  C   ILE A   3       4.378   6.062  18.142  0.00  0.00    +0.000 C 
ATOM      8  O   ILE A   3       4.130   6.632  17.076  0.00  0.00    +0.000 OA
ATOM      9  N   ALA A   4       5.669   5.832  18.558  0.00  0.00    +0.000 N 
ATOM     10  H   ALA A   4       5.856   5.358  19.435  0.00  0.00    +0.000 HD
BRANCH   9  11
ATOM     11  CA  ALA A   4       6.819   6.331  17.807  0.00  0.00    +0.000 C 
ATOM     12  CB  ALA A   4       8.027   6.552  18.713  0.00  0.00    +0.000 C 
BRANCH  11  13
ATOM     13  C   ALA A   4       7.179   5.317  16.720  0.00  0.00    +0.000 C 
ATOM     14  O   ALA A   4       7.907   4.351  16.907  0.00  0.00    +0.000 OA
BRANCH  13  15
ATOM     15  OXT ALA A   4       6.644   5.598  15.508  0.00  0.00    +0.000 OA
ATOM     16  HXT ALA A   4       6.778   6.518  15.206  0.00  0.00    +0.000 HD
ENDBRANCH  13  15
ENDBRANCH  11  13
ENDBRANCH   9  11
ENDBRANCH   6   7
BRANCH   6  17
ATOM     17  CB  ILE A   3       2.093   4.815  18.453  0.00  0.00    +0.000 C 
ATOM     18  CG2 ILE A   3       1.199   4.152  19.506  0.00  0.00    +0.000 C 
BRANCH  17  20
ATOM     19  CD1 ILE A   3       2.651   2.370  17.879  0.00  0.00    +0.000 C 
ATOM     20  CG1 ILE A   3       2.574   3.811  17.383  0.00  0.00    +0.000 C 
ENDBRANCH  17  20
ENDBRANCH   6  17
ENDBRANCH   2   6
ENDBRANCH   1   3
BRANCH   1  21
ATOM     21  N   VAL A   2       0.456   9.599  19.434  0.00  0.00    +0.000 N 
ATOM     22  C   UNK A   1       0.553  10.941  19.109  0.00  0.00    +0.000 C 
ATOM     23  O   UNK A   1       1.525  11.622  19.423  0.00  0.00    +0.000 OA
ATOM     24  H   VAL A   2      -0.193   9.029  18.907  0.00  0.00    +0.000 HD
BRANCH  22  25
ATOM     25  C   UNK A   1      -0.720  11.530  18.451  0.00  0.00    +0.000 C 
BRANCH  25  26
ATOM     26  N   UNK A   1      -1.764  10.480  18.475  0.00  0.00    +0.000 NA
ATOM     27  H   UNK A   1      -2.651  10.899  18.191  0.00  0.00    +0.000 HD
ATOM     28  H   UNK A   1      -1.902  10.164  19.435  0.00  0.00    +0.000 HD
ENDBRANCH  25  26
BRANCH  25  29
ATOM     29  C   UNK A   1      -1.146  12.804  19.207  0.00  0.00    +0.000 C 
BRANCH  29  30
ATOM     30  C   UNK A   1      -1.808  12.571  20.548  0.00  0.00    +0.000 A 
ATOM     31  C   UNK A   1      -1.065  12.054  21.622  0.00  0.00    +0.000 A 
ATOM     32  C   UNK A   1      -1.658  11.866  22.873  0.00  0.00    +0.000 A 
ATOM     33  C   UNK A   1      -2.997  12.195  23.050  0.00  0.00    +0.000 A 
ATOM     34  F   UNK A   1      -3.563  12.029  24.254  0.00  0.00    +0.000 F 
ATOM     35  C   UNK A   1      -3.753  12.697  22.000  0.00  0.00    +0.000 A 
ATOM     36  C   UNK A   1      -3.162  12.881  20.747  0.00  0.00    +0.000 A 
ENDBRANCH  29  30
ENDBRANCH  25  29
ENDBRANCH  22  25
ENDBRANCH   1  21
BRANCH   1  37
ATOM     37  CB  VAL A   2       1.143   8.359  21.484  0.00  0.00    +0.000 C 
ATOM     38  CG1 VAL A   2       1.609   9.293  22.609  0.00  0.00    +0.000 C 
ATOM     39  CG2 VAL A   2      -0.375   8.181  21.592  0.00  0.00    +0.000 C 
ENDBRANCH   1  37
TORSDOF 14
ENDMDL
MODEL 8
REMARK VINA RESULT:      -7.0      2.692      3.533
REMARK  Name = 
REMARK  19 active torsions:
REMARK  status: ('A' for Active; 'I' for Inactive)
REMARK    1  A    between atoms: CD1_1  and  CG1_2
REMARK    2  A    between atoms: CG1_2  and  CB_3
REMARK    3  A    between atoms: CB_3  and  CG2_4
REMARK    4  A    between atoms: CB_3  and  CA_5
REMARK    5  A    between atoms: CA_5  and  N_6
REMARK    6  A    between atoms: CA_5  and  C_26
REMARK    7  A    between atoms: C_7  and  CA_9
REMARK    8  A    between atoms: CA_9  and  N_10
REMARK    9  A    between atoms: CA_9  and  CB_23
REMARK   10  A    between atoms: C_11  and  C_13
REMARK   11  A    between atoms: C_13  and  N_14
REMARK   12  A    between atoms: C_13  and  C_15
REMARK   13  A    between atoms: C_15  and  C_16
REMARK   14  A    between atoms: CB_23  and  CG1_24
REMARK   15  A    between atoms: CB_23  and  CG2_25
REMARK   16  A    between atoms: N_28  and  CA_29
REMARK   17  A    between atoms: CA_29  and  CB_30
REMARK   18  A    between atoms: CA_29  and  C_31
REMARK   19  A    between atoms: C_31  and  OXT_33
REMARK                            x       y       z     vdW  Elec       q    Type
REMARK                         _______ _______ _______ _____ _____    ______ ____
ROOT
ATOM      1  CA  VAL A   2       1.509   9.283  19.930  0.00  0.00    +0.000 C 
ENDROOT
BRANCH   1   3
ATOM      2  N   ILE A   3       2.434   7.201  19.021  0.00  0.00    +0.000 N 
ATOM      3  C   VAL A   2       1.847   8.399  18.709  0.00  0.00    +0.000 C 
ATOM      4  O   VAL A   2       1.670   8.766  17.549  0.00  0.00    +0.000 OA
ATOM      5  H   ILE A   3       2.737   7.022  19.980  0.00  0.00    +0.000 HD
BRANCH   2   6
ATOM      6  CA  ILE A   3       2.773   6.199  18.011  0.00  0.00    +0.000 C 
BRANCH   6   7
ATOM      7  C   ILE A   3       1.918   4.955  18.346  0.00  0.00    +0.000 C 
ATOM      8  O   ILE A   3       1.123   4.469  17.536  0.00  0.00    +0.000 OA
ATOM      9  N   ALA A   4       2.116   4.401  19.588  0.00  0.00    +0.000 N 
ATOM     10  H   ALA A   4       2.770   4.817  20.245  0.00  0.00    +0.000 HD
BRANCH   9  11
ATOM     11  CA  ALA A   4       1.471   3.152  19.985  0.00  0.00    +0.000 C 
ATOM     12  CB  ALA A   4       1.804   2.017  19.022  0.00  0.00    +0.000 C 
BRANCH  11  13
ATOM     13  C   ALA A   4       1.939   2.778  21.393  0.00  0.00    +0.000 C 
ATOM     14  O   ALA A   4       1.191   2.699  22.359  0.00  0.00    +0.000 OA
BRANCH  13  15
ATOM     15  OXT ALA A   4       3.274   2.568  21.490  0.00  0.00    +0.000 OA
ATOM     16  HXT ALA A   4       3.750   3.225  22.035  0.00  0.00    +0.000 HD
ENDBRANCH  13  15
ENDBRANCH  11  13
ENDBRANCH   9  11
ENDBRANCH   6   7
BRANCH   6  17
ATOM     17  CB  ILE A   3       4.302   5.960  17.922  0.00  0.00    +0.000 C 
ATOM     18  CG2 ILE A   3       4.664   5.040  16.753  0.00  0.00    +0.000 C 
BRANCH  17  20
ATOM     19  CD1 ILE A   3       6.432   5.414  19.257  0.00  0.00    +0.000 C 
ATOM     20  CG1 ILE A   3       4.908   5.471  19.256  0.00  0.00    +0.000 C 
ENDBRANCH  17  20
ENDBRANCH   6  17
ENDBRANCH   2   6
ENDBRANCH   1   3
BRANCH   1  21
ATOM     21  N   VAL A   2       0.450  10.213  19.520  0.00  0.00    +0.000 N 
ATOM     22  C   UNK A   1       0.654  11.581  19.556  0.00  0.00    +0.000 C 
ATOM     23  O   UNK A   1       1.689  12.077  19.995  0.00  0.00    +0.000 OA
ATOM     24  H   VAL A   2      -0.257   9.855  18.891  0.00  0.00    +0.000 HD
BRANCH  22  25
ATOM     25  C   UNK A   1      -0.578  12.421  19.133  0.00  0.00    +0.000 C 
BRANCH  25  26
ATOM     26  N   UNK A   1      -0.507  12.612  17.666  0.00  0.00    +0.000 NA
ATOM     27  H   UNK A   1      -1.113  13.394  17.412  0.00  0.00    +0.000 HD
ATOM     28  H   UNK A   1      -0.903  11.795  17.201  0.00  0.00    +0.000 HD
ENDBRANCH  25  26
BRANCH  25  29
ATOM     29  C   UNK A   1      -1.866  11.700  19.574  0.00  0.00    +0.000 C 
BRANCH  29  30
ATOM     30  C   UNK A   1      -2.372  12.065  20.954  0.00  0.00    +0.000 A 
ATOM     31  C   UNK A   1      -1.624  11.728  22.093  0.00  0.00    +0.000 A 
ATOM     32  C   UNK A   1      -2.066  12.089  23.368  0.00  0.00    +0.000 A 
ATOM     33  C   UNK A   1      -3.258  12.789  23.504  0.00  0.00    +0.000 A 
ATOM     34  F   UNK A   1      -3.676  13.150  24.726  0.00  0.00    +0.000 F 
ATOM     35  C   UNK A   1      -4.020  13.125  22.393  0.00  0.00    +0.000 A 
ATOM     36  C   UNK A   1      -3.581  12.759  21.117  0.00  0.00    +0.000 A 
ENDBRANCH  29  30
ENDBRANCH  25  29
ENDBRANCH  22  25
ENDBRANCH   1  21
BRANCH   1  37
ATOM     37  CB  VAL A   2       1.061   8.400  21.118  0.00  0.00    +0.000 C 
ATOM     38  CG1 VAL A   2       1.545   8.985  22.453  0.00  0.00    +0.000 C 
ATOM     39  CG2 VAL A   2      -0.463   8.246  21.174  0.00  0.00    +0.000 C 
ENDBRANCH   1  37
TORSDOF 14
ENDMDL
MODEL 9
REMARK VINA RESULT:      -7.0      2.615      3.459
REMARK  Name = 
REMARK  19 active torsions:
REMARK  status: ('A' for Active; 'I' for Inactive)
REMARK    1  A    between atoms: CD1_1  and  CG1_2
REMARK    2  A    between atoms: CG1_2  and  CB_3
REMARK    3  A    between atoms: CB_3  and  CG2_4
REMARK    4  A    between atoms: CB_3  and  CA_5
REMARK    5  A    between atoms: CA_5  and  N_6
REMARK    6  A    between atoms: CA_5  and  C_26
REMARK    7  A    between atoms: C_7  and  CA_9
REMARK    8  A    between atoms: CA_9  and  N_10
REMARK    9  A    between atoms: CA_9  and  CB_23
REMARK   10  A    between atoms: C_11  and  C_13
REMARK   11  A    between atoms: C_13  and  N_14
REMARK   12  A    between atoms: C_13  and  C_15
REMARK   13  A    between atoms: C_15  and  C_16
REMARK   14  A    between atoms: CB_23  and  CG1_24
REMARK   15  A    between atoms: CB_23  and  CG2_25
REMARK   16  A    between atoms: N_28  and  CA_29
REMARK   17  A    between atoms: CA_29  and  CB_30
REMARK   18  A    between atoms: CA_29  and  C_31
REMARK   19  A    between atoms: C_31  and  OXT_33
REMARK                            x       y       z     vdW  Elec       q    Type
REMARK                         _______ _______ _______ _____ _____    ______ ____
ROOT
ATOM      1  CA  VAL A   2       1.473   9.301  19.873  0.00  0.00    +0.000 C 
ENDROOT
BRANCH   1   3
ATOM      2  N   ILE A   3       2.517   7.239  19.050  0.00  0.00    +0.000 N 
ATOM      3  C   VAL A   2       1.818   8.363  18.695  0.00  0.00    +0.000 C 
ATOM      4  O   VAL A   2       1.550   8.634  17.526  0.00  0.00    +0.000 OA
ATOM      5  H   ILE A   3       2.884   7.152  19.999  0.00  0.00    +0.000 HD
BRANCH   2   6
ATOM      6  CA  ILE A   3       2.884   6.200  18.089  0.00  0.00    +0.000 C 
BRANCH   6   7
ATOM      7  C   ILE A   3       2.305   4.881  18.652  0.00  0.00    +0.000 C 
ATOM      8  O   ILE A   3       1.446   4.232  18.049  0.00  0.00    +0.000 OA
ATOM      9  N   ALA A   4       2.827   4.455  19.851  0.00  0.00    +0.000 N 
ATOM     10  H   ALA A   4       3.529   5.003  20.337  0.00  0.00    +0.000 HD
BRANCH   9  11
ATOM     11  CA  ALA A   4       2.465   3.164  20.432  0.00  0.00    +0.000 C 
ATOM     12  CB  ALA A   4       0.991   3.119  20.824  0.00  0.00    +0.000 C 
BRANCH  11  13
ATOM     13  C   ALA A   4       2.752   2.062  19.410  0.00  0.00    +0.000 C 
ATOM     14  O   ALA A   4       3.878   1.757  19.039  0.00  0.00    +0.000 OA
BRANCH  13  15
ATOM     15  OXT ALA A   4       1.640   1.464  18.919  0.00  0.00    +0.000 OA
ATOM     16  HXT ALA A   4       0.894   1.412  19.549  0.00  0.00    +0.000 HD
ENDBRANCH  13  15
ENDBRANCH  11  13
ENDBRANCH   9  11
ENDBRANCH   6   7
BRANCH   6  17
ATOM     17  CB  ILE A   3       4.406   6.195  17.793  0.00  0.00    +0.000 C 
ATOM     18  CG2 ILE A   3       4.759   7.125  16.629  0.00  0.00    +0.000 C 
BRANCH  17  20
ATOM     19  CD1 ILE A   3       5.154   4.384  16.127  0.00  0.00    +0.000 C 
ATOM     20  CG1 ILE A   3       4.969   4.771  17.591  0.00  0.00    +0.000 C 
ENDBRANCH  17  20
ENDBRANCH   6  17
ENDBRANCH   2   6
ENDBRANCH   1   3
BRANCH   1  21
ATOM     21  N   VAL A   2       0.371  10.167  19.438  0.00  0.00    +0.000 N 
ATOM     22  C   UNK A   1       0.592  11.499  19.135  0.00  0.00    +0.000 C 
ATOM     23  O   UNK A   1       1.690  12.030  19.284  0.00  0.00    +0.000 OA
ATOM     24  H   VAL A   2      -0.433   9.714  19.024  0.00  0.00    +0.000 HD
BRANCH  22  25
ATOM     25  C   UNK A   1      -0.683  12.282  18.735  0.00  0.00    +0.000 C 
BRANCH  25  26
ATOM     26  N   UNK A   1      -1.802  11.314  18.670  0.00  0.00    +0.000 NA
ATOM     27  H   UNK A   1      -2.290  11.324  19.567  0.00  0.00    +0.000 HD
ATOM     28  H   UNK A   1      -1.425  10.371  18.572  0.00  0.00    +0.000 HD
ENDBRANCH  25  26
BRANCH  25  29
ATOM     29  C   UNK A   1      -0.935  13.410  19.755  0.00  0.00    +0.000 C 
BRANCH  29  30
ATOM     30  C   UNK A   1      -1.666  12.993  21.013  0.00  0.00    +0.000 A 
ATOM     31  C   UNK A   1      -3.018  13.327  21.189  0.00  0.00    +0.000 A 
ATOM     32  C   UNK A   1      -3.710  12.918  22.332  0.00  0.00    +0.000 A 
ATOM     33  C   UNK A   1      -3.048  12.174  23.301  0.00  0.00    +0.000 A 
ATOM     34  F   UNK A   1      -3.715  11.768  24.391  0.00  0.00    +0.000 F 
ATOM     35  C   UNK A   1      -1.709  11.840  23.153  0.00  0.00    +0.000 A 
ATOM     36  C   UNK A   1      -1.014  12.253  22.012  0.00  0.00    +0.000 A 
ENDBRANCH  29  30
ENDBRANCH  25  29
ENDBRANCH  22  25
ENDBRANCH   1  21
BRANCH   1  37
ATOM     37  CB  VAL A   2       1.083   8.469  21.118  0.00  0.00    +0.000 C 
ATOM     38  CG1 VAL A   2       1.597   9.130  22.405  0.00  0.00    +0.000 C 
ATOM     39  CG2 VAL A   2      -0.433   8.286  21.233  0.00  0.00    +0.000 C 
ENDBRANCH   1  37
TORSDOF 14
ENDMDL
