MODEL 1
REMARK VINA RESULT:      -7.7      0.000      0.000
REMARK  Name = 
REMARK  3 active torsions:
REMARK  status: ('A' for Active; 'I' for Inactive)
REMARK    1  A    between atoms: C_2  and  C_3
REMARK    2  A    between atoms: N_11  and  C_12
REMARK    3  A    between atoms: C_18  and  C_19
REMARK                            x       y       z     vdW  Elec       q    Type
REMARK                         _______ _______ _______ _____ _____    ______ ____
ROOT
ATOM      1  C   UNL     1       0.181  13.556  21.565  0.00  0.00    +0.000 A 
ATOM      2  C   UNL     1      -0.713  14.012  22.456  0.00  0.00    +0.000 A 
ATOM      3  C   UNL     1      -1.545  13.015  23.166  0.00  0.00    +0.000 A 
ATOM      4  N   UNL     1      -1.541  11.732  22.985  0.00  0.00    +0.000 NA
ATOM      5  C   UNL     1      -0.649  11.286  22.053  0.00  0.00    +0.000 A 
ATOM      6  C   UNL     1      -0.375  10.015  21.609  0.00  0.00    +0.000 A 
ATOM      7  C   UNL     1       0.662  10.140  20.656  0.00  0.00    +0.000 A 
ATOM      8  N   UNL     1       1.042  11.420  20.523  0.00  0.00    +0.000 NA
ATOM      9  N   UNL     1       0.222  12.137  21.354  0.00  0.00    +0.000 N 
ATOM     10  C   UNL     1      -2.407  13.673  24.192  0.00  0.00    +0.000 C 
ATOM     11  C   UNL     1      -2.063  15.160  24.078  0.00  0.00    +0.000 C 
ATOM     12  C   UNL     1      -0.980  15.361  23.011  0.00  0.00    +0.000 C 
ENDROOT
BRANCH   1  18
ATOM     13  O   UNL     1       3.643  17.106  17.744  0.00  0.00    +0.000 OA
ATOM     14  C   UNL     1       3.967  16.163  18.476  0.00  0.00    +0.000 C 
ATOM     15  N   UNL     1       3.022  15.287  18.995  0.00  0.00    +0.000 N 
ATOM     16  C   UNL     1       3.321  14.150  19.882  0.00  0.00    +0.000 C 
ATOM     17  C   UNL     1       2.535  14.272  21.186  0.00  0.00    +0.000 C 
ATOM     18  N   UNL     1       1.097  14.377  20.903  0.00  0.00    +0.000 N 
ATOM     19  C   UNL     1       0.743  15.497  20.006  0.00  0.00    +0.000 C 
ATOM     20  C   UNL     1       1.589  15.449  18.707  0.00  0.00    +0.000 C 
BRANCH  14  21
ATOM     21  C   UNL     1       5.432  15.975  18.941  0.00  0.00    +0.000 C 
ATOM     22  C   UNL     1       6.267  17.248  18.941  0.00  0.00    +0.000 C 
ATOM     23  C   UNL     1       7.671  16.697  18.873  0.00  0.00    +0.000 C 
ATOM     24  C   UNL     1       7.495  15.529  17.933  0.00  0.00    +0.000 C 
ATOM     25  O   UNL     1       6.176  15.026  18.159  0.00  0.00    +0.000 OA
ENDBRANCH  14  21
ENDBRANCH   1  18
BRANCH   7  26
ATOM     26  C   UNL     1       1.285   9.058  19.886  0.00  0.00    +0.000 A 
ATOM     27  C   UNL     1       1.529   9.209  18.509  0.00  0.00    +0.000 A 
ATOM     28  C   UNL     1       2.140   8.188  17.775  0.00  0.00    +0.000 A 
ATOM     29  C   UNL     1       2.503   7.009  18.415  0.00  0.00    +0.000 A 
ATOM     30  F   UNL     1       3.098   6.037  17.712  0.00  0.00    +0.000 F 
ATOM     31  C   UNL     1       2.261   6.831  19.771  0.00  0.00    +0.000 A 
ATOM     32  C   UNL     1       1.656   7.854  20.507  0.00  0.00    +0.000 A 
ENDBRANCH   7  26
TORSDOF 3
ENDMDL
MODEL 2
REMARK VINA RESULT:      -7.7      0.541      1.068
REMARK  Name = 
REMARK  3 active torsions:
REMARK  status: ('A' for Active; 'I' for Inactive)
REMARK    1  A    between atoms: C_2  and  C_3
REMARK    2  A    between atoms: N_11  and  C_12
REMARK    3  A    between atoms: C_18  and  C_19
REMARK                            x       y       z     vdW  Elec       q    Type
REMARK                         _______ _______ _______ _____ _____    ______ ____
ROOT
ATOM      1  C   UNL     1       0.110  13.654  21.615  0.00  0.00    +0.000 A 
ATOM      2  C   UNL     1      -0.791  14.086  22.511  0.00  0.00    +0.000 A 
ATOM      3  C   UNL     1      -1.606  13.068  23.211  0.00  0.00    +0.000 A 
ATOM      4  N   UNL     1      -1.582  11.787  23.015  0.00  0.00    +0.000 NA
ATOM      5  C   UNL     1      -0.683  11.365  22.078  0.00  0.00    +0.000 A 
ATOM      6  C   UNL     1      -0.389  10.104  21.620  0.00  0.00    +0.000 A 
ATOM      7  C   UNL     1       0.645  10.255  20.669  0.00  0.00    +0.000 A 
ATOM      8  N   UNL     1       1.004  11.543  20.548  0.00  0.00    +0.000 NA
ATOM      9  N   UNL     1       0.174  12.238  21.388  0.00  0.00    +0.000 N 
ATOM     10  C   UNL     1      -2.477  13.701  24.244  0.00  0.00    +0.000 C 
ATOM     11  C   UNL     1      -2.157  15.194  24.146  0.00  0.00    +0.000 C 
ATOM     12  C   UNL     1      -1.078  15.424  23.081  0.00  0.00    +0.000 C 
ENDROOT
BRANCH   1  18
ATOM     13  O   UNL     1       3.693  17.068  17.782  0.00  0.00    +0.000 OA
ATOM     14  C   UNL     1       4.004  16.315  18.712  0.00  0.00    +0.000 C 
ATOM     15  N   UNL     1       3.106  15.392  19.232  0.00  0.00    +0.000 N 
ATOM     16  C   UNL     1       3.392  14.469  20.344  0.00  0.00    +0.000 C 
ATOM     17  C   UNL     1       2.380  14.667  21.472  0.00  0.00    +0.000 C 
ATOM     18  N   UNL     1       1.012  14.496  20.961  0.00  0.00    +0.000 N 
ATOM     19  C   UNL     1       0.677  15.392  19.834  0.00  0.00    +0.000 C 
ATOM     20  C   UNL     1       1.737  15.277  18.707  0.00  0.00    +0.000 C 
BRANCH  14  21
ATOM     21  C   UNL     1       5.377  16.437  19.418  0.00  0.00    +0.000 C 
ATOM     22  C   UNL     1       5.590  17.742  20.171  0.00  0.00    +0.000 C 
ATOM     23  C   UNL     1       7.096  17.815  20.246  0.00  0.00    +0.000 C 
ATOM     24  C   UNL     1       7.494  17.280  18.892  0.00  0.00    +0.000 C 
ATOM     25  O   UNL     1       6.502  16.316  18.533  0.00  0.00    +0.000 OA
ENDBRANCH  14  21
ENDBRANCH   1  18
BRANCH   7  26
ATOM     26  C   UNL     1       1.285   9.192  19.886  0.00  0.00    +0.000 A 
ATOM     27  C   UNL     1       1.657   7.980  20.496  0.00  0.00    +0.000 A 
ATOM     28  C   UNL     1       2.250   6.958  19.751  0.00  0.00    +0.000 A 
ATOM     29  C   UNL     1       2.480   7.146  18.393  0.00  0.00    +0.000 A 
ATOM     30  F   UNL     1       3.039   6.160  17.679  0.00  0.00    +0.000 F 
ATOM     31  C   UNL     1       2.134   8.338  17.771  0.00  0.00    +0.000 A 
ATOM     32  C   UNL     1       1.535   9.359  18.514  0.00  0.00    +0.000 A 
ENDBRANCH   7  26
TORSDOF 3
ENDMDL
MODEL 3
REMARK VINA RESULT:      -7.6      0.982      1.376
REMARK  Name = 
REMARK  3 active torsions:
REMARK  status: ('A' for Active; 'I' for Inactive)
REMARK    1  A    between atoms: C_2  and  C_3
REMARK    2  A    between atoms: N_11  and  C_12
REMARK    3  A    between atoms: C_18  and  C_19
REMARK                            x       y       z     vdW  Elec       q    Type
REMARK                         _______ _______ _______ _____ _____    ______ ____
ROOT
ATOM      1  C   UNL     1       0.114  12.768  21.363  0.00  0.00    +0.000 A 
ATOM      2  C   UNL     1      -0.804  13.266  22.205  0.00  0.00    +0.000 A 
ATOM      3  C   UNL     1      -1.583  12.305  23.018  0.00  0.00    +0.000 A 
ATOM      4  N   UNL     1      -1.511  11.013  22.970  0.00  0.00    +0.000 NA
ATOM      5  C   UNL     1      -0.595  10.520  22.086  0.00  0.00    +0.000 A 
ATOM      6  C   UNL     1      -0.253   9.226  21.775  0.00  0.00    +0.000 A 
ATOM      7  C   UNL     1       0.776   9.306  20.811  0.00  0.00    +0.000 A 
ATOM      8  N   UNL     1       1.088  10.583  20.543  0.00  0.00    +0.000 NA
ATOM      9  N   UNL     1       0.231  11.339  21.299  0.00  0.00    +0.000 N 
ATOM     10  C   UNL     1      -2.480  13.020  23.973  0.00  0.00    +0.000 C 
ATOM     11  C   UNL     1      -2.215  14.503  23.704  0.00  0.00    +0.000 C 
ATOM     12  C   UNL     1      -1.143  14.649  22.618  0.00  0.00    +0.000 C 
ENDROOT
BRANCH   1  18
ATOM     13  O   UNL     1       3.811  15.645  17.210  0.00  0.00    +0.000 OA
ATOM     14  C   UNL     1       4.045  15.262  18.362  0.00  0.00    +0.000 C 
ATOM     15  N   UNL     1       3.216  14.355  19.011  0.00  0.00    +0.000 N 
ATOM     16  C   UNL     1       3.415  13.859  20.383  0.00  0.00    +0.000 C 
ATOM     17  C   UNL     1       2.183  14.148  21.237  0.00  0.00    +0.000 C 
ATOM     18  N   UNL     1       0.986  13.563  20.615  0.00  0.00    +0.000 N 
ATOM     19  C   UNL     1       0.746  14.020  19.230  0.00  0.00    +0.000 C 
ATOM     20  C   UNL     1       2.012  13.818  18.358  0.00  0.00    +0.000 C 
BRANCH  14  21
ATOM     21  C   UNL     1       5.215  15.857  19.184  0.00  0.00    +0.000 C 
ATOM     22  C   UNL     1       4.954  17.248  19.746  0.00  0.00    +0.000 C 
ATOM     23  C   UNL     1       6.357  17.760  19.969  0.00  0.00    +0.000 C 
ATOM     24  C   UNL     1       7.078  17.208  18.763  0.00  0.00    +0.000 C 
ATOM     25  O   UNL     1       6.448  15.963  18.453  0.00  0.00    +0.000 OA
ENDBRANCH  14  21
ENDBRANCH   1  18
BRANCH   7  26
ATOM     26  C   UNL     1       1.458   8.184  20.154  0.00  0.00    +0.000 A 
ATOM     27  C   UNL     1       1.553   6.934  20.791  0.00  0.00    +0.000 A 
ATOM     28  C   UNL     1       2.185   5.858  20.161  0.00  0.00    +0.000 A 
ATOM     29  C   UNL     1       2.730   6.031  18.894  0.00  0.00    +0.000 A 
ATOM     30  F   UNL     1       3.325   4.995  18.289  0.00  0.00    +0.000 F 
ATOM     31  C   UNL     1       2.660   7.259  18.250  0.00  0.00    +0.000 A 
ATOM     32  C   UNL     1       2.023   8.334  18.877  0.00  0.00    +0.000 A 
ENDBRANCH   7  26
TORSDOF 3
ENDMDL
MODEL 4
REMARK VINA RESULT:      -7.3      3.836      7.480
REMARK  Name = 
REMARK  3 active torsions:
REMARK  status: ('A' for Active; 'I' for Inactive)
REMARK    1  A    between atoms: C_2  and  C_3
REMARK    2  A    between atoms: N_11  and  C_12
REMARK    3  A    between atoms: C_18  and  C_19
REMARK                            x       y       z     vdW  Elec       q    Type
REMARK                         _______ _______ _______ _____ _____    ______ ____
ROOT
ATOM      1  C   UNL     1      -0.084  14.305  20.310  0.00  0.00    +0.000 A 
ATOM      2  C   UNL     1       0.227  15.551  19.921  0.00  0.00    +0.000 A 
ATOM      3  C   UNL     1       1.271  15.707  18.883  0.00  0.00    +0.000 A 
ATOM      4  N   UNL     1       1.965  14.760  18.335  0.00  0.00    +0.000 NA
ATOM      5  C   UNL     1       1.660  13.501  18.763  0.00  0.00    +0.000 A 
ATOM      6  C   UNL     1       2.183  12.280  18.409  0.00  0.00    +0.000 A 
ATOM      7  C   UNL     1       1.470  11.311  19.149  0.00  0.00    +0.000 A 
ATOM      8  N   UNL     1       0.529  11.884  19.914  0.00  0.00    +0.000 NA
ATOM      9  N   UNL     1       0.656  13.233  19.708  0.00  0.00    +0.000 N 
ATOM     10  C   UNL     1       1.420  17.138  18.488  0.00  0.00    +0.000 C 
ATOM     11  C   UNL     1       0.398  17.878  19.353  0.00  0.00    +0.000 C 
ATOM     12  C   UNL     1      -0.367  16.876  20.225  0.00  0.00    +0.000 C 
ENDROOT
BRANCH   1  18
ATOM     13  O   UNL     1      -4.140  12.110  24.543  0.00  0.00    +0.000 OA
ATOM     14  C   UNL     1      -4.321  12.491  23.381  0.00  0.00    +0.000 C 
ATOM     15  N   UNL     1      -3.266  12.631  22.487  0.00  0.00    +0.000 N 
ATOM     16  C   UNL     1      -3.394  13.090  21.094  0.00  0.00    +0.000 C 
ATOM     17  C   UNL     1      -2.513  14.315  20.855  0.00  0.00    +0.000 C 
ATOM     18  N   UNL     1      -1.117  14.011  21.202  0.00  0.00    +0.000 N 
ATOM     19  C   UNL     1      -0.935  13.534  22.589  0.00  0.00    +0.000 C 
ATOM     20  C   UNL     1      -1.881  12.342  22.889  0.00  0.00    +0.000 C 
BRANCH  14  21
ATOM     21  C   UNL     1      -5.721  12.939  22.892  0.00  0.00    +0.000 C 
ATOM     22  C   UNL     1      -6.488  13.811  23.876  0.00  0.00    +0.000 C 
ATOM     23  C   UNL     1      -7.914  13.612  23.419  0.00  0.00    +0.000 C 
ATOM     24  C   UNL     1      -7.915  12.147  23.056  0.00  0.00    +0.000 C 
ATOM     25  O   UNL     1      -6.604  11.851  22.573  0.00  0.00    +0.000 OA
ENDBRANCH  14  21
ENDBRANCH   1  18
BRANCH   7  26
ATOM     26  C   UNL     1       1.679   9.858  19.129  0.00  0.00    +0.000 A 
ATOM     27  C   UNL     1       1.450   9.087  20.282  0.00  0.00    +0.000 A 
ATOM     28  C   UNL     1       1.629   7.701  20.262  0.00  0.00    +0.000 A 
ATOM     29  C   UNL     1       2.045   7.082  19.089  0.00  0.00    +0.000 A 
ATOM     30  F   UNL     1       2.205   5.753  19.069  0.00  0.00    +0.000 F 
ATOM     31  C   UNL     1       2.289   7.823  17.941  0.00  0.00    +0.000 A 
ATOM     32  C   UNL     1       2.104   9.209  17.959  0.00  0.00    +0.000 A 
ENDBRANCH   7  26
TORSDOF 3
ENDMDL
MODEL 5
REMARK VINA RESULT:      -7.2      2.983      3.453
REMARK  Name = 
REMARK  3 active torsions:
REMARK  status: ('A' for Active; 'I' for Inactive)
REMARK    1  A    between atoms: C_2  and  C_3
REMARK    2  A    between atoms: N_11  and  C_12
REMARK    3  A    between atoms: C_18  and  C_19
REMARK                            x       y       z     vdW  Elec       q    Type
REMARK                         _______ _______ _______ _____ _____    ______ ____
ROOT
ATOM      1  C   UNL     1      -0.850  14.755  21.870  0.00  0.00    +0.000 A 
ATOM      2  C   UNL     1      -1.213  15.134  23.106  0.00  0.00    +0.000 A 
ATOM      3  C   UNL     1      -2.400  14.482  23.703  0.00  0.00    +0.000 A 
ATOM      4  N   UNL     1      -3.170  13.607  23.138  0.00  0.00    +0.000 NA
ATOM      5  C   UNL     1      -2.807  13.254  21.871  0.00  0.00    +0.000 A 
ATOM      6  C   UNL     1      -3.379  12.373  20.985  0.00  0.00    +0.000 A 
ATOM      7  C   UNL     1      -2.566  12.384  19.829  0.00  0.00    +0.000 A 
ATOM      8  N   UNL     1      -1.520  13.210  19.984  0.00  0.00    +0.000 NA
ATOM      9  N   UNL     1      -1.674  13.774  21.223  0.00  0.00    +0.000 N 
ATOM     10  C   UNL     1      -2.604  14.934  25.111  0.00  0.00    +0.000 C 
ATOM     11  C   UNL     1      -1.463  15.923  25.360  0.00  0.00    +0.000 C 
ATOM     12  C   UNL     1      -0.578  16.019  24.112  0.00  0.00    +0.000 C 
ENDROOT
BRANCH   1  18
ATOM     13  O   UNL     1       3.654  17.128  18.228  0.00  0.00    +0.000 OA
ATOM     14  C   UNL     1       3.559  16.019  18.766  0.00  0.00    +0.000 C 
ATOM     15  N   UNL     1       2.348  15.551  19.261  0.00  0.00    +0.000 N 
ATOM     16  C   UNL     1       2.152  14.252  19.926  0.00  0.00    +0.000 C 
ATOM     17  C   UNL     1       1.559  14.452  21.319  0.00  0.00    +0.000 C 
ATOM     18  N   UNL     1       0.304  15.213  21.231  0.00  0.00    +0.000 N 
ATOM     19  C   UNL     1       0.444  16.523  20.561  0.00  0.00    +0.000 C 
ATOM     20  C   UNL     1       1.123  16.361  19.176  0.00  0.00    +0.000 C 
BRANCH  14  21
ATOM     21  C   UNL     1       4.808  15.138  19.017  0.00  0.00    +0.000 C 
ATOM     22  C   UNL     1       6.002  15.881  19.601  0.00  0.00    +0.000 C 
ATOM     23  C   UNL     1       7.149  14.979  19.213  0.00  0.00    +0.000 C 
ATOM     24  C   UNL     1       6.732  14.535  17.832  0.00  0.00    +0.000 C 
ATOM     25  O   UNL     1       5.304  14.479  17.840  0.00  0.00    +0.000 OA
ENDBRANCH  14  21
ENDBRANCH   1  18
BRANCH   7  26
ATOM     26  C   UNL     1      -2.778  11.619  18.596  0.00  0.00    +0.000 A 
ATOM     27  C   UNL     1      -1.766  10.781  18.091  0.00  0.00    +0.000 A 
ATOM     28  C   UNL     1      -1.971  10.036  16.927  0.00  0.00    +0.000 A 
ATOM     29  C   UNL     1      -3.185  10.131  16.258  0.00  0.00    +0.000 A 
ATOM     30  F   UNL     1      -3.382   9.407  15.148  0.00  0.00    +0.000 F 
ATOM     31  C   UNL     1      -4.194  10.960  16.728  0.00  0.00    +0.000 A 
ATOM     32  C   UNL     1      -3.993  11.701  17.897  0.00  0.00    +0.000 A 
ENDBRANCH   7  26
TORSDOF 3
ENDMDL
MODEL 6
REMARK VINA RESULT:      -7.0      4.259      8.321
REMARK  Name = 
REMARK  3 active torsions:
REMARK  status: ('A' for Active; 'I' for Inactive)
REMARK    1  A    between atoms: C_2  and  C_3
REMARK    2  A    between atoms: N_11  and  C_12
REMARK    3  A    between atoms: C_18  and  C_19
REMARK                            x       y       z     vdW  Elec       q    Type
REMARK                         _______ _______ _______ _____ _____    ______ ____
ROOT
ATOM      1  C   UNL     1       0.527  11.826  19.600  0.00  0.00    +0.000 A 
ATOM      2  C   UNL     1       1.393  12.603  18.932  0.00  0.00    +0.000 A 
ATOM      3  C   UNL     1       1.198  14.068  19.003  0.00  0.00    +0.000 A 
ATOM      4  N   UNL     1       0.238  14.694  19.608  0.00  0.00    +0.000 NA
ATOM      5  C   UNL     1      -0.653  13.889  20.257  0.00  0.00    +0.000 A 
ATOM      6  C   UNL     1      -1.775  14.199  20.989  0.00  0.00    +0.000 A 
ATOM      7  C   UNL     1      -2.299  12.972  21.453  0.00  0.00    +0.000 A 
ATOM      8  N   UNL     1      -1.537  11.941  21.057  0.00  0.00    +0.000 NA
ATOM      9  N   UNL     1      -0.539  12.490  20.295  0.00  0.00    +0.000 N 
ATOM     10  C   UNL     1       2.300  14.787  18.299  0.00  0.00    +0.000 C 
ATOM     11  C   UNL     1       3.206  13.671  17.775  0.00  0.00    +0.000 C 
ATOM     12  C   UNL     1       2.649  12.308  18.201  0.00  0.00    +0.000 C 
ENDROOT
BRANCH   1  18
ATOM     13  O   UNL     1       1.540   5.813  21.017  0.00  0.00    +0.000 OA
ATOM     14  C   UNL     1       1.834   6.459  20.004  0.00  0.00    +0.000 C 
ATOM     15  N   UNL     1       1.828   7.849  20.000  0.00  0.00    +0.000 N 
ATOM     16  C   UNL     1       2.151   8.691  18.836  0.00  0.00    +0.000 C 
ATOM     17  C   UNL     1       0.989   9.630  18.520  0.00  0.00    +0.000 C 
ATOM     18  N   UNL     1       0.654  10.439  19.702  0.00  0.00    +0.000 N 
ATOM     19  C   UNL     1       0.332   9.640  20.903  0.00  0.00    +0.000 C 
ATOM     20  C   UNL     1       1.458   8.615  21.199  0.00  0.00    +0.000 C 
BRANCH  14  21
ATOM     21  C   UNL     1       2.118   5.753  18.656  0.00  0.00    +0.000 C 
ATOM     22  C   UNL     1       1.498   4.369  18.521  0.00  0.00    +0.000 C 
ATOM     23  C   UNL     1       2.362   3.746  17.450  0.00  0.00    +0.000 C 
ATOM     24  C   UNL     1       3.726   4.280  17.810  0.00  0.00    +0.000 C 
ATOM     25  O   UNL     1       3.516   5.578  18.371  0.00  0.00    +0.000 OA
ENDBRANCH  14  21
ENDBRANCH   1  18
BRANCH   7  26
ATOM     26  C   UNL     1      -3.507  12.781  22.264  0.00  0.00    +0.000 A 
ATOM     27  C   UNL     1      -3.409  12.549  23.648  0.00  0.00    +0.000 A 
ATOM     28  C   UNL     1      -4.557  12.385  24.428  0.00  0.00    +0.000 A 
ATOM     29  C   UNL     1      -5.808  12.445  23.825  0.00  0.00    +0.000 A 
ATOM     30  F   UNL     1      -6.907  12.298  24.576  0.00  0.00    +0.000 F 
ATOM     31  C   UNL     1      -5.930  12.659  22.459  0.00  0.00    +0.000 A 
ATOM     32  C   UNL     1      -4.782  12.830  21.679  0.00  0.00    +0.000 A 
ENDBRANCH   7  26
TORSDOF 3
ENDMDL
MODEL 7
REMARK VINA RESULT:      -7.0      2.728      3.996
REMARK  Name = 
REMARK  3 active torsions:
REMARK  status: ('A' for Active; 'I' for Inactive)
REMARK    1  A    between atoms: C_2  and  C_3
REMARK    2  A    between atoms: N_11  and  C_12
REMARK    3  A    between atoms: C_18  and  C_19
REMARK                            x       y       z     vdW  Elec       q    Type
REMARK                         _______ _______ _______ _____ _____    ______ ____
ROOT
ATOM      1  C   UNL     1       2.210  14.937  19.000  0.00  0.00    +0.000 A 
ATOM      2  C   UNL     1       1.471  16.006  18.665  0.00  0.00    +0.000 A 
ATOM      3  C   UNL     1       0.001  15.837  18.618  0.00  0.00    +0.000 A 
ATOM      4  N   UNL     1      -0.659  14.741  18.820  0.00  0.00    +0.000 NA
ATOM      5  C   UNL     1       0.108  13.655  19.129  0.00  0.00    +0.000 A 
ATOM      6  C   UNL     1      -0.244  12.355  19.400  0.00  0.00    +0.000 A 
ATOM      7  C   UNL     1       0.957  11.666  19.681  0.00  0.00    +0.000 A 
ATOM      8  N   UNL     1       2.013  12.492  19.616  0.00  0.00    +0.000 NA
ATOM      9  N   UNL     1       1.506  13.711  19.247  0.00  0.00    +0.000 N 
ATOM     10  C   UNL     1      -0.676  17.137  18.336  0.00  0.00    +0.000 C 
ATOM     11  C   UNL     1       0.472  18.140  18.205  0.00  0.00    +0.000 C 
ATOM     12  C   UNL     1       1.810  17.432  18.443  0.00  0.00    +0.000 C 
ENDROOT
BRANCH   1  18
ATOM     13  O   UNL     1       8.236  16.131  20.206  0.00  0.00    +0.000 OA
ATOM     14  C   UNL     1       7.690  15.721  19.175  0.00  0.00    +0.000 C 
ATOM     15  N   UNL     1       6.318  15.829  18.984  0.00  0.00    +0.000 N 
ATOM     16  C   UNL     1       5.590  15.356  17.796  0.00  0.00    +0.000 C 
ATOM     17  C   UNL     1       4.498  14.367  18.200  0.00  0.00    +0.000 C 
ATOM     18  N   UNL     1       3.594  14.983  19.182  0.00  0.00    +0.000 N 
ATOM     19  C   UNL     1       4.278  15.487  20.392  0.00  0.00    +0.000 C 
ATOM     20  C   UNL     1       5.449  16.428  20.009  0.00  0.00    +0.000 C 
BRANCH  14  21
ATOM     21  C   UNL     1       8.493  14.964  18.088  0.00  0.00    +0.000 C 
ATOM     22  C   UNL     1       8.769  13.501  18.406  0.00  0.00    +0.000 C 
ATOM     23  C   UNL     1       9.965  13.214  17.529  0.00  0.00    +0.000 C 
ATOM     24  C   UNL     1      10.743  14.503  17.645  0.00  0.00    +0.000 C 
ATOM     25  O   UNL     1       9.776  15.544  17.800  0.00  0.00    +0.000 OA
ENDBRANCH  14  21
ENDBRANCH   1  18
BRANCH   7  26
ATOM     26  C   UNL     1       1.101  10.244  20.010  0.00  0.00    +0.000 A 
ATOM     27  C   UNL     1       0.691   9.755  21.264  0.00  0.00    +0.000 A 
ATOM     28  C   UNL     1       0.809   8.397  21.574  0.00  0.00    +0.000 A 
ATOM     29  C   UNL     1       1.346   7.525  20.635  0.00  0.00    +0.000 A 
ATOM     30  F   UNL     1       1.447   6.223  20.931  0.00  0.00    +0.000 F 
ATOM     31  C   UNL     1       1.770   7.985  19.396  0.00  0.00    +0.000 A 
ATOM     32  C   UNL     1       1.646   9.342  19.082  0.00  0.00    +0.000 A 
ENDBRANCH   7  26
TORSDOF 3
ENDMDL
MODEL 8
REMARK VINA RESULT:      -7.0      0.777      1.273
REMARK  Name = 
REMARK  3 active torsions:
REMARK  status: ('A' for Active; 'I' for Inactive)
REMARK    1  A    between atoms: C_2  and  C_3
REMARK    2  A    between atoms: N_11  and  C_12
REMARK    3  A    between atoms: C_18  and  C_19
REMARK                            x       y       z     vdW  Elec       q    Type
REMARK                         _______ _______ _______ _____ _____    ______ ____
ROOT
ATOM      1  C   UNL     1       0.092  13.580  21.540  0.00  0.00    +0.000 A 
ATOM      2  C   UNL     1      -0.816  14.006  22.431  0.00  0.00    +0.000 A 
ATOM      3  C   UNL     1      -1.625  12.982  23.130  0.00  0.00    +0.000 A 
ATOM      4  N   UNL     1      -1.586  11.701  22.939  0.00  0.00    +0.000 NA
ATOM      5  C   UNL     1      -0.679  11.285  22.008  0.00  0.00    +0.000 A 
ATOM      6  C   UNL     1      -0.370  10.025  21.555  0.00  0.00    +0.000 A 
ATOM      7  C   UNL     1       0.666  10.184  20.608  0.00  0.00    +0.000 A 
ATOM      8  N   UNL     1       1.013  11.475  20.485  0.00  0.00    +0.000 NA
ATOM      9  N   UNL     1       0.172  12.164  21.318  0.00  0.00    +0.000 N 
ATOM     10  C   UNL     1      -2.507  13.610  24.158  0.00  0.00    +0.000 C 
ATOM     11  C   UNL     1      -2.201  15.106  24.055  0.00  0.00    +0.000 C 
ATOM     12  C   UNL     1      -1.120  15.343  22.995  0.00  0.00    +0.000 C 
ENDROOT
BRANCH   1  18
ATOM     13  O   UNL     1       3.534  17.164  17.732  0.00  0.00    +0.000 OA
ATOM     14  C   UNL     1       3.876  16.289  18.537  0.00  0.00    +0.000 C 
ATOM     15  N   UNL     1       2.964  15.375  19.049  0.00  0.00    +0.000 N 
ATOM     16  C   UNL     1       3.285  14.313  20.018  0.00  0.00    +0.000 C 
ATOM     17  C   UNL     1       2.410  14.447  21.262  0.00  0.00    +0.000 C 
ATOM     18  N   UNL     1       0.989  14.430  20.887  0.00  0.00    +0.000 N 
ATOM     19  C   UNL     1       0.615  15.470  19.906  0.00  0.00    +0.000 C 
ATOM     20  C   UNL     1       1.545  15.414  18.665  0.00  0.00    +0.000 C 
BRANCH  14  21
ATOM     21  C   UNL     1       5.318  16.236  19.100  0.00  0.00    +0.000 C 
ATOM     22  C   UNL     1       6.103  14.989  18.718  0.00  0.00    +0.000 C 
ATOM     23  C   UNL     1       7.156  14.943  19.800  0.00  0.00    +0.000 C 
ATOM     24  C   UNL     1       6.369  15.387  21.009  0.00  0.00    +0.000 C 
ATOM     25  O   UNL     1       5.387  16.311  20.534  0.00  0.00    +0.000 OA
ENDBRANCH  14  21
ENDBRANCH   1  18
BRANCH   7  26
ATOM     26  C   UNL     1       1.320   9.125  19.832  0.00  0.00    +0.000 A 
ATOM     27  C   UNL     1       1.707   7.921  20.449  0.00  0.00    +0.000 A 
ATOM     28  C   UNL     1       2.314   6.902  19.710  0.00  0.00    +0.000 A 
ATOM     29  C   UNL     1       2.543   7.086  18.351  0.00  0.00    +0.000 A 
ATOM     30  F   UNL     1       3.114   6.103  17.643  0.00  0.00    +0.000 F 
ATOM     31  C   UNL     1       2.182   8.270  17.722  0.00  0.00    +0.000 A 
ATOM     32  C   UNL     1       1.569   9.287  18.459  0.00  0.00    +0.000 A 
ENDBRANCH   7  26
TORSDOF 3
ENDMDL
MODEL 9
REMARK VINA RESULT:      -7.0      4.405      7.258
REMARK  Name = 
REMARK  3 active torsions:
REMARK  status: ('A' for Active; 'I' for Inactive)
REMARK    1  A    between atoms: C_2  and  C_3
REMARK    2  A    between atoms: N_11  and  C_12
REMARK    3  A    between atoms: C_18  and  C_19
REMARK                            x       y       z     vdW  Elec       q    Type
REMARK                         _______ _______ _______ _____ _____    ______ ____
ROOT
ATOM      1  C   UNL     1      -2.266  12.260  19.419  0.00  0.00    +0.000 A 
ATOM      2  C   UNL     1      -2.684  11.426  18.455  0.00  0.00    +0.000 A 
ATOM      3  C   UNL     1      -4.143  11.310  18.231  0.00  0.00    +0.000 A 
ATOM      4  N   UNL     1      -5.079  11.898  18.907  0.00  0.00    +0.000 NA
ATOM      5  C   UNL     1      -4.640  12.719  19.905  0.00  0.00    +0.000 A 
ATOM      6  C   UNL     1      -5.335  13.488  20.807  0.00  0.00    +0.000 A 
ATOM      7  C   UNL     1      -4.368  14.155  21.592  0.00  0.00    +0.000 A 
ATOM      8  N   UNL     1      -3.126  13.846  21.192  0.00  0.00    +0.000 NA
ATOM      9  N   UNL     1      -3.279  12.939  20.176  0.00  0.00    +0.000 N 
ATOM     10  C   UNL     1      -4.435  10.431  17.062  0.00  0.00    +0.000 C 
ATOM     11  C   UNL     1      -3.055   9.994  16.563  0.00  0.00    +0.000 C 
ATOM     12  C   UNL     1      -1.964  10.645  17.420  0.00  0.00    +0.000 C 
ENDROOT
BRANCH   1  18
ATOM     13  O   UNL     1       3.473  13.551  21.561  0.00  0.00    +0.000 OA
ATOM     14  C   UNL     1       2.810  14.091  20.667  0.00  0.00    +0.000 C 
ATOM     15  N   UNL     1       1.440  13.888  20.553  0.00  0.00    +0.000 N 
ATOM     16  C   UNL     1       0.582  14.480  19.514  0.00  0.00    +0.000 C 
ATOM     17  C   UNL     1      -0.151  13.385  18.741  0.00  0.00    +0.000 C 
ATOM     18  N   UNL     1      -0.920  12.540  19.666  0.00  0.00    +0.000 N 
ATOM     19  C   UNL     1      -0.106  11.929  20.738  0.00  0.00    +0.000 C 
ATOM     20  C   UNL     1       0.717  13.010  21.486  0.00  0.00    +0.000 C 
BRANCH  14  21
ATOM     21  C   UNL     1       3.490  14.934  19.561  0.00  0.00    +0.000 C 
ATOM     22  C   UNL     1       3.927  14.141  18.337  0.00  0.00    +0.000 C 
ATOM     23  C   UNL     1       4.991  15.039  17.750  0.00  0.00    +0.000 C 
ATOM     24  C   UNL     1       5.673  15.555  18.993  0.00  0.00    +0.000 C 
ATOM     25  O   UNL     1       4.663  15.638  20.002  0.00  0.00    +0.000 OA
ENDBRANCH  14  21
ENDBRANCH   1  18
BRANCH   7  26
ATOM     26  C   UNL     1      -4.621  15.078  22.704  0.00  0.00    +0.000 A 
ATOM     27  C   UNL     1      -3.646  15.286  23.696  0.00  0.00    +0.000 A 
ATOM     28  C   UNL     1      -3.875  16.178  24.748  0.00  0.00    +0.000 A 
ATOM     29  C   UNL     1      -5.084  16.860  24.815  0.00  0.00    +0.000 A 
ATOM     30  F   UNL     1      -5.296  17.722  25.817  0.00  0.00    +0.000 F 
ATOM     31  C   UNL     1      -6.067  16.662  23.855  0.00  0.00    +0.000 A 
ATOM     32  C   UNL     1      -5.836  15.775  22.799  0.00  0.00    +0.000 A 
ENDBRANCH   7  26
TORSDOF 3
ENDMDL
