MODEL 1
REMARK VINA RESULT:      -8.0      0.000      0.000
REMARK  Name = 
REMARK  2 active torsions:
REMARK  status: ('A' for Active; 'I' for Inactive)
REMARK    1  A    between atoms: N_3  and  C_4
REMARK    2  A    between atoms: C_8  and  C_9
REMARK                            x       y       z     vdW  Elec       q    Type
REMARK                         _______ _______ _______ _____ _____    ______ ____
ROOT
ATOM      1  O   UNL     1       2.132   6.322  20.861  0.00  0.00    +0.000 OA
ATOM      2  C   UNL     1       1.983   7.191  20.003  0.00  0.00    +0.000 C 
ATOM      3  N   UNL     1       2.280   7.017  18.674  0.00  0.00    +0.000 N 
ATOM      4  N   UNL     1       1.485   8.435  20.346  0.00  0.00    +0.000 N 
ATOM      5  C   UNL     1       1.185   9.574  19.449  0.00  0.00    +0.000 C 
ATOM      6  C   UNL     1      -0.252  10.116  19.657  0.00  0.00    +0.000 C 
ATOM      7  N   UNL     1      -0.414  10.377  21.086  0.00  0.00    +0.000 N 
ATOM      8  C   UNL     1      -1.181  11.437  21.525  0.00  0.00    +0.000 A 
ATOM      9  C   UNL     1      -0.876  12.009  22.753  0.00  0.00    +0.000 A 
ATOM     10  C   UNL     1      -1.604  13.108  23.141  0.00  0.00    +0.000 A 
ATOM     11  N   UNL     1      -2.595  13.621  22.402  0.00  0.00    +0.000 NA
ATOM     12  C   UNL     1      -2.806  12.992  21.238  0.00  0.00    +0.000 A 
ATOM     13 CL   UNL     1      -4.081  13.599  20.280  0.00  0.00    +0.000 Cl
ATOM     14  N   UNL     1      -2.142  11.937  20.741  0.00  0.00    +0.000 NA
ATOM     15  C   UNL     1      -0.277   9.182  21.927  0.00  0.00    +0.000 C 
ATOM     16  C   UNL     1       1.160   8.668  21.765  0.00  0.00    +0.000 C 
ATOM     17  H   UNL     1       2.458   7.850  18.143  0.00  0.00    +0.000 HD
ENDROOT
BRANCH   3  18
ATOM     18  C   UNL     1       2.671   5.809  18.062  0.00  0.00    +0.000 A 
ATOM     19  C   UNL     1       1.841   4.690  17.962  0.00  0.00    +0.000 A 
ATOM     20  C   UNL     1       2.308   3.504  17.392  0.00  0.00    +0.000 A 
ATOM     21  C   UNL     1       3.608   3.432  16.902  0.00  0.00    +0.000 A 
ATOM     22  C   UNL     1       4.446   4.553  16.954  0.00  0.00    +0.000 A 
ATOM     23  C   UNL     1       3.962   5.744  17.525  0.00  0.00    +0.000 A 
BRANCH  22  24
ATOM     24  C   UNL     1       5.856   4.494  16.428  0.00  0.00    +0.000 C 
ATOM     25  F   UNL     1       6.208   5.572  15.676  0.00  0.00    +0.000 F 
ATOM     26  F   UNL     1       6.781   4.413  17.424  0.00  0.00    +0.000 F 
ATOM     27  F   UNL     1       6.067   3.403  15.638  0.00  0.00    +0.000 F 
ENDBRANCH  22  24
ENDBRANCH   3  18
TORSDOF 2
ENDMDL
MODEL 2
REMARK VINA RESULT:      -7.6      1.470      1.827
REMARK  Name = 
REMARK  2 active torsions:
REMARK  status: ('A' for Active; 'I' for Inactive)
REMARK    1  A    between atoms: N_3  and  C_4
REMARK    2  A    between atoms: C_8  and  C_9
REMARK                            x       y       z     vdW  Elec       q    Type
REMARK                         _______ _______ _______ _____ _____    ______ ____
ROOT
ATOM      1  O   UNL     1       2.596   7.113  20.218  0.00  0.00    +0.000 OA
ATOM      2  C   UNL     1       2.290   7.715  19.190  0.00  0.00    +0.000 C 
ATOM      3  N   UNL     1       2.683   7.333  17.931  0.00  0.00    +0.000 N 
ATOM      4  N   UNL     1       1.500   8.849  19.251  0.00  0.00    +0.000 N 
ATOM      5  C   UNL     1       0.986   9.662  18.125  0.00  0.00    +0.000 C 
ATOM      6  C   UNL     1      -0.545   9.879  18.215  0.00  0.00    +0.000 C 
ATOM      7  N   UNL     1      -0.832  10.397  19.552  0.00  0.00    +0.000 N 
ATOM      8  C   UNL     1      -1.845  11.313  19.749  0.00  0.00    +0.000 A 
ATOM      9  C   UNL     1      -1.741  12.193  20.818  0.00  0.00    +0.000 A 
ATOM     10  C   UNL     1      -2.722  13.144  20.956  0.00  0.00    +0.000 A 
ATOM     11  N   UNL     1      -3.768  13.235  20.127  0.00  0.00    +0.000 NA
ATOM     12  C   UNL     1      -3.772  12.338  19.132  0.00  0.00    +0.000 A 
ATOM     13 CL   UNL     1      -5.105  12.402  18.069  0.00  0.00    +0.000 Cl
ATOM     14  N   UNL     1      -2.857  11.389  18.878  0.00  0.00    +0.000 NA
ATOM     15  C   UNL     1      -0.461   9.480  20.636  0.00  0.00    +0.000 C 
ATOM     16  C   UNL     1       1.063   9.299  20.585  0.00  0.00    +0.000 C 
ATOM     17  H   UNL     1       2.687   8.050  17.228  0.00  0.00    +0.000 HD
ENDROOT
BRANCH   3  18
ATOM     18  C   UNL     1       3.373   6.150  17.599  0.00  0.00    +0.000 A 
ATOM     19  C   UNL     1       2.800   4.878  17.664  0.00  0.00    +0.000 A 
ATOM     20  C   UNL     1       3.555   3.740  17.375  0.00  0.00    +0.000 A 
ATOM     21  C   UNL     1       4.890   3.866  17.003  0.00  0.00    +0.000 A 
ATOM     22  C   UNL     1       5.476   5.134  16.892  0.00  0.00    +0.000 A 
ATOM     23  C   UNL     1       4.703   6.272  17.179  0.00  0.00    +0.000 A 
BRANCH  22  24
ATOM     24  C   UNL     1       6.919   5.289  16.491  0.00  0.00    +0.000 C 
ATOM     25  F   UNL     1       7.755   4.396  17.089  0.00  0.00    +0.000 F 
ATOM     26  F   UNL     1       7.106   5.139  15.151  0.00  0.00    +0.000 F 
ATOM     27  F   UNL     1       7.411   6.523  16.797  0.00  0.00    +0.000 F 
ENDBRANCH  22  24
ENDBRANCH   3  18
TORSDOF 2
ENDMDL
MODEL 3
REMARK VINA RESULT:      -7.5      7.814     10.106
REMARK  Name = 
REMARK  2 active torsions:
REMARK  status: ('A' for Active; 'I' for Inactive)
REMARK    1  A    between atoms: N_3  and  C_4
REMARK    2  A    between atoms: C_8  and  C_9
REMARK                            x       y       z     vdW  Elec       q    Type
REMARK                         _______ _______ _______ _____ _____    ______ ____
ROOT
ATOM      1  O   UNL     1       7.645   9.520  17.119  0.00  0.00    +0.000 OA
ATOM      2  C   UNL     1       8.046   8.699  17.941  0.00  0.00    +0.000 C 
ATOM      3  N   UNL     1       9.002   8.966  18.890  0.00  0.00    +0.000 N 
ATOM      4  N   UNL     1       7.532   7.414  17.957  0.00  0.00    +0.000 N 
ATOM      5  C   UNL     1       7.848   6.319  18.902  0.00  0.00    +0.000 C 
ATOM      6  C   UNL     1       6.571   5.700  19.523  0.00  0.00    +0.000 C 
ATOM      7  N   UNL     1       5.679   5.346  18.419  0.00  0.00    +0.000 N 
ATOM      8  C   UNL     1       4.875   4.227  18.496  0.00  0.00    +0.000 A 
ATOM      9  C   UNL     1       4.506   3.597  17.315  0.00  0.00    +0.000 A 
ATOM     10  C   UNL     1       3.765   2.444  17.414  0.00  0.00    +0.000 A 
ATOM     11  N   UNL     1       3.372   1.931  18.585  0.00  0.00    +0.000 NA
ATOM     12  C   UNL     1       3.780   2.619  19.661  0.00  0.00    +0.000 A 
ATOM     13 CL   UNL     1       3.275   2.012  21.173  0.00  0.00    +0.000 Cl
ATOM     14  N   UNL     1       4.530   3.731  19.689  0.00  0.00    +0.000 NA
ATOM     15  C   UNL     1       5.254   6.493  17.609  0.00  0.00    +0.000 C 
ATOM     16  C   UNL     1       6.509   7.082  16.949  0.00  0.00    +0.000 C 
ATOM     17  H   UNL     1       9.499   8.175  19.259  0.00  0.00    +0.000 HD
ENDROOT
BRANCH   3  18
ATOM     18  C   UNL     1       9.575  10.225  19.160  0.00  0.00    +0.000 A 
ATOM     19  C   UNL     1      10.554  10.816  18.357  0.00  0.00    +0.000 A 
ATOM     20  C   UNL     1      11.122  12.041  18.710  0.00  0.00    +0.000 A 
ATOM     21  C   UNL     1      10.704  12.696  19.864  0.00  0.00    +0.000 A 
ATOM     22  C   UNL     1       9.695  12.142  20.664  0.00  0.00    +0.000 A 
ATOM     23  C   UNL     1       9.126  10.911  20.295  0.00  0.00    +0.000 A 
BRANCH  22  24
ATOM     24  C   UNL     1       9.230  12.837  21.917  0.00  0.00    +0.000 C 
ATOM     25  F   UNL     1       9.227  12.037  23.019  0.00  0.00    +0.000 F 
ATOM     26  F   UNL     1      10.003  13.911  22.235  0.00  0.00    +0.000 F 
ATOM     27  F   UNL     1       7.959  13.316  21.801  0.00  0.00    +0.000 F 
ENDBRANCH  22  24
ENDBRANCH   3  18
TORSDOF 2
ENDMDL
MODEL 4
REMARK VINA RESULT:      -7.5      1.945      2.467
REMARK  Name = 
REMARK  2 active torsions:
REMARK  status: ('A' for Active; 'I' for Inactive)
REMARK    1  A    between atoms: N_3  and  C_4
REMARK    2  A    between atoms: C_8  and  C_9
REMARK                            x       y       z     vdW  Elec       q    Type
REMARK                         _______ _______ _______ _____ _____    ______ ____
ROOT
ATOM      1  O   UNL     1       2.129   6.791  21.120  0.00  0.00    +0.000 OA
ATOM      2  C   UNL     1       1.975   7.670  20.274  0.00  0.00    +0.000 C 
ATOM      3  N   UNL     1       2.359   7.549  18.962  0.00  0.00    +0.000 N 
ATOM      4  N   UNL     1       1.379   8.871  20.614  0.00  0.00    +0.000 N 
ATOM      5  C   UNL     1       1.059  10.012  19.725  0.00  0.00    +0.000 C 
ATOM      6  C   UNL     1      -0.420  10.456  19.859  0.00  0.00    +0.000 C 
ATOM      7  N   UNL     1      -0.682  10.670  21.281  0.00  0.00    +0.000 N 
ATOM      8  C   UNL     1      -1.539  11.668  21.696  0.00  0.00    +0.000 A 
ATOM      9  C   UNL     1      -1.344  12.226  22.953  0.00  0.00    +0.000 A 
ATOM     10  C   UNL     1      -2.162  13.267  23.320  0.00  0.00    +0.000 A 
ATOM     11  N   UNL     1      -3.139  13.735  22.536  0.00  0.00    +0.000 NA
ATOM     12  C   UNL     1      -3.242  13.125  21.347  0.00  0.00    +0.000 A 
ATOM     13 CL   UNL     1      -4.495  13.675  20.328  0.00  0.00    +0.000 Cl
ATOM     14  N   UNL     1      -2.483  12.127  20.868  0.00  0.00    +0.000 NA
ATOM     15  C   UNL     1      -0.517   9.465  22.103  0.00  0.00    +0.000 C 
ATOM     16  C   UNL     1       0.958   9.047  22.016  0.00  0.00    +0.000 C 
ATOM     17  H   UNL     1       2.514   8.406  18.461  0.00  0.00    +0.000 HD
ENDROOT
BRANCH   3  18
ATOM     18  C   UNL     1       2.862   6.385  18.347  0.00  0.00    +0.000 A 
ATOM     19  C   UNL     1       3.962   6.379  17.486  0.00  0.00    +0.000 A 
ATOM     20  C   UNL     1       4.377   5.200  16.865  0.00  0.00    +0.000 A 
ATOM     21  C   UNL     1       3.703   4.008  17.114  0.00  0.00    +0.000 A 
ATOM     22  C   UNL     1       2.622   3.981  18.005  0.00  0.00    +0.000 A 
ATOM     23  C   UNL     1       2.218   5.174  18.628  0.00  0.00    +0.000 A 
BRANCH  22  24
ATOM     24  C   UNL     1       1.881   2.700  18.286  0.00  0.00    +0.000 C 
ATOM     25  F   UNL     1       0.526   2.839  18.292  0.00  0.00    +0.000 F 
ATOM     26  F   UNL     1       2.154   1.729  17.371  0.00  0.00    +0.000 F 
ATOM     27  F   UNL     1       2.207   2.169  19.498  0.00  0.00    +0.000 F 
ENDBRANCH  22  24
ENDBRANCH   3  18
TORSDOF 2
ENDMDL
MODEL 5
REMARK VINA RESULT:      -7.4      5.703      9.238
REMARK  Name = 
REMARK  2 active torsions:
REMARK  status: ('A' for Active; 'I' for Inactive)
REMARK    1  A    between atoms: N_3  and  C_4
REMARK    2  A    between atoms: C_8  and  C_9
REMARK                            x       y       z     vdW  Elec       q    Type
REMARK                         _______ _______ _______ _____ _____    ______ ____
ROOT
ATOM      1  O   UNL     1       0.785  11.430  20.699  0.00  0.00    +0.000 OA
ATOM      2  C   UNL     1       0.914  11.116  19.517  0.00  0.00    +0.000 C 
ATOM      3  N   UNL     1       0.962  12.019  18.484  0.00  0.00    +0.000 N 
ATOM      4  N   UNL     1       1.027   9.786  19.154  0.00  0.00    +0.000 N 
ATOM      5  C   UNL     1       1.247   9.228  17.800  0.00  0.00    +0.000 C 
ATOM      6  C   UNL     1       2.441   8.241  17.764  0.00  0.00    +0.000 C 
ATOM      7  N   UNL     1       2.224   7.259  18.826  0.00  0.00    +0.000 N 
ATOM      8  C   UNL     1       2.614   5.946  18.660  0.00  0.00    +0.000 A 
ATOM      9  C   UNL     1       1.926   4.960  19.355  0.00  0.00    +0.000 A 
ATOM     10  C   UNL     1       2.281   3.653  19.123  0.00  0.00    +0.000 A 
ATOM     11  N   UNL     1       3.264   3.305  18.286  0.00  0.00    +0.000 NA
ATOM     12  C   UNL     1       3.862   4.333  17.669  0.00  0.00    +0.000 A 
ATOM     13 CL   UNL     1       5.141   3.932  16.613  0.00  0.00    +0.000 Cl
ATOM     14  N   UNL     1       3.581   5.640  17.789  0.00  0.00    +0.000 NA
ATOM     15  C   UNL     1       2.184   7.840  20.173  0.00  0.00    +0.000 C 
ATOM     16  C   UNL     1       0.973   8.782  20.232  0.00  0.00    +0.000 C 
ATOM     17  H   UNL     1       0.717  11.670  17.574  0.00  0.00    +0.000 HD
ENDROOT
BRANCH   3  18
ATOM     18  C   UNL     1       1.000  13.422  18.608  0.00  0.00    +0.000 A 
ATOM     19  C   UNL     1      -0.070  14.185  19.080  0.00  0.00    +0.000 A 
ATOM     20  C   UNL     1       0.012  15.578  19.126  0.00  0.00    +0.000 A 
ATOM     21  C   UNL     1       1.175  16.221  18.714  0.00  0.00    +0.000 A 
ATOM     22  C   UNL     1       2.276  15.475  18.274  0.00  0.00    +0.000 A 
ATOM     23  C   UNL     1       2.183  14.073  18.238  0.00  0.00    +0.000 A 
BRANCH  22  24
ATOM     24  C   UNL     1       3.543  16.154  17.824  0.00  0.00    +0.000 C 
ATOM     25  F   UNL     1       4.272  16.687  18.843  0.00  0.00    +0.000 F 
ATOM     26  F   UNL     1       4.382  15.308  17.165  0.00  0.00    +0.000 F 
ATOM     27  F   UNL     1       3.301  17.181  16.961  0.00  0.00    +0.000 F 
ENDBRANCH  22  24
ENDBRANCH   3  18
TORSDOF 2
ENDMDL
MODEL 6
REMARK VINA RESULT:      -7.4      3.208      5.059
REMARK  Name = 
REMARK  2 active torsions:
REMARK  status: ('A' for Active; 'I' for Inactive)
REMARK    1  A    between atoms: N_3  and  C_4
REMARK    2  A    between atoms: C_8  and  C_9
REMARK                            x       y       z     vdW  Elec       q    Type
REMARK                         _______ _______ _______ _____ _____    ______ ____
ROOT
ATOM      1  O   UNL     1       4.760   3.959  16.915  0.00  0.00    +0.000 OA
ATOM      2  C   UNL     1       4.830   5.168  16.704  0.00  0.00    +0.000 C 
ATOM      3  N   UNL     1       5.408   5.720  15.587  0.00  0.00    +0.000 N 
ATOM      4  N   UNL     1       4.306   6.069  17.613  0.00  0.00    +0.000 N 
ATOM      5  C   UNL     1       4.247   7.545  17.501  0.00  0.00    +0.000 C 
ATOM      6  C   UNL     1       2.816   8.089  17.744  0.00  0.00    +0.000 C 
ATOM      7  N   UNL     1       2.350   7.533  19.013  0.00  0.00    +0.000 N 
ATOM      8  C   UNL     1       1.538   8.270  19.849  0.00  0.00    +0.000 A 
ATOM      9  C   UNL     1       1.581   8.009  21.212  0.00  0.00    +0.000 A 
ATOM     10  C   UNL     1       0.819   8.801  22.036  0.00  0.00    +0.000 A 
ATOM     11  N   UNL     1       0.032   9.782  21.578  0.00  0.00    +0.000 NA
ATOM     12  C   UNL     1       0.064   9.947  20.248  0.00  0.00    +0.000 A 
ATOM     13 CL   UNL     1      -0.948  11.170  19.621  0.00  0.00    +0.000 Cl
ATOM     14  N   UNL     1       0.790   9.261  19.352  0.00  0.00    +0.000 NA
ATOM     15  C   UNL     1       2.262   6.068  19.022  0.00  0.00    +0.000 C 
ATOM     16  C   UNL     1       3.684   5.520  18.831  0.00  0.00    +0.000 C 
ATOM     17  H   UNL     1       5.724   6.670  15.671  0.00  0.00    +0.000 HD
ENDROOT
BRANCH   3  18
ATOM     18  C   UNL     1       5.888   5.015  14.465  0.00  0.00    +0.000 A 
ATOM     19  C   UNL     1       7.245   4.867  14.169  0.00  0.00    +0.000 A 
ATOM     20  C   UNL     1       7.654   4.203  13.011  0.00  0.00    +0.000 A 
ATOM     21  C   UNL     1       6.707   3.666  12.145  0.00  0.00    +0.000 A 
ATOM     22  C   UNL     1       5.341   3.767  12.441  0.00  0.00    +0.000 A 
ATOM     23  C   UNL     1       4.942   4.432  13.613  0.00  0.00    +0.000 A 
BRANCH  22  24
ATOM     24  C   UNL     1       4.302   3.192  11.515  0.00  0.00    +0.000 C 
ATOM     25  F   UNL     1       3.961   4.020  10.490  0.00  0.00    +0.000 F 
ATOM     26  F   UNL     1       4.706   2.027  10.938  0.00  0.00    +0.000 F 
ATOM     27  F   UNL     1       3.138   2.900  12.161  0.00  0.00    +0.000 F 
ENDBRANCH  22  24
ENDBRANCH   3  18
TORSDOF 2
ENDMDL
MODEL 7
REMARK VINA RESULT:      -7.3      2.230      2.762
REMARK  Name = 
REMARK  2 active torsions:
REMARK  status: ('A' for Active; 'I' for Inactive)
REMARK    1  A    between atoms: N_3  and  C_4
REMARK    2  A    between atoms: C_8  and  C_9
REMARK                            x       y       z     vdW  Elec       q    Type
REMARK                         _______ _______ _______ _____ _____    ______ ____
ROOT
ATOM      1  O   UNL     1       2.258   7.745  20.547  0.00  0.00    +0.000 OA
ATOM      2  C   UNL     1       1.874   8.265  19.501  0.00  0.00    +0.000 C 
ATOM      3  N   UNL     1       2.182   7.793  18.250  0.00  0.00    +0.000 N 
ATOM      4  N   UNL     1       1.075   9.394  19.533  0.00  0.00    +0.000 N 
ATOM      5  C   UNL     1       0.473  10.116  18.389  0.00  0.00    +0.000 C 
ATOM      6  C   UNL     1      -1.051  10.327  18.570  0.00  0.00    +0.000 C 
ATOM      7  N   UNL     1      -1.251  10.942  19.882  0.00  0.00    +0.000 N 
ATOM      8  C   UNL     1      -2.259  11.862  20.081  0.00  0.00    +0.000 A 
ATOM      9  C   UNL     1      -2.093  12.821  21.071  0.00  0.00    +0.000 A 
ATOM     10  C   UNL     1      -3.074  13.772  21.208  0.00  0.00    +0.000 A 
ATOM     11  N   UNL     1      -4.177  13.792  20.450  0.00  0.00    +0.000 NA
ATOM     12  C   UNL     1      -4.238  12.822  19.527  0.00  0.00    +0.000 A 
ATOM     13 CL   UNL     1      -5.643  12.796  18.560  0.00  0.00    +0.000 Cl
ATOM     14  N   UNL     1      -3.331  11.865  19.281  0.00  0.00    +0.000 NA
ATOM     15  C   UNL     1      -0.793  10.112  21.003  0.00  0.00    +0.000 C 
ATOM     16  C   UNL     1       0.726   9.940  20.857  0.00  0.00    +0.000 C 
ATOM     17  H   UNL     1       2.128   8.455  17.496  0.00  0.00    +0.000 HD
ENDROOT
BRANCH   3  18
ATOM     18  C   UNL     1       2.863   6.593  17.959  0.00  0.00    +0.000 A 
ATOM     19  C   UNL     1       4.146   6.548  17.409  0.00  0.00    +0.000 A 
ATOM     20  C   UNL     1       4.744   5.327  17.092  0.00  0.00    +0.000 A 
ATOM     21  C   UNL     1       4.068   4.136  17.339  0.00  0.00    +0.000 A 
ATOM     22  C   UNL     1       2.797   4.154  17.928  0.00  0.00    +0.000 A 
ATOM     23  C   UNL     1       2.208   5.390  18.248  0.00  0.00    +0.000 A 
BRANCH  22  24
ATOM     24  C   UNL     1       2.051   2.875  18.202  0.00  0.00    +0.000 C 
ATOM     25  F   UNL     1       2.355   2.309  19.403  0.00  0.00    +0.000 F 
ATOM     26  F   UNL     1       0.700   3.049  18.201  0.00  0.00    +0.000 F 
ATOM     27  F   UNL     1       2.302   1.919  17.264  0.00  0.00    +0.000 F 
ENDBRANCH  22  24
ENDBRANCH   3  18
TORSDOF 2
ENDMDL
MODEL 8
REMARK VINA RESULT:      -7.3      2.105      2.647
REMARK  Name = 
REMARK  2 active torsions:
REMARK  status: ('A' for Active; 'I' for Inactive)
REMARK    1  A    between atoms: N_3  and  C_4
REMARK    2  A    between atoms: C_8  and  C_9
REMARK                            x       y       z     vdW  Elec       q    Type
REMARK                         _______ _______ _______ _____ _____    ______ ____
ROOT
ATOM      1  O   UNL     1       2.578   7.215  20.273  0.00  0.00    +0.000 OA
ATOM      2  C   UNL     1       2.249   7.796  19.240  0.00  0.00    +0.000 C 
ATOM      3  N   UNL     1       2.622   7.395  17.982  0.00  0.00    +0.000 N 
ATOM      4  N   UNL     1       1.450   8.923  19.295  0.00  0.00    +0.000 N 
ATOM      5  C   UNL     1       0.908   9.712  18.164  0.00  0.00    +0.000 C 
ATOM      6  C   UNL     1      -0.623   9.916  18.278  0.00  0.00    +0.000 C 
ATOM      7  N   UNL     1      -0.891  10.456  19.610  0.00  0.00    +0.000 N 
ATOM      8  C   UNL     1      -1.908  11.366  19.809  0.00  0.00    +0.000 A 
ATOM      9  C   UNL     1      -1.794  12.266  20.860  0.00  0.00    +0.000 A 
ATOM     10  C   UNL     1      -2.781  13.212  20.999  0.00  0.00    +0.000 A 
ATOM     11  N   UNL     1      -3.842  13.278  20.188  0.00  0.00    +0.000 NA
ATOM     12  C   UNL     1      -3.855  12.363  19.209  0.00  0.00    +0.000 A 
ATOM     13 CL   UNL     1      -5.208  12.396  18.169  0.00  0.00    +0.000 Cl
ATOM     14  N   UNL     1      -2.937  11.418  18.955  0.00  0.00    +0.000 NA
ATOM     15  C   UNL     1      -0.492   9.562  20.704  0.00  0.00    +0.000 C 
ATOM     16  C   UNL     1       1.032   9.394  20.628  0.00  0.00    +0.000 C 
ATOM     17  H   UNL     1       2.608   8.099  17.265  0.00  0.00    +0.000 HD
ENDROOT
BRANCH   3  18
ATOM     18  C   UNL     1       3.317   6.212  17.659  0.00  0.00    +0.000 A 
ATOM     19  C   UNL     1       4.502   6.190  16.919  0.00  0.00    +0.000 A 
ATOM     20  C   UNL     1       5.113   4.980  16.585  0.00  0.00    +0.000 A 
ATOM     21  C   UNL     1       4.550   3.778  17.003  0.00  0.00    +0.000 A 
ATOM     22  C   UNL     1       3.384   3.775  17.780  0.00  0.00    +0.000 A 
ATOM     23  C   UNL     1       2.783   5.001  18.115  0.00  0.00    +0.000 A 
BRANCH  22  24
ATOM     24  C   UNL     1       2.761   2.484  18.241  0.00  0.00    +0.000 C 
ATOM     25  F   UNL     1       1.450   2.355  17.900  0.00  0.00    +0.000 F 
ATOM     26  F   UNL     1       3.391   1.391  17.730  0.00  0.00    +0.000 F 
ATOM     27  F   UNL     1       2.811   2.341  19.595  0.00  0.00    +0.000 F 
ENDBRANCH  22  24
ENDBRANCH   3  18
TORSDOF 2
ENDMDL
MODEL 9
REMARK VINA RESULT:      -7.2      2.647      3.245
REMARK  Name = 
REMARK  2 active torsions:
REMARK  status: ('A' for Active; 'I' for Inactive)
REMARK    1  A    between atoms: N_3  and  C_4
REMARK    2  A    between atoms: C_8  and  C_9
REMARK                            x       y       z     vdW  Elec       q    Type
REMARK                         _______ _______ _______ _____ _____    ______ ____
ROOT
ATOM      1  O   UNL     1       2.962   8.205  17.680  0.00  0.00    +0.000 OA
ATOM      2  C   UNL     1       2.236   8.025  18.656  0.00  0.00    +0.000 C 
ATOM      3  N   UNL     1       2.235   6.879  19.412  0.00  0.00    +0.000 N 
ATOM      4  N   UNL     1       1.353   9.009  19.062  0.00  0.00    +0.000 N 
ATOM      5  C   UNL     1       0.451   8.995  20.238  0.00  0.00    +0.000 C 
ATOM      6  C   UNL     1       0.613  10.265  21.110  0.00  0.00    +0.000 C 
ATOM      7  N   UNL     1       0.478  11.420  20.223  0.00  0.00    +0.000 N 
ATOM      8  C   UNL     1      -0.119  12.582  20.668  0.00  0.00    +0.000 A 
ATOM      9  C   UNL     1      -0.745  13.401  19.738  0.00  0.00    +0.000 A 
ATOM     10  C   UNL     1      -1.396  14.516  20.207  0.00  0.00    +0.000 A 
ATOM     11  N   UNL     1      -1.425  14.848  21.502  0.00  0.00    +0.000 NA
ATOM     12  C   UNL     1      -0.789  13.991  22.313  0.00  0.00    +0.000 A 
ATOM     13 CL   UNL     1      -0.780  14.395  23.971  0.00  0.00    +0.000 Cl
ATOM     14  N   UNL     1      -0.152  12.860  21.976  0.00  0.00    +0.000 NA
ATOM     15  C   UNL     1       1.500  11.485  19.173  0.00  0.00    +0.000 C 
ATOM     16  C   UNL     1       1.315  10.254  18.274  0.00  0.00    +0.000 C 
ATOM     17  H   UNL     1       1.400   6.691  19.938  0.00  0.00    +0.000 HD
ENDROOT
BRANCH   3  18
ATOM     18  C   UNL     1       3.129   5.797  19.282  0.00  0.00    +0.000 A 
ATOM     19  C   UNL     1       4.516   5.923  19.401  0.00  0.00    +0.000 A 
ATOM     20  C   UNL     1       5.351   4.822  19.206  0.00  0.00    +0.000 A 
ATOM     21  C   UNL     1       4.805   3.578  18.904  0.00  0.00    +0.000 A 
ATOM     22  C   UNL     1       3.415   3.419  18.818  0.00  0.00    +0.000 A 
ATOM     23  C   UNL     1       2.584   4.534  19.023  0.00  0.00    +0.000 A 
BRANCH  22  24
ATOM     24  C   UNL     1       2.806   2.081  18.492  0.00  0.00    +0.000 C 
ATOM     25  F   UNL     1       2.291   2.003  17.234  0.00  0.00    +0.000 F 
ATOM     26  F   UNL     1       3.703   1.062  18.594  0.00  0.00    +0.000 F 
ATOM     27  F   UNL     1       1.784   1.759  19.334  0.00  0.00    +0.000 F 
ENDBRANCH  22  24
ENDBRANCH   3  18
TORSDOF 2
ENDMDL
