MODEL 1
REMARK VINA RESULT:      -8.2      0.000      0.000
REMARK  Name = 
REMARK  5 active torsions:
REMARK  status: ('A' for Active; 'I' for Inactive)
REMARK    1  A    between atoms: C_1  and  C_2
REMARK    2  A    between atoms: C_7  and  N_8
REMARK    3  A    between atoms: N_11  and  C_12
REMARK    4  A    between atoms: C_12  and  C_13
REMARK    5  A    between atoms: C_16  and  N_17
REMARK                            x       y       z     vdW  Elec       q    Type
REMARK                         _______ _______ _______ _____ _____    ______ ____
ROOT
ATOM      1  C   UNL     1       2.256   5.743  20.657  0.00  0.00    +0.000 C 
ENDROOT
BRANCH   1   5
ATOM      2  N   UNL     1       4.968   3.711  19.273  0.00  0.00    +0.000 N 
ATOM      3  C   UNL     1       3.818   4.017  19.936  0.00  0.00    +0.000 C 
ATOM      4  O   UNL     1       3.113   3.110  20.374  0.00  0.00    +0.000 OA
ATOM      5  N   UNL     1       3.465   5.328  20.006  0.00  0.00    +0.000 N 
ATOM      6  H   UNL     1       5.091   2.718  19.155  0.00  0.00    +0.000 HD
ATOM      7  H   UNL     1       4.223   5.993  19.863  0.00  0.00    +0.000 HD
BRANCH   2  14
ATOM      8  C   UNL     1       5.039   4.096  16.376  0.00  0.00    +0.000 C 
ATOM      9  C   UNL     1       5.974   4.768  17.340  0.00  0.00    +0.000 A 
ATOM     10  C   UNL     1       6.942   5.650  16.840  0.00  0.00    +0.000 A 
ATOM     11  C   UNL     1       7.812   6.300  17.707  0.00  0.00    +0.000 A 
ATOM     12  C   UNL     1       7.693   6.040  19.055  0.00  0.00    +0.000 A 
ATOM     13  N   UNL     1       6.770   5.206  19.576  0.00  0.00    +0.000 NA
ATOM     14  C   UNL     1       5.922   4.578  18.727  0.00  0.00    +0.000 A 
ENDBRANCH   2  14
ENDBRANCH   1   5
BRANCH   1  15
ATOM     15  C   UNL     1       1.829   7.141  20.293  0.00  0.00    +0.000 A 
ATOM     16  C   UNL     1       2.174   7.697  19.057  0.00  0.00    +0.000 A 
ATOM     17  C   UNL     1       1.629   8.922  18.652  0.00  0.00    +0.000 A 
ATOM     18  C   UNL     1       0.735   9.631  19.465  0.00  0.00    +0.000 A 
ATOM     19  C   UNL     1       0.490   9.122  20.748  0.00  0.00    +0.000 A 
ATOM     20  C   UNL     1       1.023   7.890  21.156  0.00  0.00    +0.000 A 
BRANCH  18  21
ATOM     21  N   UNL     1       0.013  10.728  19.013  0.00  0.00    +0.000 N 
ATOM     22  C   UNL     1       0.320  12.050  19.562  0.00  0.00    +0.000 C 
ATOM     23  C   UNL     1       0.003  13.075  18.469  0.00  0.00    +0.000 C 
ATOM     24  N   UNL     1      -1.374  12.980  18.035  0.00  0.00    +0.000 N 
ATOM     25  C   UNL     1      -2.022  11.773  17.927  0.00  0.00    +0.000 C 
ATOM     26  O   UNL     1      -3.110  11.725  17.351  0.00  0.00    +0.000 OA
ATOM     27  C   UNL     1      -1.395  10.527  18.606  0.00  0.00    +0.000 C 
ATOM     28  H   UNL     1      -1.787  13.731  17.495  0.00  0.00    +0.000 HD
ENDBRANCH  18  21
ENDBRANCH   1  15
TORSDOF 4
ENDMDL
MODEL 2
REMARK VINA RESULT:      -8.1      1.140      1.812
REMARK  Name = 
REMARK  5 active torsions:
REMARK  status: ('A' for Active; 'I' for Inactive)
REMARK    1  A    between atoms: C_1  and  C_2
REMARK    2  A    between atoms: C_7  and  N_8
REMARK    3  A    between atoms: N_11  and  C_12
REMARK    4  A    between atoms: C_12  and  C_13
REMARK    5  A    between atoms: C_16  and  N_17
REMARK                            x       y       z     vdW  Elec       q    Type
REMARK                         _______ _______ _______ _____ _____    ______ ____
ROOT
ATOM      1  C   UNL     1       2.741   5.534  19.943  0.00  0.00    +0.000 C 
ENDROOT
BRANCH   1   5
ATOM      2  N   UNL     1       5.194   3.395  18.267  0.00  0.00    +0.000 N 
ATOM      3  C   UNL     1       4.332   3.833  19.227  0.00  0.00    +0.000 C 
ATOM      4  O   UNL     1       4.112   3.126  20.209  0.00  0.00    +0.000 OA
ATOM      5  N   UNL     1       3.689   5.010  19.003  0.00  0.00    +0.000 N 
ATOM      6  H   UNL     1       5.529   2.462  18.447  0.00  0.00    +0.000 HD
ATOM      7  H   UNL     1       4.131   5.626  18.324  0.00  0.00    +0.000 HD
BRANCH   2  14
ATOM      8  C   UNL     1       7.729   4.850  18.278  0.00  0.00    +0.000 C 
ATOM      9  C   UNL     1       6.816   4.754  17.089  0.00  0.00    +0.000 A 
ATOM     10  C   UNL     1       7.191   5.385  15.895  0.00  0.00    +0.000 A 
ATOM     11  C   UNL     1       6.376   5.301  14.772  0.00  0.00    +0.000 A 
ATOM     12  C   UNL     1       5.200   4.593  14.881  0.00  0.00    +0.000 A 
ATOM     13  N   UNL     1       4.808   3.964  16.009  0.00  0.00    +0.000 NA
ATOM     14  C   UNL     1       5.607   4.046  17.098  0.00  0.00    +0.000 A 
ENDBRANCH   2  14
ENDBRANCH   1   5
BRANCH   1  15
ATOM     15  C   UNL     1       2.295   6.937  19.625  0.00  0.00    +0.000 A 
ATOM     16  C   UNL     1       2.427   7.455  18.333  0.00  0.00    +0.000 A 
ATOM     17  C   UNL     1       1.853   8.689  18.000  0.00  0.00    +0.000 A 
ATOM     18  C   UNL     1       1.141   9.444  18.942  0.00  0.00    +0.000 A 
ATOM     19  C   UNL     1       1.118   8.970  20.261  0.00  0.00    +0.000 A 
ATOM     20  C   UNL     1       1.680   7.730  20.599  0.00  0.00    +0.000 A 
BRANCH  18  21
ATOM     21  N   UNL     1       0.381  10.555  18.598  0.00  0.00    +0.000 N 
ATOM     22  C   UNL     1       0.660  11.832  19.256  0.00  0.00    +0.000 C 
ATOM     23  C   UNL     1       0.296  12.938  18.262  0.00  0.00    +0.000 C 
ATOM     24  N   UNL     1      -1.086  12.841  17.843  0.00  0.00    +0.000 N 
ATOM     25  C   UNL     1      -1.702  11.629  17.640  0.00  0.00    +0.000 C 
ATOM     26  O   UNL     1      -2.798  11.600  17.078  0.00  0.00    +0.000 OA
ATOM     27  C   UNL     1      -1.029  10.348  18.197  0.00  0.00    +0.000 C 
ATOM     28  H   UNL     1      -1.529  13.624  17.376  0.00  0.00    +0.000 HD
ENDBRANCH  18  21
ENDBRANCH   1  15
TORSDOF 4
ENDMDL
MODEL 3
REMARK VINA RESULT:      -8.1      2.249      8.930
REMARK  Name = 
REMARK  5 active torsions:
REMARK  status: ('A' for Active; 'I' for Inactive)
REMARK    1  A    between atoms: C_1  and  C_2
REMARK    2  A    between atoms: C_7  and  N_8
REMARK    3  A    between atoms: N_11  and  C_12
REMARK    4  A    between atoms: C_12  and  C_13
REMARK    5  A    between atoms: C_16  and  N_17
REMARK                            x       y       z     vdW  Elec       q    Type
REMARK                         _______ _______ _______ _____ _____    ______ ____
ROOT
ATOM      1  C   UNL     1       1.070   8.484  20.970  0.00  0.00    +0.000 C 
ENDROOT
BRANCH   1   5
ATOM      2  N   UNL     1      -0.516  11.584  19.841  0.00  0.00    +0.000 N 
ATOM      3  C   UNL     1       0.292  10.757  20.562  0.00  0.00    +0.000 C 
ATOM      4  O   UNL     1       1.082  11.239  21.371  0.00  0.00    +0.000 OA
ATOM      5  N   UNL     1       0.235   9.427  20.284  0.00  0.00    +0.000 N 
ATOM      6  H   UNL     1      -0.324  12.558  20.016  0.00  0.00    +0.000 HD
ATOM      7  H   UNL     1      -0.614   9.114  19.817  0.00  0.00    +0.000 HD
BRANCH   2  14
ATOM      8  C   UNL     1      -3.188  12.738  20.115  0.00  0.00    +0.000 C 
ATOM      9  C   UNL     1      -2.786  11.788  19.024  0.00  0.00    +0.000 A 
ATOM     10  C   UNL     1      -3.736  11.428  18.057  0.00  0.00    +0.000 A 
ATOM     11  C   UNL     1      -3.392  10.564  17.024  0.00  0.00    +0.000 A 
ATOM     12  C   UNL     1      -2.104  10.075  16.995  0.00  0.00    +0.000 A 
ATOM     13  N   UNL     1      -1.160  10.404  17.900  0.00  0.00    +0.000 NA
ATOM     14  C   UNL     1      -1.499  11.249  18.902  0.00  0.00    +0.000 A 
ENDBRANCH   2  14
ENDBRANCH   1   5
BRANCH   1  15
ATOM     15  C   UNL     1       1.840   7.581  20.042  0.00  0.00    +0.000 A 
ATOM     16  C   UNL     1       2.253   8.030  18.784  0.00  0.00    +0.000 A 
ATOM     17  C   UNL     1       3.116   7.254  18.001  0.00  0.00    +0.000 A 
ATOM     18  C   UNL     1       3.586   6.010  18.441  0.00  0.00    +0.000 A 
ATOM     19  C   UNL     1       3.073   5.519  19.650  0.00  0.00    +0.000 A 
ATOM     20  C   UNL     1       2.217   6.296  20.445  0.00  0.00    +0.000 A 
BRANCH  18  21
ATOM     21  N   UNL     1       4.603   5.317  17.797  0.00  0.00    +0.000 N 
ATOM     22  C   UNL     1       4.247   4.278  16.829  0.00  0.00    +0.000 C 
ATOM     23  C   UNL     1       5.371   4.228  15.790  0.00  0.00    +0.000 C 
ATOM     24  N   UNL     1       6.654   3.969  16.407  0.00  0.00    +0.000 N 
ATOM     25  C   UNL     1       6.994   4.498  17.629  0.00  0.00    +0.000 C 
ATOM     26  O   UNL     1       8.164   4.431  18.008  0.00  0.00    +0.000 OA
ATOM     27  C   UNL     1       5.873   5.092  18.523  0.00  0.00    +0.000 C 
ATOM     28  H   UNL     1       7.441   3.682  15.837  0.00  0.00    +0.000 HD
ENDBRANCH  18  21
ENDBRANCH   1  15
TORSDOF 4
ENDMDL
MODEL 4
REMARK VINA RESULT:      -8.1      0.935      1.357
REMARK  Name = 
REMARK  5 active torsions:
REMARK  status: ('A' for Active; 'I' for Inactive)
REMARK    1  A    between atoms: C_1  and  C_2
REMARK    2  A    between atoms: C_7  and  N_8
REMARK    3  A    between atoms: N_11  and  C_12
REMARK    4  A    between atoms: C_12  and  C_13
REMARK    5  A    between atoms: C_16  and  N_17
REMARK                            x       y       z     vdW  Elec       q    Type
REMARK                         _______ _______ _______ _____ _____    ______ ____
ROOT
ATOM      1  C   UNL     1       2.246   5.707  20.582  0.00  0.00    +0.000 C 
ENDROOT
BRANCH   1   5
ATOM      2  N   UNL     1       4.963   3.721  19.141  0.00  0.00    +0.000 N 
ATOM      3  C   UNL     1       3.808   4.006  19.806  0.00  0.00    +0.000 C 
ATOM      4  O   UNL     1       3.096   3.084  20.201  0.00  0.00    +0.000 OA
ATOM      5  N   UNL     1       3.460   5.314  19.926  0.00  0.00    +0.000 N 
ATOM      6  H   UNL     1       5.084   2.734  18.985  0.00  0.00    +0.000 HD
ATOM      7  H   UNL     1       4.221   5.981  19.816  0.00  0.00    +0.000 HD
BRANCH   2  14
ATOM      8  C   UNL     1       4.946   4.364  16.290  0.00  0.00    +0.000 C 
ATOM      9  C   UNL     1       5.935   4.918  17.274  0.00  0.00    +0.000 A 
ATOM     10  C   UNL     1       6.914   5.813  16.818  0.00  0.00    +0.000 A 
ATOM     11  C   UNL     1       7.833   6.357  17.707  0.00  0.00    +0.000 A 
ATOM     12  C   UNL     1       7.753   5.981  19.029  0.00  0.00    +0.000 A 
ATOM     13  N   UNL     1       6.821   5.131  19.508  0.00  0.00    +0.000 NA
ATOM     14  C   UNL     1       5.926   4.607  18.640  0.00  0.00    +0.000 A 
ENDBRANCH   2  14
ENDBRANCH   1   5
BRANCH   1  15
ATOM     15  C   UNL     1       1.826   7.119  20.268  0.00  0.00    +0.000 A 
ATOM     16  C   UNL     1       2.150   7.707  19.042  0.00  0.00    +0.000 A 
ATOM     17  C   UNL     1       1.608   8.949  18.684  0.00  0.00    +0.000 A 
ATOM     18  C   UNL     1       0.740   9.643  19.537  0.00  0.00    +0.000 A 
ATOM     19  C   UNL     1       0.517   9.099  20.810  0.00  0.00    +0.000 A 
ATOM     20  C   UNL     1       1.046   7.851  21.170  0.00  0.00    +0.000 A 
BRANCH  18  21
ATOM     21  N   UNL     1       0.019  10.760  19.133  0.00  0.00    +0.000 N 
ATOM     22  C   UNL     1      -1.144  10.573  18.264  0.00  0.00    +0.000 C 
ATOM     23  C   UNL     1      -2.124  11.707  18.577  0.00  0.00    +0.000 C 
ATOM     24  N   UNL     1      -1.512  13.005  18.384  0.00  0.00    +0.000 N 
ATOM     25  C   UNL     1      -0.198  13.246  18.706  0.00  0.00    +0.000 C 
ATOM     26  O   UNL     1       0.211  14.408  18.730  0.00  0.00    +0.000 OA
ATOM     27  C   UNL     1       0.743  12.038  18.950  0.00  0.00    +0.000 C 
ATOM     28  H   UNL     1      -2.092  13.834  18.327  0.00  0.00    +0.000 HD
ENDBRANCH  18  21
ENDBRANCH   1  15
TORSDOF 4
ENDMDL
MODEL 5
REMARK VINA RESULT:      -7.9      0.980      1.010
REMARK  Name = 
REMARK  5 active torsions:
REMARK  status: ('A' for Active; 'I' for Inactive)
REMARK    1  A    between atoms: C_1  and  C_2
REMARK    2  A    between atoms: C_7  and  N_8
REMARK    3  A    between atoms: N_11  and  C_12
REMARK    4  A    between atoms: C_12  and  C_13
REMARK    5  A    between atoms: C_16  and  N_17
REMARK                            x       y       z     vdW  Elec       q    Type
REMARK                         _______ _______ _______ _____ _____    ______ ____
ROOT
ATOM      1  C   UNL     1       2.286   5.894  20.743  0.00  0.00    +0.000 C 
ENDROOT
BRANCH   1   5
ATOM      2  N   UNL     1       4.713   4.431  18.425  0.00  0.00    +0.000 N 
ATOM      3  C   UNL     1       3.574   4.560  19.162  0.00  0.00    +0.000 C 
ATOM      4  O   UNL     1       2.673   3.733  19.032  0.00  0.00    +0.000 OA
ATOM      5  N   UNL     1       3.461   5.658  19.955  0.00  0.00    +0.000 N 
ATOM      6  H   UNL     1       4.664   3.664  17.773  0.00  0.00    +0.000 HD
ATOM      7  H   UNL     1       4.338   6.116  20.194  0.00  0.00    +0.000 HD
BRANCH   2  14
ATOM      8  C   UNL     1       5.183   6.275  16.205  0.00  0.00    +0.000 C 
ATOM      9  C   UNL     1       6.105   6.115  17.380  0.00  0.00    +0.000 A 
ATOM     10  C   UNL     1       7.265   6.901  17.442  0.00  0.00    +0.000 A 
ATOM     11  C   UNL     1       8.130   6.789  18.524  0.00  0.00    +0.000 A 
ATOM     12  C   UNL     1       7.812   5.883  19.512  0.00  0.00    +0.000 A 
ATOM     13  N   UNL     1       6.702   5.117  19.494  0.00  0.00    +0.000 NA
ATOM     14  C   UNL     1       5.861   5.232  18.440  0.00  0.00    +0.000 A 
ENDBRANCH   2  14
ENDBRANCH   1   5
BRANCH   1  15
ATOM     15  C   UNL     1       1.686   7.259  20.530  0.00  0.00    +0.000 A 
ATOM     16  C   UNL     1       1.954   7.986  19.367  0.00  0.00    +0.000 A 
ATOM     17  C   UNL     1       1.258   9.171  19.093  0.00  0.00    +0.000 A 
ATOM     18  C   UNL     1       0.285   9.669  19.970  0.00  0.00    +0.000 A 
ATOM     19  C   UNL     1       0.111   8.995  21.187  0.00  0.00    +0.000 A 
ATOM     20  C   UNL     1       0.796   7.802  21.462  0.00  0.00    +0.000 A 
BRANCH  18  21
ATOM     21  N   UNL     1      -0.570  10.710  19.635  0.00  0.00    +0.000 N 
ATOM     22  C   UNL     1      -0.864  11.735  20.638  0.00  0.00    +0.000 C 
ATOM     23  C   UNL     1      -1.140  13.037  19.883  0.00  0.00    +0.000 C 
ATOM     24  N   UNL     1      -2.226  12.884  18.939  0.00  0.00    +0.000 N 
ATOM     25  C   UNL     1      -2.408  11.727  18.220  0.00  0.00    +0.000 C 
ATOM     26  O   UNL     1      -3.205  11.723  17.280  0.00  0.00    +0.000 OA
ATOM     27  C   UNL     1      -1.660  10.444  18.669  0.00  0.00    +0.000 C 
ATOM     28  H   UNL     1      -2.669  13.704  18.541  0.00  0.00    +0.000 HD
ENDBRANCH  18  21
ENDBRANCH   1  15
TORSDOF 4
ENDMDL
MODEL 6
REMARK VINA RESULT:      -7.9      2.517      8.711
REMARK  Name = 
REMARK  5 active torsions:
REMARK  status: ('A' for Active; 'I' for Inactive)
REMARK    1  A    between atoms: C_1  and  C_2
REMARK    2  A    between atoms: C_7  and  N_8
REMARK    3  A    between atoms: N_11  and  C_12
REMARK    4  A    between atoms: C_12  and  C_13
REMARK    5  A    between atoms: C_16  and  N_17
REMARK                            x       y       z     vdW  Elec       q    Type
REMARK                         _______ _______ _______ _____ _____    ______ ____
ROOT
ATOM      1  C   UNL     1       1.248   7.994  20.783  0.00  0.00    +0.000 C 
ENDROOT
BRANCH   1   5
ATOM      2  N   UNL     1      -0.280  11.222  19.977  0.00  0.00    +0.000 N 
ATOM      3  C   UNL     1       0.499  10.307  20.621  0.00  0.00    +0.000 C 
ATOM      4  O   UNL     1       1.267  10.682  21.504  0.00  0.00    +0.000 OA
ATOM      5  N   UNL     1       0.441   9.020  20.187  0.00  0.00    +0.000 N 
ATOM      6  H   UNL     1      -0.087  12.166  20.271  0.00  0.00    +0.000 HD
ATOM      7  H   UNL     1      -0.394   8.772  19.661  0.00  0.00    +0.000 HD
BRANCH   2  14
ATOM      8  C   UNL     1      -2.852  12.600  20.157  0.00  0.00    +0.000 C 
ATOM      9  C   UNL     1      -2.475  11.656  19.052  0.00  0.00    +0.000 A 
ATOM     10  C   UNL     1      -3.398  11.417  18.023  0.00  0.00    +0.000 A 
ATOM     11  C   UNL     1      -3.074  10.562  16.976  0.00  0.00    +0.000 A 
ATOM     12  C   UNL     1      -1.834   9.961  16.995  0.00  0.00    +0.000 A 
ATOM     13  N   UNL     1      -0.916  10.172  17.961  0.00  0.00    +0.000 NA
ATOM     14  C   UNL     1      -1.236  11.009  18.975  0.00  0.00    +0.000 A 
ENDBRANCH   2  14
ENDBRANCH   1   5
BRANCH   1  15
ATOM     15  C   UNL     1       2.149   7.294  19.800  0.00  0.00    +0.000 A 
ATOM     16  C   UNL     1       2.491   7.897  18.585  0.00  0.00    +0.000 A 
ATOM     17  C   UNL     1       3.464   7.325  17.757  0.00  0.00    +0.000 A 
ATOM     18  C   UNL     1       4.117   6.135  18.106  0.00  0.00    +0.000 A 
ATOM     19  C   UNL     1       3.682   5.479  19.266  0.00  0.00    +0.000 A 
ATOM     20  C   UNL     1       2.716   6.053  20.107  0.00  0.00    +0.000 A 
BRANCH  18  21
ATOM     21  N   UNL     1       5.229   5.658  17.425  0.00  0.00    +0.000 N 
ATOM     22  C   UNL     1       6.558   5.880  17.998  0.00  0.00    +0.000 C 
ATOM     23  C   UNL     1       7.442   4.713  17.549  0.00  0.00    +0.000 C 
ATOM     24  N   UNL     1       7.490   4.609  16.106  0.00  0.00    +0.000 N 
ATOM     25  C   UNL     1       6.391   4.863  15.320  0.00  0.00    +0.000 C 
ATOM     26  O   UNL     1       6.421   4.551  14.128  0.00  0.00    +0.000 OA
ATOM     27  C   UNL     1       5.182   5.605  15.947  0.00  0.00    +0.000 C 
ATOM     28  H   UNL     1       8.204   4.042  15.663  0.00  0.00    +0.000 HD
ENDBRANCH  18  21
ENDBRANCH   1  15
TORSDOF 4
ENDMDL
MODEL 7
REMARK VINA RESULT:      -7.8      2.019      2.553
REMARK  Name = 
REMARK  5 active torsions:
REMARK  status: ('A' for Active; 'I' for Inactive)
REMARK    1  A    between atoms: C_1  and  C_2
REMARK    2  A    between atoms: C_7  and  N_8
REMARK    3  A    between atoms: N_11  and  C_12
REMARK    4  A    between atoms: C_12  and  C_13
REMARK    5  A    between atoms: C_16  and  N_17
REMARK                            x       y       z     vdW  Elec       q    Type
REMARK                         _______ _______ _______ _____ _____    ______ ____
ROOT
ATOM      1  C   UNL     1       1.973   6.676  20.425  0.00  0.00    +0.000 C 
ENDROOT
BRANCH   1   5
ATOM      2  N   UNL     1       4.322   4.707  18.424  0.00  0.00    +0.000 N 
ATOM      3  C   UNL     1       3.167   5.047  19.061  0.00  0.00    +0.000 C 
ATOM      4  O   UNL     1       2.174   4.334  18.933  0.00  0.00    +0.000 OA
ATOM      5  N   UNL     1       3.153   6.220  19.749  0.00  0.00    +0.000 N 
ATOM      6  H   UNL     1       4.213   3.895  17.837  0.00  0.00    +0.000 HD
ATOM      7  H   UNL     1       4.067   6.582  20.014  0.00  0.00    +0.000 HD
BRANCH   2  14
ATOM      8  C   UNL     1       5.059   6.478  16.218  0.00  0.00    +0.000 C 
ATOM      9  C   UNL     1       5.936   6.198  17.405  0.00  0.00    +0.000 A 
ATOM     10  C   UNL     1       7.186   6.826  17.485  0.00  0.00    +0.000 A 
ATOM     11  C   UNL     1       8.014   6.601  18.579  0.00  0.00    +0.000 A 
ATOM     12  C   UNL     1       7.569   5.742  19.559  0.00  0.00    +0.000 A 
ATOM     13  N   UNL     1       6.369   5.126  19.523  0.00  0.00    +0.000 NA
ATOM     14  C   UNL     1       5.565   5.352  18.458  0.00  0.00    +0.000 A 
ENDBRANCH   2  14
ENDBRANCH   1   5
BRANCH   1  15
ATOM     15  C   UNL     1       1.548   8.062  20.019  0.00  0.00    +0.000 A 
ATOM     16  C   UNL     1       0.921   8.916  20.931  0.00  0.00    +0.000 A 
ATOM     17  C   UNL     1       0.688  10.258  20.605  0.00  0.00    +0.000 A 
ATOM     18  C   UNL     1       1.063  10.786  19.362  0.00  0.00    +0.000 A 
ATOM     19  C   UNL     1       1.583   9.893  18.414  0.00  0.00    +0.000 A 
ATOM     20  C   UNL     1       1.829   8.550  18.739  0.00  0.00    +0.000 A 
BRANCH  18  21
ATOM     21  N   UNL     1       1.048  12.147  19.086  0.00  0.00    +0.000 N 
ATOM     22  C   UNL     1      -0.206  12.765  18.652  0.00  0.00    +0.000 C 
ATOM     23  C   UNL     1      -0.179  14.219  19.130  0.00  0.00    +0.000 C 
ATOM     24  N   UNL     1       0.974  14.926  18.615  0.00  0.00    +0.000 N 
ATOM     25  C   UNL     1       2.200  14.319  18.480  0.00  0.00    +0.000 C 
ATOM     26  O   UNL     1       3.191  15.013  18.247  0.00  0.00    +0.000 OA
ATOM     27  C   UNL     1       2.277  12.771  18.547  0.00  0.00    +0.000 C 
ATOM     28  H   UNL     1       1.006  15.938  18.653  0.00  0.00    +0.000 HD
ENDBRANCH  18  21
ENDBRANCH   1  15
TORSDOF 4
ENDMDL
MODEL 8
REMARK VINA RESULT:      -7.8      2.690      8.984
REMARK  Name = 
REMARK  5 active torsions:
REMARK  status: ('A' for Active; 'I' for Inactive)
REMARK    1  A    between atoms: C_1  and  C_2
REMARK    2  A    between atoms: C_7  and  N_8
REMARK    3  A    between atoms: N_11  and  C_12
REMARK    4  A    between atoms: C_12  and  C_13
REMARK    5  A    between atoms: C_16  and  N_17
REMARK                            x       y       z     vdW  Elec       q    Type
REMARK                         _______ _______ _______ _____ _____    ______ ____
ROOT
ATOM      1  C   UNL     1       1.856   9.534  17.802  0.00  0.00    +0.000 C 
ENDROOT
BRANCH   1   5
ATOM      2  N   UNL     1       1.055  12.229  20.148  0.00  0.00    +0.000 N 
ATOM      3  C   UNL     1       1.616  11.596  19.079  0.00  0.00    +0.000 C 
ATOM      4  O   UNL     1       2.282  12.244  18.275  0.00  0.00    +0.000 OA
ATOM      5  N   UNL     1       1.336  10.276  18.915  0.00  0.00    +0.000 N 
ATOM      6  H   UNL     1       1.206  13.224  20.128  0.00  0.00    +0.000 HD
ATOM      7  H   UNL     1       1.018   9.789  19.751  0.00  0.00    +0.000 HD
BRANCH   2  14
ATOM      8  C   UNL     1      -1.363  13.622  21.019  0.00  0.00    +0.000 C 
ATOM      9  C   UNL     1      -0.862  12.342  21.623  0.00  0.00    +0.000 A 
ATOM     10  C   UNL     1      -1.594  11.755  22.665  0.00  0.00    +0.000 A 
ATOM     11  C   UNL     1      -1.167  10.561  23.235  0.00  0.00    +0.000 A 
ATOM     12  C   UNL     1      -0.009   9.993  22.750  0.00  0.00    +0.000 A 
ATOM     13  N   UNL     1       0.717  10.522  21.744  0.00  0.00    +0.000 NA
ATOM     14  C   UNL     1       0.295  11.682  21.190  0.00  0.00    +0.000 A 
ENDBRANCH   2  14
ENDBRANCH   1   5
BRANCH   1  15
ATOM     15  C   UNL     1       2.448   8.206  18.192  0.00  0.00    +0.000 A 
ATOM     16  C   UNL     1       2.057   7.565  19.372  0.00  0.00    +0.000 A 
ATOM     17  C   UNL     1       2.475   6.256  19.642  0.00  0.00    +0.000 A 
ATOM     18  C   UNL     1       3.297   5.551  18.753  0.00  0.00    +0.000 A 
ATOM     19  C   UNL     1       3.778   6.244  17.633  0.00  0.00    +0.000 A 
ATOM     20  C   UNL     1       3.354   7.552  17.351  0.00  0.00    +0.000 A 
BRANCH  18  21
ATOM     21  N   UNL     1       3.552   4.191  18.878  0.00  0.00    +0.000 N 
ATOM     22  C   UNL     1       2.713   3.245  18.141  0.00  0.00    +0.000 C 
ATOM     23  C   UNL     1       3.580   2.021  17.834  0.00  0.00    +0.000 C 
ATOM     24  N   UNL     1       4.116   1.433  19.043  0.00  0.00    +0.000 N 
ATOM     25  C   UNL     1       4.524   2.202  20.107  0.00  0.00    +0.000 C 
ATOM     26  O   UNL     1       5.169   1.676  21.016  0.00  0.00    +0.000 OA
ATOM     27  C   UNL     1       4.087   3.689  20.164  0.00  0.00    +0.000 C 
ATOM     28  H   UNL     1       4.510   0.500  19.021  0.00  0.00    +0.000 HD
ENDBRANCH  18  21
ENDBRANCH   1  15
TORSDOF 4
ENDMDL
MODEL 9
REMARK VINA RESULT:      -7.8      2.128      9.055
REMARK  Name = 
REMARK  5 active torsions:
REMARK  status: ('A' for Active; 'I' for Inactive)
REMARK    1  A    between atoms: C_1  and  C_2
REMARK    2  A    between atoms: C_7  and  N_8
REMARK    3  A    between atoms: N_11  and  C_12
REMARK    4  A    between atoms: C_12  and  C_13
REMARK    5  A    between atoms: C_16  and  N_17
REMARK                            x       y       z     vdW  Elec       q    Type
REMARK                         _______ _______ _______ _____ _____    ______ ____
ROOT
ATOM      1  C   UNL     1       0.722   9.506  20.763  0.00  0.00    +0.000 C 
ENDROOT
BRANCH   1   5
ATOM      2  N   UNL     1      -1.676  11.995  19.555  0.00  0.00    +0.000 N 
ATOM      3  C   UNL     1      -0.730  11.419  20.350  0.00  0.00    +0.000 C 
ATOM      4  O   UNL     1      -0.261  12.057  21.290  0.00  0.00    +0.000 OA
ATOM      5  N   UNL     1      -0.293  10.179  20.004  0.00  0.00    +0.000 N 
ATOM      6  H   UNL     1      -1.852  12.956  19.803  0.00  0.00    +0.000 HD
ATOM      7  H   UNL     1      -0.917   9.647  19.401  0.00  0.00    +0.000 HD
BRANCH   2  14
ATOM      8  C   UNL     1      -4.580  12.287  19.407  0.00  0.00    +0.000 C 
ATOM      9  C   UNL     1      -3.750  11.568  18.382  0.00  0.00    +0.000 A 
ATOM     10  C   UNL     1      -4.389  11.004  17.269  0.00  0.00    +0.000 A 
ATOM     11  C   UNL     1      -3.648  10.346  16.294  0.00  0.00    +0.000 A 
ATOM     12  C   UNL     1      -2.284  10.263  16.468  0.00  0.00    +0.000 A 
ATOM     13  N   UNL     1      -1.631  10.800  17.520  0.00  0.00    +0.000 NA
ATOM     14  C   UNL     1      -2.358  11.443  18.464  0.00  0.00    +0.000 A 
ENDBRANCH   2  14
ENDBRANCH   1   5
BRANCH   1  15
ATOM     15  C   UNL     1       1.420   8.415  19.995  0.00  0.00    +0.000 A 
ATOM     16  C   UNL     1       1.894   8.641  18.699  0.00  0.00    +0.000 A 
ATOM     17  C   UNL     1       2.694   7.686  18.059  0.00  0.00    +0.000 A 
ATOM     18  C   UNL     1       3.037   6.479  18.683  0.00  0.00    +0.000 A 
ATOM     19  C   UNL     1       2.459   6.214  19.933  0.00  0.00    +0.000 A 
ATOM     20  C   UNL     1       1.667   7.171  20.585  0.00  0.00    +0.000 A 
BRANCH  18  21
ATOM     21  N   UNL     1       3.995   5.613  18.173  0.00  0.00    +0.000 N 
ATOM     22  C   UNL     1       3.554   4.432  17.428  0.00  0.00    +0.000 C 
ATOM     23  C   UNL     1       4.648   4.112  16.406  0.00  0.00    +0.000 C 
ATOM     24  N   UNL     1       5.928   3.896  17.046  0.00  0.00    +0.000 N 
ATOM     25  C   UNL     1       6.328   4.628  18.138  0.00  0.00    +0.000 C 
ATOM     26  O   UNL     1       7.501   4.561  18.509  0.00  0.00    +0.000 OA
ATOM     27  C   UNL     1       5.266   5.452  18.913  0.00  0.00    +0.000 C 
ATOM     28  H   UNL     1       6.682   3.455  16.533  0.00  0.00    +0.000 HD
ENDBRANCH  18  21
ENDBRANCH   1  15
TORSDOF 4
ENDMDL
