MODEL 1
REMARK VINA RESULT:      -7.7      0.000      0.000
REMARK  Name = 
REMARK  6 active torsions:
REMARK  status: ('A' for Active; 'I' for Inactive)
REMARK    1  A    between atoms: C_1  and  C_2
REMARK    2  A    between atoms: C_2  and  O_3
REMARK    3  A    between atoms: C_4  and  O_5
REMARK    4  A    between atoms: C_6  and  C_7
REMARK    5  A    between atoms: C_7  and  O_8
REMARK    6  A    between atoms: C_10  and  N_11
REMARK                            x       y       z     vdW  Elec       q    Type
REMARK                         _______ _______ _______ _____ _____    ______ ____
ROOT
ATOM      1  C   UNL     1       4.655   6.678  16.361  0.00  0.00    +0.000 C 
ATOM      2  C   UNL     1       5.907   5.920  16.799  0.00  0.00    +0.000 C 
ATOM      3  C   UNL     1       6.864   6.755  17.646  0.00  0.00    +0.000 C 
ATOM      4  C   UNL     1       7.709   5.672  18.313  0.00  0.00    +0.000 C 
ATOM      5  O   UNL     1       6.805   4.594  18.621  0.00  0.00    +0.000 OA
ATOM      6  C   UNL     1       5.686   4.670  17.694  0.00  0.00    +0.000 C 
ENDROOT
BRANCH   6   7
ATOM      7  N   UNL     1       4.463   4.659  18.484  0.00  0.00    +0.000 N 
ATOM      8  C   UNL     1       4.013   5.683  19.285  0.00  0.00    +0.000 A 
ATOM      9  C   UNL     1       2.757   5.350  19.734  0.00  0.00    +0.000 A 
ATOM     10 CL   UNL     1       1.757   6.329  20.697  0.00  0.00    +0.000 Cl
ATOM     11  C   UNL     1       2.456   4.045  19.266  0.00  0.00    +0.000 A 
ATOM     12  C   UNL     1       1.385   3.147  19.374  0.00  0.00    +0.000 A 
ATOM     13  N   UNL     1       0.205   3.435  20.036  0.00  0.00    +0.000 N 
ATOM     14  N   UNL     1       1.499   1.928  18.810  0.00  0.00    +0.000 NA
ATOM     15  C   UNL     1       2.626   1.643  18.129  0.00  0.00    +0.000 A 
ATOM     16  N   UNL     1       3.688   2.437  17.910  0.00  0.00    +0.000 NA
ATOM     17  C   UNL     1       3.550   3.631  18.516  0.00  0.00    +0.000 A 
ATOM     18  H   UNL     1       0.249   4.179  20.721  0.00  0.00    +0.000 HD
ATOM     19  H   UNL     1      -0.314   2.601  20.283  0.00  0.00    +0.000 HD
ENDBRANCH   6   7
BRANCH   2  20
ATOM     20  O   UNL     1       6.618   5.535  15.591  0.00  0.00    +0.000 OA
ATOM     21  H   UNL     1       6.202   6.010  14.850  0.00  0.00    +0.000 HD
ENDBRANCH   2  20
BRANCH   3  22
ATOM     22  O   UNL     1       7.631   7.657  16.854  0.00  0.00    +0.000 OA
ATOM     23  H   UNL     1       7.005   8.296  16.461  0.00  0.00    +0.000 HD
ENDBRANCH   3  22
BRANCH   4  24
ATOM     24  C   UNL     1       8.406   6.131  19.591  0.00  0.00    +0.000 C 
BRANCH  24  25
ATOM     25  O   UNL     1       8.102   5.253  20.674  0.00  0.00    +0.000 OA
ATOM     26  H   UNL     1       7.529   4.557  20.300  0.00  0.00    +0.000 HD
ENDBRANCH  24  25
ENDBRANCH   4  24
TORSDOF 5
ENDMDL
MODEL 2
REMARK VINA RESULT:      -7.6      3.470      6.134
REMARK  Name = 
REMARK  6 active torsions:
REMARK  status: ('A' for Active; 'I' for Inactive)
REMARK    1  A    between atoms: C_1  and  C_2
REMARK    2  A    between atoms: C_2  and  O_3
REMARK    3  A    between atoms: C_4  and  O_5
REMARK    4  A    between atoms: C_6  and  C_7
REMARK    5  A    between atoms: C_7  and  O_8
REMARK    6  A    between atoms: C_10  and  N_11
REMARK                            x       y       z     vdW  Elec       q    Type
REMARK                         _______ _______ _______ _____ _____    ______ ____
ROOT
ATOM      1  C   UNL     1       2.824   6.014  19.650  0.00  0.00    +0.000 C 
ATOM      2  C   UNL     1       2.739   4.583  20.182  0.00  0.00    +0.000 C 
ATOM      3  C   UNL     1       1.530   3.808  19.663  0.00  0.00    +0.000 C 
ATOM      4  C   UNL     1       1.951   2.365  19.935  0.00  0.00    +0.000 C 
ATOM      5  O   UNL     1       3.361   2.301  19.647  0.00  0.00    +0.000 OA
ATOM      6  C   UNL     1       3.914   3.636  19.818  0.00  0.00    +0.000 C 
ENDROOT
BRANCH   6   7
ATOM      7  N   UNL     1       4.647   3.963  18.603  0.00  0.00    +0.000 N 
ATOM      8  C   UNL     1       4.290   3.599  17.325  0.00  0.00    +0.000 A 
ATOM      9  C   UNL     1       5.145   4.227  16.451  0.00  0.00    +0.000 A 
ATOM     10 CL   UNL     1       5.062   4.149  14.756  0.00  0.00    +0.000 Cl
ATOM     11  C   UNL     1       6.111   4.933  17.213  0.00  0.00    +0.000 A 
ATOM     12  C   UNL     1       7.228   5.738  16.947  0.00  0.00    +0.000 A 
ATOM     13  N   UNL     1       7.638   6.085  15.672  0.00  0.00    +0.000 N 
ATOM     14  N   UNL     1       7.955   6.203  17.982  0.00  0.00    +0.000 NA
ATOM     15  C   UNL     1       7.550   5.907  19.231  0.00  0.00    +0.000 A 
ATOM     16  N   UNL     1       6.472   5.198  19.609  0.00  0.00    +0.000 NA
ATOM     17  C   UNL     1       5.791   4.725  18.549  0.00  0.00    +0.000 A 
ATOM     18  H   UNL     1       7.317   5.484  14.922  0.00  0.00    +0.000 HD
ATOM     19  H   UNL     1       8.602   6.391  15.646  0.00  0.00    +0.000 HD
ENDBRANCH   6   7
BRANCH   2  20
ATOM     20  O   UNL     1       2.613   4.671  21.627  0.00  0.00    +0.000 OA
ATOM     21  H   UNL     1       3.295   4.091  22.010  0.00  0.00    +0.000 HD
ENDBRANCH   2  20
BRANCH   3  22
ATOM     22  O   UNL     1       0.330   4.178  20.335  0.00  0.00    +0.000 OA
ATOM     23  H   UNL     1       0.474   5.070  20.708  0.00  0.00    +0.000 HD
ENDBRANCH   3  22
BRANCH   4  24
ATOM     24  C   UNL     1       1.212   1.335  19.085  0.00  0.00    +0.000 C 
BRANCH  24  25
ATOM     25  O   UNL     1       0.201   1.963  18.298  0.00  0.00    +0.000 OA
ATOM     26  H   UNL     1       0.672   2.426  17.580  0.00  0.00    +0.000 HD
ENDBRANCH  24  25
ENDBRANCH   4  24
TORSDOF 5
ENDMDL
MODEL 3
REMARK VINA RESULT:      -7.6      0.998      1.424
REMARK  Name = 
REMARK  6 active torsions:
REMARK  status: ('A' for Active; 'I' for Inactive)
REMARK    1  A    between atoms: C_1  and  C_2
REMARK    2  A    between atoms: C_2  and  O_3
REMARK    3  A    between atoms: C_4  and  O_5
REMARK    4  A    between atoms: C_6  and  C_7
REMARK    5  A    between atoms: C_7  and  O_8
REMARK    6  A    between atoms: C_10  and  N_11
REMARK                            x       y       z     vdW  Elec       q    Type
REMARK                         _______ _______ _______ _____ _____    ______ ____
ROOT
ATOM      1  C   UNL     1       4.892   4.411  16.023  0.00  0.00    +0.000 C 
ATOM      2  C   UNL     1       6.182   4.528  16.834  0.00  0.00    +0.000 C 
ATOM      3  C   UNL     1       6.791   5.928  16.819  0.00  0.00    +0.000 C 
ATOM      4  C   UNL     1       7.717   5.873  18.032  0.00  0.00    +0.000 C 
ATOM      5  O   UNL     1       7.014   5.115  19.035  0.00  0.00    +0.000 OA
ATOM      6  C   UNL     1       6.075   4.236  18.356  0.00  0.00    +0.000 C 
ENDROOT
BRANCH   6   7
ATOM      7  N   UNL     1       4.766   4.447  18.957  0.00  0.00    +0.000 N 
ATOM      8  C   UNL     1       4.292   5.640  19.454  0.00  0.00    +0.000 A 
ATOM      9  C   UNL     1       2.970   5.465  19.789  0.00  0.00    +0.000 A 
ATOM     10 CL   UNL     1       1.929   6.672  20.377  0.00  0.00    +0.000 Cl
ATOM     11  C   UNL     1       2.640   4.103  19.570  0.00  0.00    +0.000 A 
ATOM     12  C   UNL     1       1.504   3.295  19.720  0.00  0.00    +0.000 A 
ATOM     13  N   UNL     1       0.274   3.769  20.139  0.00  0.00    +0.000 N 
ATOM     14  N   UNL     1       1.603   1.978  19.448  0.00  0.00    +0.000 NA
ATOM     15  C   UNL     1       2.782   1.505  19.002  0.00  0.00    +0.000 A 
ATOM     16  N   UNL     1       3.916   2.188  18.767  0.00  0.00    +0.000 NA
ATOM     17  C   UNL     1       3.787   3.490  19.081  0.00  0.00    +0.000 A 
ATOM     18  H   UNL     1       0.284   4.643  20.651  0.00  0.00    +0.000 HD
ATOM     19  H   UNL     1      -0.328   3.031  20.484  0.00  0.00    +0.000 HD
ENDBRANCH   6   7
BRANCH   2  20
ATOM     20  O   UNL     1       7.149   3.625  16.231  0.00  0.00    +0.000 OA
ATOM     21  H   UNL     1       7.882   3.528  16.864  0.00  0.00    +0.000 HD
ENDBRANCH   2  20
BRANCH   3  22
ATOM     22  O   UNL     1       7.478   6.198  15.600  0.00  0.00    +0.000 OA
ATOM     23  H   UNL     1       7.409   5.395  15.049  0.00  0.00    +0.000 HD
ENDBRANCH   3  22
BRANCH   4  24
ATOM     24  C   UNL     1       8.080   7.245  18.595  0.00  0.00    +0.000 C 
BRANCH  24  25
ATOM     25  O   UNL     1       7.858   8.264  17.621  0.00  0.00    +0.000 OA
ATOM     26  H   UNL     1       8.350   9.046  17.937  0.00  0.00    +0.000 HD
ENDBRANCH  24  25
ENDBRANCH   4  24
TORSDOF 5
ENDMDL
MODEL 4
REMARK VINA RESULT:      -7.3      3.369      6.128
REMARK  Name = 
REMARK  6 active torsions:
REMARK  status: ('A' for Active; 'I' for Inactive)
REMARK    1  A    between atoms: C_1  and  C_2
REMARK    2  A    between atoms: C_2  and  O_3
REMARK    3  A    between atoms: C_4  and  O_5
REMARK    4  A    between atoms: C_6  and  C_7
REMARK    5  A    between atoms: C_7  and  O_8
REMARK    6  A    between atoms: C_10  and  N_11
REMARK                            x       y       z     vdW  Elec       q    Type
REMARK                         _______ _______ _______ _____ _____    ______ ____
ROOT
ATOM      1  C   UNL     1       2.559   6.101  20.291  0.00  0.00    +0.000 C 
ATOM      2  C   UNL     1       2.679   4.579  20.375  0.00  0.00    +0.000 C 
ATOM      3  C   UNL     1       1.610   3.836  19.577  0.00  0.00    +0.000 C 
ATOM      4  C   UNL     1       2.236   2.450  19.442  0.00  0.00    +0.000 C 
ATOM      5  O   UNL     1       3.645   2.668  19.237  0.00  0.00    +0.000 OA
ATOM      6  C   UNL     1       3.989   3.954  19.825  0.00  0.00    +0.000 C 
ENDROOT
BRANCH   6   7
ATOM      7  N   UNL     1       4.689   4.726  18.808  0.00  0.00    +0.000 N 
ATOM      8  C   UNL     1       4.191   5.065  17.571  0.00  0.00    +0.000 A 
ATOM      9  C   UNL     1       5.086   5.920  16.973  0.00  0.00    +0.000 A 
ATOM     10 CL   UNL     1       4.881   6.672  15.464  0.00  0.00    +0.000 Cl
ATOM     11  C   UNL     1       6.209   6.048  17.830  0.00  0.00    +0.000 A 
ATOM     12  C   UNL     1       7.432   6.733  17.809  0.00  0.00    +0.000 A 
ATOM     13  N   UNL     1       7.815   7.591  16.794  0.00  0.00    +0.000 N 
ATOM     14  N   UNL     1       8.296   6.551  18.828  0.00  0.00    +0.000 NA
ATOM     15  C   UNL     1       7.926   5.749  19.843  0.00  0.00    +0.000 A 
ATOM     16  N   UNL     1       6.766   5.088  20.001  0.00  0.00    +0.000 NA
ATOM     17  C   UNL     1       5.944   5.269  18.950  0.00  0.00    +0.000 A 
ATOM     18  H   UNL     1       7.344   7.468  15.906  0.00  0.00    +0.000 HD
ATOM     19  H   UNL     1       8.814   7.749  16.776  0.00  0.00    +0.000 HD
ENDBRANCH   6   7
BRANCH   2  20
ATOM     20  O   UNL     1       2.512   4.214  21.772  0.00  0.00    +0.000 OA
ATOM     21  H   UNL     1       2.683   5.015  22.299  0.00  0.00    +0.000 HD
ENDBRANCH   2  20
BRANCH   3  22
ATOM     22  O   UNL     1       0.354   3.821  20.250  0.00  0.00    +0.000 OA
ATOM     23  H   UNL     1       0.497   3.385  21.113  0.00  0.00    +0.000 HD
ENDBRANCH   3  22
BRANCH   4  24
ATOM     24  C   UNL     1       1.676   1.629  18.283  0.00  0.00    +0.000 C 
BRANCH  24  25
ATOM     25  O   UNL     1       0.257   1.753  18.217  0.00  0.00    +0.000 OA
ATOM     26  H   UNL     1      -0.019   2.117  19.079  0.00  0.00    +0.000 HD
ENDBRANCH  24  25
ENDBRANCH   4  24
TORSDOF 5
ENDMDL
MODEL 5
REMARK VINA RESULT:      -7.2      1.431      2.760
REMARK  Name = 
REMARK  6 active torsions:
REMARK  status: ('A' for Active; 'I' for Inactive)
REMARK    1  A    between atoms: C_1  and  C_2
REMARK    2  A    between atoms: C_2  and  O_3
REMARK    3  A    between atoms: C_4  and  O_5
REMARK    4  A    between atoms: C_6  and  C_7
REMARK    5  A    between atoms: C_7  and  O_8
REMARK    6  A    between atoms: C_10  and  N_11
REMARK                            x       y       z     vdW  Elec       q    Type
REMARK                         _______ _______ _______ _____ _____    ______ ____
ROOT
ATOM      1  C   UNL     1       6.733   5.442  19.272  0.00  0.00    +0.000 C 
ATOM      2  C   UNL     1       6.472   5.820  17.814  0.00  0.00    +0.000 C 
ATOM      3  C   UNL     1       6.662   4.662  16.838  0.00  0.00    +0.000 C 
ATOM      4  C   UNL     1       5.897   5.162  15.615  0.00  0.00    +0.000 C 
ATOM      5  O   UNL     1       4.733   5.841  16.123  0.00  0.00    +0.000 OA
ATOM      6  C   UNL     1       5.037   6.305  17.469  0.00  0.00    +0.000 C 
ENDROOT
BRANCH   6   7
ATOM      7  N   UNL     1       3.974   5.833  18.344  0.00  0.00    +0.000 N 
ATOM      8  C   UNL     1       3.338   6.577  19.311  0.00  0.00    +0.000 A 
ATOM      9  C   UNL     1       2.299   5.827  19.808  0.00  0.00    +0.000 A 
ATOM     10 CL   UNL     1       1.174   6.342  20.972  0.00  0.00    +0.000 Cl
ATOM     11  C   UNL     1       2.344   4.551  19.190  0.00  0.00    +0.000 A 
ATOM     12  C   UNL     1       1.607   3.360  19.259  0.00  0.00    +0.000 A 
ATOM     13  N   UNL     1       0.481   3.198  20.046  0.00  0.00    +0.000 N 
ATOM     14  N   UNL     1       2.010   2.303  18.526  0.00  0.00    +0.000 NA
ATOM     15  C   UNL     1       3.083   2.453  17.725  0.00  0.00    +0.000 A 
ATOM     16  N   UNL     1       3.830   3.555  17.534  0.00  0.00    +0.000 NA
ATOM     17  C   UNL     1       3.416   4.576  18.307  0.00  0.00    +0.000 A 
ATOM     18  H   UNL     1       0.383   3.842  20.821  0.00  0.00    +0.000 HD
ATOM     19  H   UNL     1       0.265   2.224  20.216  0.00  0.00    +0.000 HD
ENDBRANCH   6   7
BRANCH   2  20
ATOM     20  O   UNL     1       7.433   6.851  17.461  0.00  0.00    +0.000 OA
ATOM     21  H   UNL     1       7.989   6.491  16.747  0.00  0.00    +0.000 HD
ENDBRANCH   2  20
BRANCH   3  22
ATOM     22  O   UNL     1       8.038   4.407  16.573  0.00  0.00    +0.000 OA
ATOM     23  H   UNL     1       8.123   3.449  16.398  0.00  0.00    +0.000 HD
ENDBRANCH   3  22
BRANCH   4  24
ATOM     24  C   UNL     1       5.461   4.052  14.661  0.00  0.00    +0.000 C 
BRANCH  24  25
ATOM     25  O   UNL     1       6.570   3.577  13.900  0.00  0.00    +0.000 OA
ATOM     26  H   UNL     1       6.772   4.282  13.256  0.00  0.00    +0.000 HD
ENDBRANCH  24  25
ENDBRANCH   4  24
TORSDOF 5
ENDMDL
MODEL 6
REMARK VINA RESULT:      -7.0      2.111      3.715
REMARK  Name = 
REMARK  6 active torsions:
REMARK  status: ('A' for Active; 'I' for Inactive)
REMARK    1  A    between atoms: C_1  and  C_2
REMARK    2  A    between atoms: C_2  and  O_3
REMARK    3  A    between atoms: C_4  and  O_5
REMARK    4  A    between atoms: C_6  and  C_7
REMARK    5  A    between atoms: C_7  and  O_8
REMARK    6  A    between atoms: C_10  and  N_11
REMARK                            x       y       z     vdW  Elec       q    Type
REMARK                         _______ _______ _______ _____ _____    ______ ____
ROOT
ATOM      1  C   UNL     1       6.367   5.068  18.808  0.00  0.00    +0.000 C 
ATOM      2  C   UNL     1       6.228   5.519  17.355  0.00  0.00    +0.000 C 
ATOM      3  C   UNL     1       6.801   4.525  16.347  0.00  0.00    +0.000 C 
ATOM      4  C   UNL     1       6.117   4.967  15.056  0.00  0.00    +0.000 C 
ATOM      5  O   UNL     1       4.773   5.333  15.422  0.00  0.00    +0.000 OA
ATOM      6  C   UNL     1       4.782   5.721  16.825  0.00  0.00    +0.000 C 
ENDROOT
BRANCH   6   7
ATOM      7  N   UNL     1       3.742   4.954  17.496  0.00  0.00    +0.000 N 
ATOM      8  C   UNL     1       3.371   3.664  17.192  0.00  0.00    +0.000 A 
ATOM      9  C   UNL     1       2.472   3.246  18.144  0.00  0.00    +0.000 A 
ATOM     10 CL   UNL     1       1.781   1.697  18.241  0.00  0.00    +0.000 Cl
ATOM     11  C   UNL     1       2.216   4.336  19.015  0.00  0.00    +0.000 A 
ATOM     12  C   UNL     1       1.418   4.572  20.142  0.00  0.00    +0.000 A 
ATOM     13  N   UNL     1       0.629   3.606  20.742  0.00  0.00    +0.000 N 
ATOM     14  N   UNL     1       1.404   5.808  20.681  0.00  0.00    +0.000 NA
ATOM     15  C   UNL     1       2.193   6.752  20.135  0.00  0.00    +0.000 A 
ATOM     16  N   UNL     1       3.038   6.629  19.096  0.00  0.00    +0.000 NA
ATOM     17  C   UNL     1       2.999   5.393  18.567  0.00  0.00    +0.000 A 
ATOM     18  H   UNL     1       0.382   2.812  20.164  0.00  0.00    +0.000 HD
ATOM     19  H   UNL     1      -0.095   4.005  21.325  0.00  0.00    +0.000 HD
ENDBRANCH   6   7
BRANCH   2  20
ATOM     20  O   UNL     1       6.975   6.758  17.218  0.00  0.00    +0.000 OA
ATOM     21  H   UNL     1       7.240   6.831  16.284  0.00  0.00    +0.000 HD
ENDBRANCH   2  20
BRANCH   3  22
ATOM     22  O   UNL     1       8.223   4.592  16.281  0.00  0.00    +0.000 OA
ATOM     23  H   UNL     1       8.491   5.423  16.720  0.00  0.00    +0.000 HD
ENDBRANCH   3  22
BRANCH   4  24
ATOM     24  C   UNL     1       6.073   3.886  13.979  0.00  0.00    +0.000 C 
BRANCH  24  25
ATOM     25  O   UNL     1       6.899   4.242  12.872  0.00  0.00    +0.000 OA
ATOM     26  H   UNL     1       7.614   4.795  13.240  0.00  0.00    +0.000 HD
ENDBRANCH  24  25
ENDBRANCH   4  24
TORSDOF 5
ENDMDL
MODEL 7
REMARK VINA RESULT:      -7.0      2.370      3.665
REMARK  Name = 
REMARK  6 active torsions:
REMARK  status: ('A' for Active; 'I' for Inactive)
REMARK    1  A    between atoms: C_1  and  C_2
REMARK    2  A    between atoms: C_2  and  O_3
REMARK    3  A    between atoms: C_4  and  O_5
REMARK    4  A    between atoms: C_6  and  C_7
REMARK    5  A    between atoms: C_7  and  O_8
REMARK    6  A    between atoms: C_10  and  N_11
REMARK                            x       y       z     vdW  Elec       q    Type
REMARK                         _______ _______ _______ _____ _____    ______ ____
ROOT
ATOM      1  C   UNL     1       7.359   5.656  18.343  0.00  0.00    +0.000 C 
ATOM      2  C   UNL     1       6.560   6.025  17.094  0.00  0.00    +0.000 C 
ATOM      3  C   UNL     1       6.840   5.118  15.897  0.00  0.00    +0.000 C 
ATOM      4  C   UNL     1       5.621   5.385  15.018  0.00  0.00    +0.000 C 
ATOM      5  O   UNL     1       4.502   5.514  15.916  0.00  0.00    +0.000 OA
ATOM      6  C   UNL     1       5.014   5.943  17.209  0.00  0.00    +0.000 C 
ENDROOT
BRANCH   6   7
ATOM      7  N   UNL     1       4.494   5.024  18.211  0.00  0.00    +0.000 N 
ATOM      8  C   UNL     1       4.948   3.745  18.441  0.00  0.00    +0.000 A 
ATOM      9  C   UNL     1       4.312   3.265  19.561  0.00  0.00    +0.000 A 
ATOM     10 CL   UNL     1       4.592   1.754  20.288  0.00  0.00    +0.000 Cl
ATOM     11  C   UNL     1       3.378   4.243  19.989  0.00  0.00    +0.000 A 
ATOM     12  C   UNL     1       2.438   4.369  21.020  0.00  0.00    +0.000 A 
ATOM     13  N   UNL     1       2.245   3.417  22.006  0.00  0.00    +0.000 N 
ATOM     14  N   UNL     1       1.666   5.474  21.065  0.00  0.00    +0.000 NA
ATOM     15  C   UNL     1       1.865   6.429  20.136  0.00  0.00    +0.000 A 
ATOM     16  N   UNL     1       2.768   6.445  19.141  0.00  0.00    +0.000 NA
ATOM     17  C   UNL     1       3.495   5.313  19.110  0.00  0.00    +0.000 A 
ATOM     18  H   UNL     1       2.562   2.480  21.787  0.00  0.00    +0.000 HD
ATOM     19  H   UNL     1       1.349   3.513  22.466  0.00  0.00    +0.000 HD
ENDBRANCH   6   7
BRANCH   2  20
ATOM     20  O   UNL     1       6.951   7.374  16.720  0.00  0.00    +0.000 OA
ATOM     21  H   UNL     1       7.820   7.310  16.284  0.00  0.00    +0.000 HD
ENDBRANCH   2  20
BRANCH   3  22
ATOM     22  O   UNL     1       8.073   5.440  15.260  0.00  0.00    +0.000 OA
ATOM     23  H   UNL     1       8.157   4.850  14.486  0.00  0.00    +0.000 HD
ENDBRANCH   3  22
BRANCH   4  24
ATOM     24  C   UNL     1       5.334   4.279  14.006  0.00  0.00    +0.000 C 
BRANCH  24  25
ATOM     25  O   UNL     1       6.486   3.459  13.815  0.00  0.00    +0.000 OA
ATOM     26  H   UNL     1       6.245   2.819  13.120  0.00  0.00    +0.000 HD
ENDBRANCH  24  25
ENDBRANCH   4  24
TORSDOF 5
ENDMDL
MODEL 8
REMARK VINA RESULT:      -6.7      3.212      5.483
REMARK  Name = 
REMARK  6 active torsions:
REMARK  status: ('A' for Active; 'I' for Inactive)
REMARK    1  A    between atoms: C_1  and  C_2
REMARK    2  A    between atoms: C_2  and  O_3
REMARK    3  A    between atoms: C_4  and  O_5
REMARK    4  A    between atoms: C_6  and  C_7
REMARK    5  A    between atoms: C_7  and  O_8
REMARK    6  A    between atoms: C_10  and  N_11
REMARK                            x       y       z     vdW  Elec       q    Type
REMARK                         _______ _______ _______ _____ _____    ______ ____
ROOT
ATOM      1  C   UNL     1       2.726   6.495  18.905  0.00  0.00    +0.000 C 
ATOM      2  C   UNL     1       3.072   5.185  19.612  0.00  0.00    +0.000 C 
ATOM      3  C   UNL     1       2.415   3.958  18.985  0.00  0.00    +0.000 C 
ATOM      4  C   UNL     1       3.278   2.828  19.542  0.00  0.00    +0.000 C 
ATOM      5  O   UNL     1       4.630   3.327  19.549  0.00  0.00    +0.000 OA
ATOM      6  C   UNL     1       4.571   4.779  19.629  0.00  0.00    +0.000 C 
ENDROOT
BRANCH   6   7
ATOM      7  N   UNL     1       5.389   5.309  18.547  0.00  0.00    +0.000 N 
ATOM      8  C   UNL     1       6.156   6.450  18.605  0.00  0.00    +0.000 A 
ATOM      9  C   UNL     1       6.892   6.524  17.446  0.00  0.00    +0.000 A 
ATOM     10 CL   UNL     1       8.045   7.717  17.080  0.00  0.00    +0.000 Cl
ATOM     11  C   UNL     1       6.509   5.443  16.612  0.00  0.00    +0.000 A 
ATOM     12  C   UNL     1       6.853   4.967  15.339  0.00  0.00    +0.000 A 
ATOM     13  N   UNL     1       7.829   5.539  14.543  0.00  0.00    +0.000 N 
ATOM     14  N   UNL     1       6.200   3.894  14.848  0.00  0.00    +0.000 NA
ATOM     15  C   UNL     1       5.273   3.301  15.623  0.00  0.00    +0.000 A 
ATOM     16  N   UNL     1       4.901   3.629  16.873  0.00  0.00    +0.000 NA
ATOM     17  C   UNL     1       5.550   4.722  17.314  0.00  0.00    +0.000 A 
ATOM     18  H   UNL     1       8.066   6.501  14.752  0.00  0.00    +0.000 HD
ATOM     19  H   UNL     1       7.735   5.280  13.570  0.00  0.00    +0.000 HD
ENDBRANCH   6   7
BRANCH   2  20
ATOM     20  O   UNL     1       2.581   5.293  20.976  0.00  0.00    +0.000 OA
ATOM     21  H   UNL     1       1.642   5.545  20.923  0.00  0.00    +0.000 HD
ENDBRANCH   2  20
BRANCH   3  22
ATOM     22  O   UNL     1       1.041   3.844  19.346  0.00  0.00    +0.000 OA
ATOM     23  H   UNL     1       0.902   4.416  20.126  0.00  0.00    +0.000 HD
ENDBRANCH   3  22
BRANCH   4  24
ATOM     24  C   UNL     1       3.217   1.542  18.722  0.00  0.00    +0.000 C 
BRANCH  24  25
ATOM     25  O   UNL     1       2.433   1.731  17.545  0.00  0.00    +0.000 OA
ATOM     26  H   UNL     1       1.926   0.906  17.427  0.00  0.00    +0.000 HD
ENDBRANCH  24  25
ENDBRANCH   4  24
TORSDOF 5
ENDMDL
MODEL 9
REMARK VINA RESULT:      -6.6      1.529      1.650
REMARK  Name = 
REMARK  6 active torsions:
REMARK  status: ('A' for Active; 'I' for Inactive)
REMARK    1  A    between atoms: C_1  and  C_2
REMARK    2  A    between atoms: C_2  and  O_3
REMARK    3  A    between atoms: C_4  and  O_5
REMARK    4  A    between atoms: C_6  and  C_7
REMARK    5  A    between atoms: C_7  and  O_8
REMARK    6  A    between atoms: C_10  and  N_11
REMARK                            x       y       z     vdW  Elec       q    Type
REMARK                         _______ _______ _______ _____ _____    ______ ____
ROOT
ATOM      1  C   UNL     1       5.348   5.773  15.492  0.00  0.00    +0.000 C 
ATOM      2  C   UNL     1       6.466   5.237  16.385  0.00  0.00    +0.000 C 
ATOM      3  C   UNL     1       7.087   6.296  17.292  0.00  0.00    +0.000 C 
ATOM      4  C   UNL     1       7.770   5.433  18.351  0.00  0.00    +0.000 C 
ATOM      5  O   UNL     1       6.883   4.325  18.594  0.00  0.00    +0.000 OA
ATOM      6  C   UNL     1       6.074   4.129  17.401  0.00  0.00    +0.000 C 
ENDROOT
BRANCH   6   7
ATOM      7  N   UNL     1       4.679   4.108  17.817  0.00  0.00    +0.000 N 
ATOM      8  C   UNL     1       3.631   4.697  17.147  0.00  0.00    +0.000 A 
ATOM      9  C   UNL     1       2.465   4.323  17.772  0.00  0.00    +0.000 A 
ATOM     10 CL   UNL     1       0.895   4.737  17.270  0.00  0.00    +0.000 Cl
ATOM     11  C   UNL     1       2.806   3.549  18.910  0.00  0.00    +0.000 A 
ATOM     12  C   UNL     1       2.116   2.898  19.943  0.00  0.00    +0.000 A 
ATOM     13  N   UNL     1       0.736   2.847  20.032  0.00  0.00    +0.000 N 
ATOM     14  N   UNL     1       2.825   2.287  20.913  0.00  0.00    +0.000 NA
ATOM     15  C   UNL     1       4.168   2.293  20.824  0.00  0.00    +0.000 A 
ATOM     16  N   UNL     1       4.934   2.831  19.858  0.00  0.00    +0.000 NA
ATOM     17  C   UNL     1       4.192   3.458  18.927  0.00  0.00    +0.000 A 
ATOM     18  H   UNL     1       0.231   3.562  19.524  0.00  0.00    +0.000 HD
ATOM     19  H   UNL     1       0.417   2.623  20.966  0.00  0.00    +0.000 HD
ENDBRANCH   6   7
BRANCH   2  20
ATOM     20  O   UNL     1       7.516   4.745  15.508  0.00  0.00    +0.000 OA
ATOM     21  H   UNL     1       7.192   4.838  14.595  0.00  0.00    +0.000 HD
ENDBRANCH   2  20
BRANCH   3  22
ATOM     22  O   UNL     1       7.993   7.140  16.586  0.00  0.00    +0.000 OA
ATOM     23  H   UNL     1       8.811   6.626  16.445  0.00  0.00    +0.000 HD
ENDBRANCH   3  22
BRANCH   4  24
ATOM     24  C   UNL     1       8.041   6.164  19.663  0.00  0.00    +0.000 C 
BRANCH  24  25
ATOM     25  O   UNL     1       8.269   5.233  20.721  0.00  0.00    +0.000 OA
ATOM     26  H   UNL     1       7.729   5.545  21.471  0.00  0.00    +0.000 HD
ENDBRANCH  24  25
ENDBRANCH   4  24
TORSDOF 5
ENDMDL
