MODEL 1
REMARK VINA RESULT:      -8.9      0.000      0.000
REMARK  Name = 
REMARK  6 active torsions:
REMARK  status: ('A' for Active; 'I' for Inactive)
REMARK    1  A    between atoms: C_1  and  N_2
REMARK    2  A    between atoms: N_2  and  C_3
REMARK    3  A    between atoms: N_2  and  C_11
REMARK    4  A    between atoms: C_3  and  C_4
REMARK    5  A    between atoms: C_4  and  C_5
REMARK    6  A    between atoms: C_13  and  C_14
REMARK                            x       y       z     vdW  Elec       q    Type
REMARK                         _______ _______ _______ _____ _____    ______ ____
ROOT
ATOM      1  C   UNL     1       3.162   5.709  19.298  0.00  0.00    +0.000 A 
ATOM      2  N   UNL     1       4.503   5.917  19.224  0.00  0.00    +0.000 NA
ATOM      3  C   UNL     1       5.305   4.918  18.947  0.00  0.00    +0.000 A 
ATOM      4  N   UNL     1       5.033   3.720  19.474  0.00  0.00    +0.000 NA
ATOM      5  C   UNL     1       3.771   3.387  19.306  0.00  0.00    +0.000 A 
ATOM      6  C   UNL     1       3.642   2.039  19.024  0.00  0.00    +0.000 A 
ATOM      7  C   UNL     1       2.440   1.505  18.592  0.00  0.00    +0.000 A 
ATOM      8  C   UNL     1       1.330   2.344  18.569  0.00  0.00    +0.000 A 
ATOM      9  C   UNL     1       1.438   3.722  18.886  0.00  0.00    +0.000 A 
ATOM     10  C   UNL     1       2.704   4.328  19.192  0.00  0.00    +0.000 A 
ENDROOT
BRANCH   3  11
ATOM     11  C   UNL     1       5.640   4.758  17.517  0.00  0.00    +0.000 A 
ATOM     12  C   UNL     1       4.842   5.376  16.549  0.00  0.00    +0.000 A 
ATOM     13  C   UNL     1       5.402   5.737  15.333  0.00  0.00    +0.000 A 
ATOM     14  C   UNL     1       6.734   5.428  15.097  0.00  0.00    +0.000 A 
ATOM     15  N   UNL     1       7.499   4.709  15.936  0.00  0.00    +0.000 NA
ATOM     16  C   UNL     1       6.932   4.382  17.120  0.00  0.00    +0.000 A 
ENDBRANCH   3  11
BRANCH   1  18
ATOM     17  C   UNL     1       2.925   7.697  18.028  0.00  0.00    +0.000 C 
ATOM     18  N   UNL     1       2.488   6.931  19.221  0.00  0.00    +0.000 N 
BRANCH  18  19
ATOM     19  C   UNL     1       1.884   7.707  20.310  0.00  0.00    +0.000 C 
BRANCH  19  20
ATOM     20  C   UNL     1       1.155   9.024  19.866  0.00  0.00    +0.000 C 
BRANCH  20  21
ATOM     21  C   UNL     1       0.310   9.707  20.926  0.00  0.00    +0.000 A 
ATOM     22  C   UNL     1      -0.355  10.898  20.611  0.00  0.00    +0.000 A 
ATOM     23  C   UNL     1      -1.064  11.600  21.587  0.00  0.00    +0.000 A 
ATOM     24  C   UNL     1      -1.132  11.113  22.889  0.00  0.00    +0.000 A 
ATOM     25  C   UNL     1      -0.535   9.895  23.203  0.00  0.00    +0.000 A 
ATOM     26  C   UNL     1       0.171   9.189  22.223  0.00  0.00    +0.000 A 
ENDBRANCH  20  21
ENDBRANCH  19  20
ENDBRANCH  18  19
ENDBRANCH   1  18
TORSDOF 5
ENDMDL
MODEL 2
REMARK VINA RESULT:      -8.8      1.311      1.844
REMARK  Name = 
REMARK  6 active torsions:
REMARK  status: ('A' for Active; 'I' for Inactive)
REMARK    1  A    between atoms: C_1  and  N_2
REMARK    2  A    between atoms: N_2  and  C_3
REMARK    3  A    between atoms: N_2  and  C_11
REMARK    4  A    between atoms: C_3  and  C_4
REMARK    5  A    between atoms: C_4  and  C_5
REMARK    6  A    between atoms: C_13  and  C_14
REMARK                            x       y       z     vdW  Elec       q    Type
REMARK                         _______ _______ _______ _____ _____    ______ ____
ROOT
ATOM      1  C   UNL     1       3.251   5.792  19.254  0.00  0.00    +0.000 A 
ATOM      2  N   UNL     1       4.594   5.975  19.166  0.00  0.00    +0.000 NA
ATOM      3  C   UNL     1       5.377   4.955  18.911  0.00  0.00    +0.000 A 
ATOM      4  N   UNL     1       5.087   3.776  19.471  0.00  0.00    +0.000 NA
ATOM      5  C   UNL     1       3.819   3.462  19.319  0.00  0.00    +0.000 A 
ATOM      6  C   UNL     1       3.665   2.109  19.073  0.00  0.00    +0.000 A 
ATOM      7  C   UNL     1       2.451   1.585  18.663  0.00  0.00    +0.000 A 
ATOM      8  C   UNL     1       1.356   2.442  18.624  0.00  0.00    +0.000 A 
ATOM      9  C   UNL     1       1.489   3.826  18.904  0.00  0.00    +0.000 A 
ATOM     10  C   UNL     1       2.768   4.417  19.186  0.00  0.00    +0.000 A 
ENDROOT
BRANCH   3  11
ATOM     11  C   UNL     1       5.700   4.752  17.484  0.00  0.00    +0.000 A 
ATOM     12  C   UNL     1       4.893   5.339  16.504  0.00  0.00    +0.000 A 
ATOM     13  C   UNL     1       5.442   5.664  15.273  0.00  0.00    +0.000 A 
ATOM     14  C   UNL     1       6.772   5.350  15.034  0.00  0.00    +0.000 A 
ATOM     15  N   UNL     1       7.545   4.657  15.888  0.00  0.00    +0.000 NA
ATOM     16  C   UNL     1       6.989   4.366  17.087  0.00  0.00    +0.000 A 
ENDBRANCH   3  11
BRANCH   1  18
ATOM     17  C   UNL     1       1.882   7.347  20.409  0.00  0.00    +0.000 C 
ATOM     18  N   UNL     1       2.597   7.023  19.149  0.00  0.00    +0.000 N 
BRANCH  18  19
ATOM     19  C   UNL     1       2.126   7.703  17.938  0.00  0.00    +0.000 C 
BRANCH  19  20
ATOM     20  C   UNL     1       2.193   9.271  17.982  0.00  0.00    +0.000 C 
BRANCH  20  21
ATOM     21  C   UNL     1       0.924   9.980  18.417  0.00  0.00    +0.000 A 
ATOM     22  C   UNL     1       0.978  10.895  19.475  0.00  0.00    +0.000 A 
ATOM     23  C   UNL     1      -0.185  11.495  19.961  0.00  0.00    +0.000 A 
ATOM     24  C   UNL     1      -1.417  11.201  19.385  0.00  0.00    +0.000 A 
ATOM     25  C   UNL     1      -1.481  10.347  18.288  0.00  0.00    +0.000 A 
ATOM     26  C   UNL     1      -0.314   9.749  17.798  0.00  0.00    +0.000 A 
ENDBRANCH  20  21
ENDBRANCH  19  20
ENDBRANCH  18  19
ENDBRANCH   1  18
TORSDOF 5
ENDMDL
MODEL 3
REMARK VINA RESULT:      -8.6      0.845      1.268
REMARK  Name = 
REMARK  6 active torsions:
REMARK  status: ('A' for Active; 'I' for Inactive)
REMARK    1  A    between atoms: C_1  and  N_2
REMARK    2  A    between atoms: N_2  and  C_3
REMARK    3  A    between atoms: N_2  and  C_11
REMARK    4  A    between atoms: C_3  and  C_4
REMARK    5  A    between atoms: C_4  and  C_5
REMARK    6  A    between atoms: C_13  and  C_14
REMARK                            x       y       z     vdW  Elec       q    Type
REMARK                         _______ _______ _______ _____ _____    ______ ____
ROOT
ATOM      1  C   UNL     1       2.828   5.939  19.645  0.00  0.00    +0.000 A 
ATOM      2  N   UNL     1       4.130   6.122  19.305  0.00  0.00    +0.000 NA
ATOM      3  C   UNL     1       4.837   5.112  18.859  0.00  0.00    +0.000 A 
ATOM      4  N   UNL     1       4.650   3.911  19.414  0.00  0.00    +0.000 NA
ATOM      5  C   UNL     1       3.373   3.606  19.500  0.00  0.00    +0.000 A 
ATOM      6  C   UNL     1       3.159   2.266  19.231  0.00  0.00    +0.000 A 
ATOM      7  C   UNL     1       1.882   1.764  19.044  0.00  0.00    +0.000 A 
ATOM      8  C   UNL     1       0.810   2.624  19.256  0.00  0.00    +0.000 A 
ATOM      9  C   UNL     1       1.011   3.994  19.563  0.00  0.00    +0.000 A 
ATOM     10  C   UNL     1       2.326   4.569  19.615  0.00  0.00    +0.000 A 
ENDROOT
BRANCH   3  11
ATOM     11  C   UNL     1       4.874   4.971  17.389  0.00  0.00    +0.000 A 
ATOM     12  C   UNL     1       4.758   6.108  16.584  0.00  0.00    +0.000 A 
ATOM     13  C   UNL     1       5.343   6.117  15.327  0.00  0.00    +0.000 A 
ATOM     14  C   UNL     1       5.987   4.970  14.885  0.00  0.00    +0.000 A 
ATOM     15  N   UNL     1       5.999   3.808  15.561  0.00  0.00    +0.000 NA
ATOM     16  C   UNL     1       5.434   3.832  16.790  0.00  0.00    +0.000 A 
ENDBRANCH   3  11
BRANCH   1  18
ATOM     17  C   UNL     1       2.309   7.915  18.443  0.00  0.00    +0.000 C 
ATOM     18  N   UNL     1       2.180   7.175  19.722  0.00  0.00    +0.000 N 
BRANCH  18  19
ATOM     19  C   UNL     1       1.893   7.979  20.915  0.00  0.00    +0.000 C 
BRANCH  19  20
ATOM     20  C   UNL     1       0.383   8.022  21.344  0.00  0.00    +0.000 C 
BRANCH  20  21
ATOM     21  C   UNL     1      -0.201   9.402  21.585  0.00  0.00    +0.000 A 
ATOM     22  C   UNL     1      -0.593   9.763  22.879  0.00  0.00    +0.000 A 
ATOM     23  C   UNL     1      -1.218  10.988  23.121  0.00  0.00    +0.000 A 
ATOM     24  C   UNL     1      -1.446  11.876  22.073  0.00  0.00    +0.000 A 
ATOM     25  C   UNL     1      -1.000  11.562  20.792  0.00  0.00    +0.000 A 
ATOM     26  C   UNL     1      -0.369  10.337  20.552  0.00  0.00    +0.000 A 
ENDBRANCH  20  21
ENDBRANCH  19  20
ENDBRANCH  18  19
ENDBRANCH   1  18
TORSDOF 5
ENDMDL
MODEL 4
REMARK VINA RESULT:      -8.5      0.808      1.411
REMARK  Name = 
REMARK  6 active torsions:
REMARK  status: ('A' for Active; 'I' for Inactive)
REMARK    1  A    between atoms: C_1  and  N_2
REMARK    2  A    between atoms: N_2  and  C_3
REMARK    3  A    between atoms: N_2  and  C_11
REMARK    4  A    between atoms: C_3  and  C_4
REMARK    5  A    between atoms: C_4  and  C_5
REMARK    6  A    between atoms: C_13  and  C_14
REMARK                            x       y       z     vdW  Elec       q    Type
REMARK                         _______ _______ _______ _____ _____    ______ ____
ROOT
ATOM      1  C   UNL     1       3.283   5.967  19.140  0.00  0.00    +0.000 A 
ATOM      2  N   UNL     1       4.592   6.324  19.215  0.00  0.00    +0.000 NA
ATOM      3  C   UNL     1       5.525   5.450  18.924  0.00  0.00    +0.000 A 
ATOM      4  N   UNL     1       5.349   4.182  19.307  0.00  0.00    +0.000 NA
ATOM      5  C   UNL     1       4.153   3.736  18.988  0.00  0.00    +0.000 A 
ATOM      6  C   UNL     1       4.205   2.419  18.569  0.00  0.00    +0.000 A 
ATOM      7  C   UNL     1       3.114   1.808  17.975  0.00  0.00    +0.000 A 
ATOM      8  C   UNL     1       1.921   2.521  17.924  0.00  0.00    +0.000 A 
ATOM      9  C   UNL     1       1.841   3.863  18.378  0.00  0.00    +0.000 A 
ATOM     10  C   UNL     1       2.999   4.564  18.860  0.00  0.00    +0.000 A 
ENDROOT
BRANCH   3  11
ATOM     11  C   UNL     1       5.996   5.477  17.524  0.00  0.00    +0.000 A 
ATOM     12  C   UNL     1       6.674   4.371  17.003  0.00  0.00    +0.000 A 
ATOM     13  C   UNL     1       6.612   4.110  15.643  0.00  0.00    +0.000 A 
ATOM     14  C   UNL     1       5.914   4.992  14.829  0.00  0.00    +0.000 A 
ATOM     15  N   UNL     1       5.371   6.143  15.260  0.00  0.00    +0.000 NA
ATOM     16  C   UNL     1       5.434   6.364  16.593  0.00  0.00    +0.000 A 
ENDBRANCH   3  11
BRANCH   1  18
ATOM     17  C   UNL     1       2.784   7.938  17.918  0.00  0.00    +0.000 C 
ATOM     18  N   UNL     1       2.482   7.112  19.114  0.00  0.00    +0.000 N 
BRANCH  18  19
ATOM     19  C   UNL     1       1.846   7.804  20.241  0.00  0.00    +0.000 C 
BRANCH  19  20
ATOM     20  C   UNL     1       1.114   9.144  19.875  0.00  0.00    +0.000 C 
BRANCH  20  21
ATOM     21  C   UNL     1       0.361   9.820  21.006  0.00  0.00    +0.000 A 
ATOM     22  C   UNL     1       0.270   9.180  22.247  0.00  0.00    +0.000 A 
ATOM     23  C   UNL     1      -0.492   9.730  23.280  0.00  0.00    +0.000 A 
ATOM     24  C   UNL     1      -1.160  10.936  23.092  0.00  0.00    +0.000 A 
ATOM     25  C   UNL     1      -1.023  11.621  21.887  0.00  0.00    +0.000 A 
ATOM     26  C   UNL     1      -0.255  11.072  20.854  0.00  0.00    +0.000 A 
ENDBRANCH  20  21
ENDBRANCH  19  20
ENDBRANCH  18  19
ENDBRANCH   1  18
TORSDOF 5
ENDMDL
MODEL 5
REMARK VINA RESULT:      -8.5      1.500      2.043
REMARK  Name = 
REMARK  6 active torsions:
REMARK  status: ('A' for Active; 'I' for Inactive)
REMARK    1  A    between atoms: C_1  and  N_2
REMARK    2  A    between atoms: N_2  and  C_3
REMARK    3  A    between atoms: N_2  and  C_11
REMARK    4  A    between atoms: C_3  and  C_4
REMARK    5  A    between atoms: C_4  and  C_5
REMARK    6  A    between atoms: C_13  and  C_14
REMARK                            x       y       z     vdW  Elec       q    Type
REMARK                         _______ _______ _______ _____ _____    ______ ____
ROOT
ATOM      1  C   UNL     1       3.475   5.761  19.272  0.00  0.00    +0.000 A 
ATOM      2  N   UNL     1       4.832   5.822  19.223  0.00  0.00    +0.000 NA
ATOM      3  C   UNL     1       5.525   4.742  18.957  0.00  0.00    +0.000 A 
ATOM      4  N   UNL     1       5.115   3.580  19.475  0.00  0.00    +0.000 NA
ATOM      5  C   UNL     1       3.827   3.387  19.283  0.00  0.00    +0.000 A 
ATOM      6  C   UNL     1       3.557   2.061  18.993  0.00  0.00    +0.000 A 
ATOM      7  C   UNL     1       2.312   1.662  18.538  0.00  0.00    +0.000 A 
ATOM      8  C   UNL     1       1.301   2.617  18.498  0.00  0.00    +0.000 A 
ATOM      9  C   UNL     1       1.553   3.975  18.822  0.00  0.00    +0.000 A 
ATOM     10  C   UNL     1       2.872   4.438  19.153  0.00  0.00    +0.000 A 
ENDROOT
BRANCH   3  11
ATOM     11  C   UNL     1       5.866   4.549  17.533  0.00  0.00    +0.000 A 
ATOM     12  C   UNL     1       4.979   4.988  16.546  0.00  0.00    +0.000 A 
ATOM     13  C   UNL     1       5.469   5.355  15.302  0.00  0.00    +0.000 A 
ATOM     14  C   UNL     1       6.830   5.228  15.059  0.00  0.00    +0.000 A 
ATOM     15  N   UNL     1       7.698   4.677  15.924  0.00  0.00    +0.000 NA
ATOM     16  C   UNL     1       7.196   4.341  17.134  0.00  0.00    +0.000 A 
ENDBRANCH   3  11
BRANCH   1  18
ATOM     17  C   UNL     1       1.926   7.267  20.249  0.00  0.00    +0.000 C 
ATOM     18  N   UNL     1       2.940   7.049  19.188  0.00  0.00    +0.000 N 
BRANCH  18  19
ATOM     19  C   UNL     1       2.852   7.923  18.013  0.00  0.00    +0.000 C 
BRANCH  19  20
ATOM     20  C   UNL     1       1.430   8.527  17.734  0.00  0.00    +0.000 C 
BRANCH  20  21
ATOM     21  C   UNL     1       1.201   9.944  18.227  0.00  0.00    +0.000 A 
ATOM     22  C   UNL     1       2.184  10.915  18.002  0.00  0.00    +0.000 A 
ATOM     23  C   UNL     1       2.047  12.204  18.522  0.00  0.00    +0.000 A 
ATOM     24  C   UNL     1       0.917  12.544  19.260  0.00  0.00    +0.000 A 
ATOM     25  C   UNL     1      -0.102  11.612  19.433  0.00  0.00    +0.000 A 
ATOM     26  C   UNL     1       0.034  10.322  18.908  0.00  0.00    +0.000 A 
ENDBRANCH  20  21
ENDBRANCH  19  20
ENDBRANCH  18  19
ENDBRANCH   1  18
TORSDOF 5
ENDMDL
MODEL 6
REMARK VINA RESULT:      -8.5      0.877      1.055
REMARK  Name = 
REMARK  6 active torsions:
REMARK  status: ('A' for Active; 'I' for Inactive)
REMARK    1  A    between atoms: C_1  and  N_2
REMARK    2  A    between atoms: N_2  and  C_3
REMARK    3  A    between atoms: N_2  and  C_11
REMARK    4  A    between atoms: C_3  and  C_4
REMARK    5  A    between atoms: C_4  and  C_5
REMARK    6  A    between atoms: C_13  and  C_14
REMARK                            x       y       z     vdW  Elec       q    Type
REMARK                         _______ _______ _______ _____ _____    ______ ____
ROOT
ATOM      1  C   UNL     1       3.385   5.814  18.841  0.00  0.00    +0.000 A 
ATOM      2  N   UNL     1       4.739   5.928  18.841  0.00  0.00    +0.000 NA
ATOM      3  C   UNL     1       5.485   4.852  18.784  0.00  0.00    +0.000 A 
ATOM      4  N   UNL     1       5.093   3.770  19.465  0.00  0.00    +0.000 NA
ATOM      5  C   UNL     1       3.825   3.491  19.252  0.00  0.00    +0.000 A 
ATOM      6  C   UNL     1       3.620   2.126  19.170  0.00  0.00    +0.000 A 
ATOM      7  C   UNL     1       2.415   1.603  18.733  0.00  0.00    +0.000 A 
ATOM      8  C   UNL     1       1.372   2.492  18.495  0.00  0.00    +0.000 A 
ATOM      9  C   UNL     1       1.556   3.894  18.604  0.00  0.00    +0.000 A 
ATOM     10  C   UNL     1       2.838   4.464  18.912  0.00  0.00    +0.000 A 
ENDROOT
BRANCH   3  11
ATOM     11  C   UNL     1       5.904   4.449  17.426  0.00  0.00    +0.000 A 
ATOM     12  C   UNL     1       4.969   4.453  16.387  0.00  0.00    +0.000 A 
ATOM     13  C   UNL     1       5.398   4.654  15.083  0.00  0.00    +0.000 A 
ATOM     14  C   UNL     1       6.758   4.797  14.846  0.00  0.00    +0.000 A 
ATOM     15  N   UNL     1       7.704   4.657  15.790  0.00  0.00    +0.000 NA
ATOM     16  C   UNL     1       7.257   4.475  17.054  0.00  0.00    +0.000 A 
ENDBRANCH   3  11
BRANCH   1  18
ATOM     17  C   UNL     1       3.560   7.718  17.438  0.00  0.00    +0.000 C 
ATOM     18  N   UNL     1       2.806   7.047  18.526  0.00  0.00    +0.000 N 
BRANCH  18  19
ATOM     19  C   UNL     1       1.985   7.912  19.380  0.00  0.00    +0.000 C 
BRANCH  19  20
ATOM     20  C   UNL     1       1.453   9.219  18.692  0.00  0.00    +0.000 C 
BRANCH  20  21
ATOM     21  C   UNL     1       0.496  10.061  19.515  0.00  0.00    +0.000 A 
ATOM     22  C   UNL     1      -0.628  10.623  18.897  0.00  0.00    +0.000 A 
ATOM     23  C   UNL     1      -1.478  11.477  19.601  0.00  0.00    +0.000 A 
ATOM     24  C   UNL     1      -1.225  11.771  20.938  0.00  0.00    +0.000 A 
ATOM     25  C   UNL     1      -0.152  11.167  21.587  0.00  0.00    +0.000 A 
ATOM     26  C   UNL     1       0.697  10.306  20.882  0.00  0.00    +0.000 A 
ENDBRANCH  20  21
ENDBRANCH  19  20
ENDBRANCH  18  19
ENDBRANCH   1  18
TORSDOF 5
ENDMDL
MODEL 7
REMARK VINA RESULT:      -8.4      1.343      1.845
REMARK  Name = 
REMARK  6 active torsions:
REMARK  status: ('A' for Active; 'I' for Inactive)
REMARK    1  A    between atoms: C_1  and  N_2
REMARK    2  A    between atoms: N_2  and  C_3
REMARK    3  A    between atoms: N_2  and  C_11
REMARK    4  A    between atoms: C_3  and  C_4
REMARK    5  A    between atoms: C_4  and  C_5
REMARK    6  A    between atoms: C_13  and  C_14
REMARK                            x       y       z     vdW  Elec       q    Type
REMARK                         _______ _______ _______ _____ _____    ______ ____
ROOT
ATOM      1  C   UNL     1       3.242   5.954  18.886  0.00  0.00    +0.000 A 
ATOM      2  N   UNL     1       4.591   6.121  18.875  0.00  0.00    +0.000 NA
ATOM      3  C   UNL     1       5.378   5.075  18.814  0.00  0.00    +0.000 A 
ATOM      4  N   UNL     1       5.034   3.980  19.500  0.00  0.00    +0.000 NA
ATOM      5  C   UNL     1       3.776   3.651  19.297  0.00  0.00    +0.000 A 
ATOM      6  C   UNL     1       3.624   2.278  19.218  0.00  0.00    +0.000 A 
ATOM      7  C   UNL     1       2.437   1.708  18.791  0.00  0.00    +0.000 A 
ATOM      8  C   UNL     1       1.359   2.555  18.560  0.00  0.00    +0.000 A 
ATOM      9  C   UNL     1       1.488   3.964  18.666  0.00  0.00    +0.000 A 
ATOM     10  C   UNL     1       2.750   4.583  18.963  0.00  0.00    +0.000 A 
ENDROOT
BRANCH   3  11
ATOM     11  C   UNL     1       5.802   4.686  17.453  0.00  0.00    +0.000 A 
ATOM     12  C   UNL     1       4.968   4.963  16.366  0.00  0.00    +0.000 A 
ATOM     13  C   UNL     1       5.525   5.157  15.111  0.00  0.00    +0.000 A 
ATOM     14  C   UNL     1       6.898   5.020  14.965  0.00  0.00    +0.000 A 
ATOM     15  N   UNL     1       7.721   4.614  15.946  0.00  0.00    +0.000 NA
ATOM     16  C   UNL     1       7.154   4.446  17.163  0.00  0.00    +0.000 A 
ENDBRANCH   3  11
BRANCH   1  18
ATOM     17  C   UNL     1       3.311   7.843  17.454  0.00  0.00    +0.000 C 
ATOM     18  N   UNL     1       2.613   7.163  18.574  0.00  0.00    +0.000 N 
BRANCH  18  19
ATOM     19  C   UNL     1       1.790   8.012  19.442  0.00  0.00    +0.000 C 
BRANCH  19  20
ATOM     20  C   UNL     1       1.657   9.507  18.983  0.00  0.00    +0.000 C 
BRANCH  20  21
ATOM     21  C   UNL     1       0.242  10.026  18.810  0.00  0.00    +0.000 A 
ATOM     22  C   UNL     1      -0.505   9.622  17.698  0.00  0.00    +0.000 A 
ATOM     23  C   UNL     1      -1.775  10.151  17.459  0.00  0.00    +0.000 A 
ATOM     24  C   UNL     1      -2.322  11.081  18.338  0.00  0.00    +0.000 A 
ATOM     25  C   UNL     1      -1.622  11.442  19.486  0.00  0.00    +0.000 A 
ATOM     26  C   UNL     1      -0.352  10.907  19.727  0.00  0.00    +0.000 A 
ENDBRANCH  20  21
ENDBRANCH  19  20
ENDBRANCH  18  19
ENDBRANCH   1  18
TORSDOF 5
ENDMDL
MODEL 8
REMARK VINA RESULT:      -8.4      2.028      7.644
REMARK  Name = 
REMARK  6 active torsions:
REMARK  status: ('A' for Active; 'I' for Inactive)
REMARK    1  A    between atoms: C_1  and  N_2
REMARK    2  A    between atoms: N_2  and  C_3
REMARK    3  A    between atoms: N_2  and  C_11
REMARK    4  A    between atoms: C_3  and  C_4
REMARK    5  A    between atoms: C_4  and  C_5
REMARK    6  A    between atoms: C_13  and  C_14
REMARK                            x       y       z     vdW  Elec       q    Type
REMARK                         _______ _______ _______ _____ _____    ______ ____
ROOT
ATOM      1  C   UNL     1       4.340   4.565  18.298  0.00  0.00    +0.000 A 
ATOM      2  N   UNL     1       3.795   5.560  17.551  0.00  0.00    +0.000 NA
ATOM      3  C   UNL     1       2.561   5.942  17.775  0.00  0.00    +0.000 A 
ATOM      4  N   UNL     1       1.650   5.010  18.073  0.00  0.00    +0.000 NA
ATOM      5  C   UNL     1       2.079   4.190  19.009  0.00  0.00    +0.000 A 
ATOM      6  C   UNL     1       1.061   3.853  19.883  0.00  0.00    +0.000 A 
ATOM      7  C   UNL     1       1.321   3.185  21.068  0.00  0.00    +0.000 A 
ATOM      8  C   UNL     1       2.623   2.753  21.295  0.00  0.00    +0.000 A 
ATOM      9  C   UNL     1       3.674   3.063  20.394  0.00  0.00    +0.000 A 
ATOM     10  C   UNL     1       3.453   3.882  19.234  0.00  0.00    +0.000 A 
ENDROOT
BRANCH   3  11
ATOM     11  C   UNL     1       2.414   7.082  18.702  0.00  0.00    +0.000 A 
ATOM     12  C   UNL     1       2.132   8.353  18.194  0.00  0.00    +0.000 A 
ATOM     13  C   UNL     1       1.442   9.265  18.978  0.00  0.00    +0.000 A 
ATOM     14  C   UNL     1       1.093   8.899  20.271  0.00  0.00    +0.000 A 
ATOM     15  N   UNL     1       1.468   7.747  20.853  0.00  0.00    +0.000 NA
ATOM     16  C   UNL     1       2.128   6.872  20.060  0.00  0.00    +0.000 A 
ENDBRANCH   3  11
BRANCH   1  18
ATOM     17  C   UNL     1       6.359   5.333  19.278  0.00  0.00    +0.000 C 
ATOM     18  N   UNL     1       5.731   4.580  18.163  0.00  0.00    +0.000 N 
BRANCH  18  19
ATOM     19  C   UNL     1       6.529   4.443  16.940  0.00  0.00    +0.000 C 
BRANCH  19  20
ATOM     20  C   UNL     1       5.802   3.729  15.745  0.00  0.00    +0.000 C 
BRANCH  20  21
ATOM     21  C   UNL     1       6.321   4.060  14.358  0.00  0.00    +0.000 A 
ATOM     22  C   UNL     1       5.810   3.369  13.253  0.00  0.00    +0.000 A 
ATOM     23  C   UNL     1       6.330   3.582  11.975  0.00  0.00    +0.000 A 
ATOM     24  C   UNL     1       7.357   4.500  11.781  0.00  0.00    +0.000 A 
ATOM     25  C   UNL     1       7.829   5.247  12.857  0.00  0.00    +0.000 A 
ATOM     26  C   UNL     1       7.304   5.037  14.137  0.00  0.00    +0.000 A 
ENDBRANCH  20  21
ENDBRANCH  19  20
ENDBRANCH  18  19
ENDBRANCH   1  18
TORSDOF 5
ENDMDL
MODEL 9
REMARK VINA RESULT:      -8.3      1.500      2.058
REMARK  Name = 
REMARK  6 active torsions:
REMARK  status: ('A' for Active; 'I' for Inactive)
REMARK    1  A    between atoms: C_1  and  N_2
REMARK    2  A    between atoms: N_2  and  C_3
REMARK    3  A    between atoms: N_2  and  C_11
REMARK    4  A    between atoms: C_3  and  C_4
REMARK    5  A    between atoms: C_4  and  C_5
REMARK    6  A    between atoms: C_13  and  C_14
REMARK                            x       y       z     vdW  Elec       q    Type
REMARK                         _______ _______ _______ _____ _____    ______ ____
ROOT
ATOM      1  C   UNL     1       3.306   6.053  19.150  0.00  0.00    +0.000 A 
ATOM      2  N   UNL     1       4.625   6.369  19.214  0.00  0.00    +0.000 NA
ATOM      3  C   UNL     1       5.528   5.469  18.907  0.00  0.00    +0.000 A 
ATOM      4  N   UNL     1       5.318   4.204  19.285  0.00  0.00    +0.000 NA
ATOM      5  C   UNL     1       4.105   3.797  18.976  0.00  0.00    +0.000 A 
ATOM      6  C   UNL     1       4.113   2.481  18.548  0.00  0.00    +0.000 A 
ATOM      7  C   UNL     1       2.997   1.908  17.963  0.00  0.00    +0.000 A 
ATOM      8  C   UNL     1       1.826   2.657  17.929  0.00  0.00    +0.000 A 
ATOM      9  C   UNL     1       1.792   3.998  18.391  0.00  0.00    +0.000 A 
ATOM     10  C   UNL     1       2.975   4.661  18.865  0.00  0.00    +0.000 A 
ENDROOT
BRANCH   3  11
ATOM     11  C   UNL     1       5.986   5.490  17.503  0.00  0.00    +0.000 A 
ATOM     12  C   UNL     1       6.642   4.375  16.975  0.00  0.00    +0.000 A 
ATOM     13  C   UNL     1       6.563   4.117  15.615  0.00  0.00    +0.000 A 
ATOM     14  C   UNL     1       5.869   5.008  14.808  0.00  0.00    +0.000 A 
ATOM     15  N   UNL     1       5.347   6.167  15.246  0.00  0.00    +0.000 NA
ATOM     16  C   UNL     1       5.426   6.386  16.578  0.00  0.00    +0.000 A 
ENDBRANCH   3  11
BRANCH   1  18
ATOM     17  C   UNL     1       1.830   7.396  20.432  0.00  0.00    +0.000 C 
ATOM     18  N   UNL     1       2.539   7.221  19.140  0.00  0.00    +0.000 N 
BRANCH  18  19
ATOM     19  C   UNL     1       1.975   7.929  17.985  0.00  0.00    +0.000 C 
BRANCH  19  20
ATOM     20  C   UNL     1       1.983   9.496  18.092  0.00  0.00    +0.000 C 
BRANCH  20  21
ATOM     21  C   UNL     1       0.686  10.138  18.545  0.00  0.00    +0.000 A 
ATOM     22  C   UNL     1      -0.487   9.900  17.819  0.00  0.00    +0.000 A 
ATOM     23  C   UNL     1      -1.678  10.548  18.153  0.00  0.00    +0.000 A 
ATOM     24  C   UNL     1      -1.717  11.431  19.228  0.00  0.00    +0.000 A 
ATOM     25  C   UNL     1      -0.578  11.626  20.004  0.00  0.00    +0.000 A 
ATOM     26  C   UNL     1       0.614  10.973  19.672  0.00  0.00    +0.000 A 
ENDBRANCH  20  21
ENDBRANCH  19  20
ENDBRANCH  18  19
ENDBRANCH   1  18
TORSDOF 5
ENDMDL
