MODEL 1
REMARK VINA RESULT:      -9.1      0.000      0.000
REMARK  Name = 
REMARK  8 active torsions:
REMARK  status: ('A' for Active; 'I' for Inactive)
REMARK    1  A    between atoms: C_1  and  C_2
REMARK    2  A    between atoms: C_2  and  C_3
REMARK    3  A    between atoms: C_2  and  N_13
REMARK    4  A    between atoms: C_2  and  C_27
REMARK    5  A    between atoms: C_3  and  C_4
REMARK    6  A    between atoms: C_14  and  O_16
REMARK    7  A    between atoms: O_16  and  C_17
REMARK    8  A    between atoms: N_29  and  C_30
REMARK                            x       y       z     vdW  Elec       q    Type
REMARK                         _______ _______ _______ _____ _____    ______ ____
ROOT
ATOM      1  C   UNL     1       6.618   5.315  19.183  0.00  0.00    +0.000 C 
ATOM      2  C   UNL     1       6.834   6.255  17.977  0.00  0.00    +0.000 C 
ENDROOT
BRANCH   2   3
ATOM      3  N   UNL     1       7.980   7.135  18.285  0.00  0.00    +0.000 N 
ATOM      4  C   UNL     1       7.960   8.450  17.921  0.00  0.00    +0.000 C 
ATOM      5  O   UNL     1       7.262   8.919  17.035  0.00  0.00    +0.000 OA
ATOM      6  H   UNL     1       8.424   7.005  19.186  0.00  0.00    +0.000 HD
BRANCH   4   7
ATOM      7  O   UNL     1       8.809   9.150  18.709  0.00  0.00    +0.000 OA
BRANCH   7   8
ATOM      8  C   UNL     1       8.493  10.542  18.932  0.00  0.00    +0.000 C 
ATOM      9  C   UNL     1       9.146  11.030  20.244  0.00  0.00    +0.000 C 
ATOM     10  C   UNL     1      10.679  10.894  20.161  0.00  0.00    +0.000 C 
ATOM     11  C   UNL     1      11.217  11.717  18.979  0.00  0.00    +0.000 C 
ATOM     12  C   UNL     1      10.850  13.198  19.186  0.00  0.00    +0.000 C 
ATOM     13  C   UNL     1       9.321  13.354  19.275  0.00  0.00    +0.000 C 
ATOM     14  C   UNL     1       8.686  12.848  17.968  0.00  0.00    +0.000 C 
ATOM     15  C   UNL     1       9.041  11.367  17.748  0.00  0.00    +0.000 C 
ATOM     16  C   UNL     1      10.574  11.220  17.672  0.00  0.00    +0.000 C 
ATOM     17  C   UNL     1       8.794  12.516  20.454  0.00  0.00    +0.000 C 
ENDBRANCH   7   8
ENDBRANCH   4   7
ENDBRANCH   2   3
BRANCH   2  18
ATOM     18  C   UNL     1       7.111   5.311  16.764  0.00  0.00    +0.000 C 
ATOM     19  O   UNL     1       7.928   4.396  16.875  0.00  0.00    +0.000 OA
ATOM     20  N   UNL     1       6.575   5.730  15.550  0.00  0.00    +0.000 N 
ATOM     21  H   UNL     1       6.077   6.612  15.549  0.00  0.00    +0.000 HD
BRANCH  20  22
ATOM     22  C   UNL     1       6.729   5.053  14.319  0.00  0.00    +0.000 A 
ATOM     23  C   UNL     1       7.707   5.402  13.382  0.00  0.00    +0.000 A 
ATOM     24  C   UNL     1       7.798   4.747  12.153  0.00  0.00    +0.000 A 
ATOM     25  C   UNL     1       6.912   3.722  11.846  0.00  0.00    +0.000 A 
ATOM     26  C   UNL     1       5.954   3.334  12.783  0.00  0.00    +0.000 A 
ATOM     27  C   UNL     1       5.871   3.987  14.021  0.00  0.00    +0.000 A 
ENDBRANCH  20  22
ENDBRANCH   2  18
BRANCH   2  28
ATOM     28  C   UNL     1       5.534   7.054  17.642  0.00  0.00    +0.000 C 
BRANCH  28  29
ATOM     29  C   UNL     1       4.280   6.506  18.260  0.00  0.00    +0.000 A 
ATOM     30  C   UNL     1       3.514   7.097  19.246  0.00  0.00    +0.000 A 
ATOM     31  N   UNL     1       2.485   6.249  19.556  0.00  0.00    +0.000 N 
ATOM     32  C   UNL     1       2.566   5.106  18.796  0.00  0.00    +0.000 A 
ATOM     33  C   UNL     1       1.772   3.953  18.809  0.00  0.00    +0.000 A 
ATOM     34  C   UNL     1       2.083   2.941  17.895  0.00  0.00    +0.000 A 
ATOM     35  C   UNL     1       3.123   3.094  16.981  0.00  0.00    +0.000 A 
ATOM     36  C   UNL     1       3.904   4.254  16.981  0.00  0.00    +0.000 A 
ATOM     37  C   UNL     1       3.641   5.268  17.926  0.00  0.00    +0.000 A 
ATOM     38  H   UNL     1       1.770   6.429  20.246  0.00  0.00    +0.000 HD
ENDBRANCH  28  29
ENDBRANCH   2  28
TORSDOF 7
ENDMDL
MODEL 2
REMARK VINA RESULT:      -9.0      1.388      1.829
REMARK  Name = 
REMARK  8 active torsions:
REMARK  status: ('A' for Active; 'I' for Inactive)
REMARK    1  A    between atoms: C_1  and  C_2
REMARK    2  A    between atoms: C_2  and  C_3
REMARK    3  A    between atoms: C_2  and  N_13
REMARK    4  A    between atoms: C_2  and  C_27
REMARK    5  A    between atoms: C_3  and  C_4
REMARK    6  A    between atoms: C_14  and  O_16
REMARK    7  A    between atoms: O_16  and  C_17
REMARK    8  A    between atoms: N_29  and  C_30
REMARK                            x       y       z     vdW  Elec       q    Type
REMARK                         _______ _______ _______ _____ _____    ______ ____
ROOT
ATOM      1  C   UNL     1       7.844   6.074  17.888  0.00  0.00    +0.000 C 
ATOM      2  C   UNL     1       6.682   6.994  17.455  0.00  0.00    +0.000 C 
ENDROOT
BRANCH   2   3
ATOM      3  N   UNL     1       7.163   8.390  17.505  0.00  0.00    +0.000 N 
ATOM      4  C   UNL     1       8.270   8.713  18.235  0.00  0.00    +0.000 C 
ATOM      5  O   UNL     1       8.713   8.054  19.162  0.00  0.00    +0.000 OA
ATOM      6  H   UNL     1       7.118   8.917  16.642  0.00  0.00    +0.000 HD
BRANCH   4   7
ATOM      7  O   UNL     1       8.810   9.856  17.752  0.00  0.00    +0.000 OA
BRANCH   7   8
ATOM      8  C   UNL     1       8.666  11.040  18.567  0.00  0.00    +0.000 C 
ATOM      9  C   UNL     1       9.733  11.046  19.685  0.00  0.00    +0.000 C 
ATOM     10  C   UNL     1      11.147  11.055  19.074  0.00  0.00    +0.000 C 
ATOM     11  C   UNL     1      11.328  12.294  18.180  0.00  0.00    +0.000 C 
ATOM     12  C   UNL     1      11.136  13.562  19.032  0.00  0.00    +0.000 C 
ATOM     13  C   UNL     1       9.728  13.570  19.655  0.00  0.00    +0.000 C 
ATOM     14  C   UNL     1       8.679  13.547  18.529  0.00  0.00    +0.000 C 
ATOM     15  C   UNL     1       8.856  12.282  17.670  0.00  0.00    +0.000 C 
ATOM     16  C   UNL     1      10.272  12.278  17.061  0.00  0.00    +0.000 C 
ATOM     17  C   UNL     1       9.556  12.319  20.535  0.00  0.00    +0.000 C 
ENDBRANCH   7   8
ENDBRANCH   4   7
ENDBRANCH   2   3
BRANCH   2  18
ATOM     18  C   UNL     1       6.313   6.537  16.007  0.00  0.00    +0.000 C 
ATOM     19  O   UNL     1       5.299   6.978  15.467  0.00  0.00    +0.000 OA
ATOM     20  N   UNL     1       7.048   5.461  15.519  0.00  0.00    +0.000 N 
ATOM     21  H   UNL     1       7.735   5.054  16.142  0.00  0.00    +0.000 HD
BRANCH  20  22
ATOM     22  C   UNL     1       6.862   4.860  14.253  0.00  0.00    +0.000 A 
ATOM     23  C   UNL     1       5.904   3.866  14.022  0.00  0.00    +0.000 A 
ATOM     24  C   UNL     1       5.783   3.256  12.773  0.00  0.00    +0.000 A 
ATOM     25  C   UNL     1       6.616   3.639  11.730  0.00  0.00    +0.000 A 
ATOM     26  C   UNL     1       7.551   4.654  11.931  0.00  0.00    +0.000 A 
ATOM     27  C   UNL     1       7.665   5.273  13.183  0.00  0.00    +0.000 A 
ENDBRANCH  20  22
ENDBRANCH   2  18
BRANCH   2  28
ATOM     28  C   UNL     1       5.415   6.761  18.340  0.00  0.00    +0.000 C 
BRANCH  28  29
ATOM     29  C   UNL     1       5.085   5.320  18.602  0.00  0.00    +0.000 A 
ATOM     30  C   UNL     1       5.922   4.361  19.138  0.00  0.00    +0.000 A 
ATOM     31  N   UNL     1       5.247   3.171  19.168  0.00  0.00    +0.000 N 
ATOM     32  C   UNL     1       3.983   3.327  18.652  0.00  0.00    +0.000 A 
ATOM     33  C   UNL     1       2.970   2.386  18.434  0.00  0.00    +0.000 A 
ATOM     34  C   UNL     1       1.760   2.845  17.905  0.00  0.00    +0.000 A 
ATOM     35  C   UNL     1       1.560   4.197  17.638  0.00  0.00    +0.000 A 
ATOM     36  C   UNL     1       2.582   5.125  17.864  0.00  0.00    +0.000 A 
ATOM     37  C   UNL     1       3.829   4.679  18.352  0.00  0.00    +0.000 A 
ATOM     38  H   UNL     1       5.620   2.297  19.513  0.00  0.00    +0.000 HD
ENDBRANCH  28  29
ENDBRANCH   2  28
TORSDOF 7
ENDMDL
MODEL 3
REMARK VINA RESULT:      -8.7      1.522      1.863
REMARK  Name = 
REMARK  8 active torsions:
REMARK  status: ('A' for Active; 'I' for Inactive)
REMARK    1  A    between atoms: C_1  and  C_2
REMARK    2  A    between atoms: C_2  and  C_3
REMARK    3  A    between atoms: C_2  and  N_13
REMARK    4  A    between atoms: C_2  and  C_27
REMARK    5  A    between atoms: C_3  and  C_4
REMARK    6  A    between atoms: C_14  and  O_16
REMARK    7  A    between atoms: O_16  and  C_17
REMARK    8  A    between atoms: N_29  and  C_30
REMARK                            x       y       z     vdW  Elec       q    Type
REMARK                         _______ _______ _______ _____ _____    ______ ____
ROOT
ATOM      1  C   UNL     1       7.587   5.965  17.954  0.00  0.00    +0.000 C 
ATOM      2  C   UNL     1       6.525   6.946  17.412  0.00  0.00    +0.000 C 
ENDROOT
BRANCH   2   3
ATOM      3  N   UNL     1       7.074   8.313  17.512  0.00  0.00    +0.000 N 
ATOM      4  C   UNL     1       8.229   8.545  18.201  0.00  0.00    +0.000 C 
ATOM      5  O   UNL     1       8.685   7.816  19.068  0.00  0.00    +0.000 OA
ATOM      6  H   UNL     1       7.013   8.889  16.682  0.00  0.00    +0.000 HD
BRANCH   4   7
ATOM      7  O   UNL     1       8.800   9.688  17.753  0.00  0.00    +0.000 OA
BRANCH   7   8
ATOM      8  C   UNL     1       8.529  10.890  18.506  0.00  0.00    +0.000 C 
ATOM      9  C   UNL     1       9.364  10.900  19.806  0.00  0.00    +0.000 C 
ATOM     10  C   UNL     1      10.868  10.872  19.475  0.00  0.00    +0.000 C 
ATOM     11  C   UNL     1      11.241  12.089  18.612  0.00  0.00    +0.000 C 
ATOM     12  C   UNL     1      10.917  13.378  19.390  0.00  0.00    +0.000 C 
ATOM     13  C   UNL     1       9.418  13.423  19.734  0.00  0.00    +0.000 C 
ATOM     14  C   UNL     1       8.601  13.395  18.430  0.00  0.00    +0.000 C 
ATOM     15  C   UNL     1       8.911  12.110  17.641  0.00  0.00    +0.000 C 
ATOM     16  C   UNL     1      10.416  12.069  17.313  0.00  0.00    +0.000 C 
ATOM     17  C   UNL     1       9.055  12.194  20.586  0.00  0.00    +0.000 C 
ENDBRANCH   7   8
ENDBRANCH   4   7
ENDBRANCH   2   3
BRANCH   2  18
ATOM     18  C   UNL     1       6.274   6.505  15.935  0.00  0.00    +0.000 C 
ATOM     19  O   UNL     1       5.279   6.914  15.335  0.00  0.00    +0.000 OA
ATOM     20  N   UNL     1       7.087   5.472  15.477  0.00  0.00    +0.000 N 
ATOM     21  H   UNL     1       7.748   5.083  16.137  0.00  0.00    +0.000 HD
BRANCH  20  22
ATOM     22  C   UNL     1       7.013   4.892  14.190  0.00  0.00    +0.000 A 
ATOM     23  C   UNL     1       7.803   5.325  13.120  0.00  0.00    +0.000 A 
ATOM     24  C   UNL     1       7.667   4.766  11.848  0.00  0.00    +0.000 A 
ATOM     25  C   UNL     1       6.741   3.755  11.631  0.00  0.00    +0.000 A 
ATOM     26  C   UNL     1       5.971   3.284  12.693  0.00  0.00    +0.000 A 
ATOM     27  C   UNL     1       6.115   3.840  13.972  0.00  0.00    +0.000 A 
ENDBRANCH  20  22
ENDBRANCH   2  18
BRANCH   2  28
ATOM     28  C   UNL     1       5.168   6.784  18.169  0.00  0.00    +0.000 C 
BRANCH  28  29
ATOM     29  C   UNL     1       4.898   5.403  18.694  0.00  0.00    +0.000 A 
ATOM     30  C   UNL     1       5.699   4.288  18.547  0.00  0.00    +0.000 A 
ATOM     31  N   UNL     1       5.068   3.226  19.135  0.00  0.00    +0.000 N 
ATOM     32  C   UNL     1       3.860   3.621  19.659  0.00  0.00    +0.000 A 
ATOM     33  C   UNL     1       2.861   2.874  20.294  0.00  0.00    +0.000 A 
ATOM     34  C   UNL     1       1.728   3.558  20.747  0.00  0.00    +0.000 A 
ATOM     35  C   UNL     1       1.617   4.939  20.602  0.00  0.00    +0.000 A 
ATOM     36  C   UNL     1       2.626   5.670  19.967  0.00  0.00    +0.000 A 
ATOM     37  C   UNL     1       3.757   4.995  19.458  0.00  0.00    +0.000 A 
ATOM     38  H   UNL     1       5.429   2.284  19.177  0.00  0.00    +0.000 HD
ENDBRANCH  28  29
ENDBRANCH   2  28
TORSDOF 7
ENDMDL
MODEL 4
REMARK VINA RESULT:      -8.6      5.708      9.998
REMARK  Name = 
REMARK  8 active torsions:
REMARK  status: ('A' for Active; 'I' for Inactive)
REMARK    1  A    between atoms: C_1  and  C_2
REMARK    2  A    between atoms: C_2  and  C_3
REMARK    3  A    between atoms: C_2  and  N_13
REMARK    4  A    between atoms: C_2  and  C_27
REMARK    5  A    between atoms: C_3  and  C_4
REMARK    6  A    between atoms: C_14  and  O_16
REMARK    7  A    between atoms: O_16  and  C_17
REMARK    8  A    between atoms: N_29  and  C_30
REMARK                            x       y       z     vdW  Elec       q    Type
REMARK                         _______ _______ _______ _____ _____    ______ ____
ROOT
ATOM      1  C   UNL     1       0.929   9.703  17.543  0.00  0.00    +0.000 C 
ATOM      2  C   UNL     1       0.865   9.739  19.085  0.00  0.00    +0.000 C 
ENDROOT
BRANCH   2   3
ATOM      3  N   UNL     1       1.758   8.683  19.603  0.00  0.00    +0.000 N 
ATOM      4  C   UNL     1       1.375   7.910  20.660  0.00  0.00    +0.000 C 
ATOM      5  O   UNL     1       0.527   8.222  21.483  0.00  0.00    +0.000 OA
ATOM      6  H   UNL     1       2.272   8.146  18.916  0.00  0.00    +0.000 HD
BRANCH   4   7
ATOM      7  O   UNL     1       2.056   6.741  20.636  0.00  0.00    +0.000 OA
BRANCH   7   8
ATOM      8  C   UNL     1       1.567   5.720  19.739  0.00  0.00    +0.000 C 
ATOM      9  C   UNL     1       2.649   5.374  18.691  0.00  0.00    +0.000 C 
ATOM     10  C   UNL     1       3.914   4.835  19.386  0.00  0.00    +0.000 C 
ATOM     11  C   UNL     1       3.569   3.581  20.207  0.00  0.00    +0.000 C 
ATOM     12  C   UNL     1       3.008   2.500  19.265  0.00  0.00    +0.000 C 
ATOM     13  C   UNL     1       1.745   3.021  18.557  0.00  0.00    +0.000 C 
ATOM     14  C   UNL     1       0.685   3.377  19.616  0.00  0.00    +0.000 C 
ATOM     15  C   UNL     1       1.230   4.460  20.563  0.00  0.00    +0.000 C 
ATOM     16  C   UNL     1       2.501   3.932  21.258  0.00  0.00    +0.000 C 
ATOM     17  C   UNL     1       2.100   4.283  17.750  0.00  0.00    +0.000 C 
ENDBRANCH   7   8
ENDBRANCH   4   7
ENDBRANCH   2   3
BRANCH   2  18
ATOM     18  C   UNL     1       1.337  11.174  19.483  0.00  0.00    +0.000 C 
ATOM     19  O   UNL     1       1.369  11.500  20.669  0.00  0.00    +0.000 OA
ATOM     20  N   UNL     1       1.461  12.072  18.427  0.00  0.00    +0.000 N 
ATOM     21  H   UNL     1       1.217  11.732  17.505  0.00  0.00    +0.000 HD
BRANCH  20  22
ATOM     22  C   UNL     1       1.839  13.428  18.557  0.00  0.00    +0.000 A 
ATOM     23  C   UNL     1       0.917  14.447  18.818  0.00  0.00    +0.000 A 
ATOM     24  C   UNL     1       1.316  15.783  18.887  0.00  0.00    +0.000 A 
ATOM     25  C   UNL     1       2.651  16.118  18.705  0.00  0.00    +0.000 A 
ATOM     26  C   UNL     1       3.591  15.113  18.481  0.00  0.00    +0.000 A 
ATOM     27  C   UNL     1       3.190  13.770  18.421  0.00  0.00    +0.000 A 
ENDBRANCH  20  22
ENDBRANCH   2  18
BRANCH   2  28
ATOM     28  C   UNL     1      -0.605   9.589  19.593  0.00  0.00    +0.000 C 
BRANCH  28  29
ATOM     29  C   UNL     1      -1.579  10.571  19.009  0.00  0.00    +0.000 A 
ATOM     30  C   UNL     1      -2.005  11.756  19.577  0.00  0.00    +0.000 A 
ATOM     31  N   UNL     1      -2.924  12.327  18.739  0.00  0.00    +0.000 N 
ATOM     32  C   UNL     1      -3.118  11.533  17.634  0.00  0.00    +0.000 A 
ATOM     33  C   UNL     1      -3.995  11.684  16.552  0.00  0.00    +0.000 A 
ATOM     34  C   UNL     1      -3.959  10.713  15.547  0.00  0.00    +0.000 A 
ATOM     35  C   UNL     1      -3.058   9.653  15.605  0.00  0.00    +0.000 A 
ATOM     36  C   UNL     1      -2.187   9.518  16.691  0.00  0.00    +0.000 A 
ATOM     37  C   UNL     1      -2.238  10.459  17.742  0.00  0.00    +0.000 A 
ATOM     38  H   UNL     1      -3.400  13.202  18.906  0.00  0.00    +0.000 HD
ENDBRANCH  28  29
ENDBRANCH   2  28
TORSDOF 7
ENDMDL
MODEL 5
REMARK VINA RESULT:      -8.5      5.797     10.430
REMARK  Name = 
REMARK  8 active torsions:
REMARK  status: ('A' for Active; 'I' for Inactive)
REMARK    1  A    between atoms: C_1  and  C_2
REMARK    2  A    between atoms: C_2  and  C_3
REMARK    3  A    between atoms: C_2  and  N_13
REMARK    4  A    between atoms: C_2  and  C_27
REMARK    5  A    between atoms: C_3  and  C_4
REMARK    6  A    between atoms: C_14  and  O_16
REMARK    7  A    between atoms: O_16  and  C_17
REMARK    8  A    between atoms: N_29  and  C_30
REMARK                            x       y       z     vdW  Elec       q    Type
REMARK                         _______ _______ _______ _____ _____    ______ ____
ROOT
ATOM      1  C   UNL     1       1.251  10.713  18.254  0.00  0.00    +0.000 C 
ATOM      2  C   UNL     1       0.970  10.071  19.630  0.00  0.00    +0.000 C 
ENDROOT
BRANCH   2   3
ATOM      3  N   UNL     1       1.906   8.942  19.806  0.00  0.00    +0.000 N 
ATOM      4  C   UNL     1       1.564   7.875  20.585  0.00  0.00    +0.000 C 
ATOM      5  O   UNL     1       0.718   7.895  21.466  0.00  0.00    +0.000 OA
ATOM      6  H   UNL     1       2.430   8.655  18.989  0.00  0.00    +0.000 HD
BRANCH   4   7
ATOM      7  O   UNL     1       2.286   6.794  20.211  0.00  0.00    +0.000 OA
BRANCH   7   8
ATOM      8  C   UNL     1       1.564   5.716  19.575  0.00  0.00    +0.000 C 
ATOM      9  C   UNL     1       2.307   5.259  18.300  0.00  0.00    +0.000 C 
ATOM     10  C   UNL     1       3.715   4.746  18.658  0.00  0.00    +0.000 C 
ATOM     11  C   UNL     1       3.612   3.571  19.646  0.00  0.00    +0.000 C 
ATOM     12  C   UNL     1       2.808   2.432  18.993  0.00  0.00    +0.000 C 
ATOM     13  C   UNL     1       1.398   2.927  18.624  0.00  0.00    +0.000 C 
ATOM     14  C   UNL     1       0.678   3.394  19.902  0.00  0.00    +0.000 C 
ATOM     15  C   UNL     1       1.469   4.536  20.565  0.00  0.00    +0.000 C 
ATOM     16  C   UNL     1       2.882   4.033  20.919  0.00  0.00    +0.000 C 
ATOM     17  C   UNL     1       1.515   4.110  17.646  0.00  0.00    +0.000 C 
ENDBRANCH   7   8
ENDBRANCH   4   7
ENDBRANCH   2   3
BRANCH   2  18
ATOM     18  C   UNL     1       1.201  11.212  20.671  0.00  0.00    +0.000 C 
ATOM     19  O   UNL     1       0.838  11.059  21.837  0.00  0.00    +0.000 OA
ATOM     20  N   UNL     1       1.594  12.435  20.135  0.00  0.00    +0.000 N 
ATOM     21  H   UNL     1       1.675  12.489  19.127  0.00  0.00    +0.000 HD
BRANCH  20  22
ATOM     22  C   UNL     1       1.826  13.612  20.883  0.00  0.00    +0.000 A 
ATOM     23  C   UNL     1       0.788  14.386  21.412  0.00  0.00    +0.000 A 
ATOM     24  C   UNL     1       1.049  15.571  22.101  0.00  0.00    +0.000 A 
ATOM     25  C   UNL     1       2.359  15.996  22.279  0.00  0.00    +0.000 A 
ATOM     26  C   UNL     1       3.409  15.217  21.792  0.00  0.00    +0.000 A 
ATOM     27  C   UNL     1       3.145  14.022  21.108  0.00  0.00    +0.000 A 
ENDBRANCH  20  22
ENDBRANCH   2  18
BRANCH   2  28
ATOM     28  C   UNL     1      -0.527   9.639  19.757  0.00  0.00    +0.000 C 
BRANCH  28  29
ATOM     29  C   UNL     1      -1.514  10.595  19.153  0.00  0.00    +0.000 A 
ATOM     30  C   UNL     1      -1.990  11.762  19.718  0.00  0.00    +0.000 A 
ATOM     31  N   UNL     1      -2.904  12.312  18.860  0.00  0.00    +0.000 N 
ATOM     32  C   UNL     1      -3.044  11.521  17.743  0.00  0.00    +0.000 A 
ATOM     33  C   UNL     1      -3.895  11.655  16.640  0.00  0.00    +0.000 A 
ATOM     34  C   UNL     1      -3.803  10.693  15.629  0.00  0.00    +0.000 A 
ATOM     35  C   UNL     1      -2.872   9.660  15.704  0.00  0.00    +0.000 A 
ATOM     36  C   UNL     1      -2.027   9.543  16.812  0.00  0.00    +0.000 A 
ATOM     37  C   UNL     1      -2.134  10.474  17.868  0.00  0.00    +0.000 A 
ATOM     38  H   UNL     1      -3.410  13.171  19.019  0.00  0.00    +0.000 HD
ENDBRANCH  28  29
ENDBRANCH   2  28
TORSDOF 7
ENDMDL
MODEL 6
REMARK VINA RESULT:      -8.4      1.440      5.040
REMARK  Name = 
REMARK  8 active torsions:
REMARK  status: ('A' for Active; 'I' for Inactive)
REMARK    1  A    between atoms: C_1  and  C_2
REMARK    2  A    between atoms: C_2  and  C_3
REMARK    3  A    between atoms: C_2  and  N_13
REMARK    4  A    between atoms: C_2  and  C_27
REMARK    5  A    between atoms: C_3  and  C_4
REMARK    6  A    between atoms: C_14  and  O_16
REMARK    7  A    between atoms: O_16  and  C_17
REMARK    8  A    between atoms: N_29  and  C_30
REMARK                            x       y       z     vdW  Elec       q    Type
REMARK                         _______ _______ _______ _____ _____    ______ ____
ROOT
ATOM      1  C   UNL     1       5.955   7.165  17.076  0.00  0.00    +0.000 C 
ATOM      2  C   UNL     1       6.957   6.420  17.984  0.00  0.00    +0.000 C 
ENDROOT
BRANCH   2   3
ATOM      3  N   UNL     1       7.822   7.429  18.630  0.00  0.00    +0.000 N 
ATOM      4  C   UNL     1       8.155   8.577  17.972  0.00  0.00    +0.000 C 
ATOM      5  O   UNL     1       8.129   8.721  16.759  0.00  0.00    +0.000 OA
ATOM      6  H   UNL     1       7.667   7.596  19.616  0.00  0.00    +0.000 HD
BRANCH   4   7
ATOM      7  O   UNL     1       8.487   9.533  18.872  0.00  0.00    +0.000 OA
BRANCH   7   8
ATOM      8  C   UNL     1       9.722  10.245  18.640  0.00  0.00    +0.000 C 
ATOM      9  C   UNL     1       9.470  11.455  17.713  0.00  0.00    +0.000 C 
ATOM     10  C   UNL     1       8.470  12.429  18.366  0.00  0.00    +0.000 C 
ATOM     11  C   UNL     1       9.018  12.918  19.717  0.00  0.00    +0.000 C 
ATOM     12  C   UNL     1      10.357  13.644  19.486  0.00  0.00    +0.000 C 
ATOM     13  C   UNL     1      11.368  12.687  18.830  0.00  0.00    +0.000 C 
ATOM     14  C   UNL     1      11.595  11.480  19.758  0.00  0.00    +0.000 C 
ATOM     15  C   UNL     1      10.266  10.742  19.996  0.00  0.00    +0.000 C 
ATOM     16  C   UNL     1       9.257  11.712  20.642  0.00  0.00    +0.000 C 
ATOM     17  C   UNL     1      10.803  12.195  17.486  0.00  0.00    +0.000 C 
ENDBRANCH   7   8
ENDBRANCH   4   7
ENDBRANCH   2   3
BRANCH   2  18
ATOM     18  C   UNL     1       6.078   5.636  19.010  0.00  0.00    +0.000 C 
ATOM     19  O   UNL     1       6.617   4.956  19.883  0.00  0.00    +0.000 OA
ATOM     20  N   UNL     1       4.722   5.575  18.706  0.00  0.00    +0.000 N 
ATOM     21  H   UNL     1       4.424   6.018  17.845  0.00  0.00    +0.000 HD
BRANCH  20  22
ATOM     22  C   UNL     1       3.749   4.892  19.471  0.00  0.00    +0.000 A 
ATOM     23  C   UNL     1       2.711   5.554  20.136  0.00  0.00    +0.000 A 
ATOM     24  C   UNL     1       1.798   4.854  20.927  0.00  0.00    +0.000 A 
ATOM     25  C   UNL     1       1.906   3.476  21.057  0.00  0.00    +0.000 A 
ATOM     26  C   UNL     1       2.911   2.795  20.371  0.00  0.00    +0.000 A 
ATOM     27  C   UNL     1       3.822   3.498  19.570  0.00  0.00    +0.000 A 
ENDBRANCH  20  22
ENDBRANCH   2  18
BRANCH   2  28
ATOM     28  C   UNL     1       7.769   5.357  17.178  0.00  0.00    +0.000 C 
BRANCH  28  29
ATOM     29  C   UNL     1       6.981   4.618  16.135  0.00  0.00    +0.000 A 
ATOM     30  C   UNL     1       5.975   3.697  16.353  0.00  0.00    +0.000 A 
ATOM     31  N   UNL     1       5.552   3.229  15.138  0.00  0.00    +0.000 N 
ATOM     32  C   UNL     1       6.269   3.820  14.124  0.00  0.00    +0.000 A 
ATOM     33  C   UNL     1       6.222   3.611  12.741  0.00  0.00    +0.000 A 
ATOM     34  C   UNL     1       7.069   4.382  11.939  0.00  0.00    +0.000 A 
ATOM     35  C   UNL     1       7.903   5.348  12.497  0.00  0.00    +0.000 A 
ATOM     36  C   UNL     1       7.935   5.545  13.881  0.00  0.00    +0.000 A 
ATOM     37  C   UNL     1       7.125   4.746  14.716  0.00  0.00    +0.000 A 
ATOM     38  H   UNL     1       4.822   2.544  14.999  0.00  0.00    +0.000 HD
ENDBRANCH  28  29
ENDBRANCH   2  28
TORSDOF 7
ENDMDL
MODEL 7
REMARK VINA RESULT:      -8.4      1.593      8.214
REMARK  Name = 
REMARK  8 active torsions:
REMARK  status: ('A' for Active; 'I' for Inactive)
REMARK    1  A    between atoms: C_1  and  C_2
REMARK    2  A    between atoms: C_2  and  C_3
REMARK    3  A    between atoms: C_2  and  N_13
REMARK    4  A    between atoms: C_2  and  C_27
REMARK    5  A    between atoms: C_3  and  C_4
REMARK    6  A    between atoms: C_14  and  O_16
REMARK    7  A    between atoms: O_16  and  C_17
REMARK    8  A    between atoms: N_29  and  C_30
REMARK                            x       y       z     vdW  Elec       q    Type
REMARK                         _______ _______ _______ _____ _____    ______ ____
ROOT
ATOM      1  C   UNL     1       8.244   5.837  19.048  0.00  0.00    +0.000 C 
ATOM      2  C   UNL     1       7.386   6.344  17.869  0.00  0.00    +0.000 C 
ENDROOT
BRANCH   2   3
ATOM      3  N   UNL     1       6.000   5.878  18.081  0.00  0.00    +0.000 N 
ATOM      4  C   UNL     1       5.638   5.301  19.263  0.00  0.00    +0.000 C 
ATOM      5  O   UNL     1       6.411   4.779  20.052  0.00  0.00    +0.000 OA
ATOM      6  H   UNL     1       5.262   6.463  17.710  0.00  0.00    +0.000 HD
BRANCH   4   7
ATOM      7  O   UNL     1       4.301   5.424  19.434  0.00  0.00    +0.000 OA
BRANCH   7   8
ATOM      8  C   UNL     1       3.461   4.536  18.665  0.00  0.00    +0.000 C 
ATOM      9  C   UNL     1       3.552   3.100  19.229  0.00  0.00    +0.000 C 
ATOM     10  C   UNL     1       3.068   3.069  20.691  0.00  0.00    +0.000 C 
ATOM     11  C   UNL     1       1.615   3.567  20.776  0.00  0.00    +0.000 C 
ATOM     12  C   UNL     1       0.717   2.651  19.925  0.00  0.00    +0.000 C 
ATOM     13  C   UNL     1       1.187   2.665  18.459  0.00  0.00    +0.000 C 
ATOM     14  C   UNL     1       1.107   4.104  17.919  0.00  0.00    +0.000 C 
ATOM     15  C   UNL     1       2.004   5.033  18.758  0.00  0.00    +0.000 C 
ATOM     16  C   UNL     1       1.531   5.001  20.225  0.00  0.00    +0.000 C 
ATOM     17  C   UNL     1       2.646   2.177  18.390  0.00  0.00    +0.000 C 
ENDBRANCH   7   8
ENDBRANCH   4   7
ENDBRANCH   2   3
BRANCH   2  18
ATOM     18  C   UNL     1       7.510   7.901  17.911  0.00  0.00    +0.000 C 
ATOM     19  O   UNL     1       6.840   8.588  17.139  0.00  0.00    +0.000 OA
ATOM     20  N   UNL     1       8.566   8.393  18.671  0.00  0.00    +0.000 N 
ATOM     21  H   UNL     1       9.172   7.710  19.110  0.00  0.00    +0.000 HD
BRANCH  20  22
ATOM     22  C   UNL     1       8.888   9.761  18.822  0.00  0.00    +0.000 A 
ATOM     23  C   UNL     1       8.763  10.686  17.780  0.00  0.00    +0.000 A 
ATOM     24  C   UNL     1       9.139  12.019  17.947  0.00  0.00    +0.000 A 
ATOM     25  C   UNL     1       9.641  12.450  19.168  0.00  0.00    +0.000 A 
ATOM     26  C   UNL     1       9.738  11.551  20.230  0.00  0.00    +0.000 A 
ATOM     27  C   UNL     1       9.350  10.215  20.064  0.00  0.00    +0.000 A 
ENDBRANCH  20  22
ENDBRANCH   2  18
BRANCH   2  28
ATOM     28  C   UNL     1       7.976   5.880  16.499  0.00  0.00    +0.000 C 
BRANCH  28  29
ATOM     29  C   UNL     1       7.110   4.925  15.729  0.00  0.00    +0.000 A 
ATOM     30  C   UNL     1       6.187   4.038  16.249  0.00  0.00    +0.000 A 
ATOM     31  N   UNL     1       5.648   3.324  15.213  0.00  0.00    +0.000 N 
ATOM     32  C   UNL     1       6.207   3.719  14.021  0.00  0.00    +0.000 A 
ATOM     33  C   UNL     1       6.007   3.236  12.723  0.00  0.00    +0.000 A 
ATOM     34  C   UNL     1       6.711   3.854  11.685  0.00  0.00    +0.000 A 
ATOM     35  C   UNL     1       7.553   4.936  11.932  0.00  0.00    +0.000 A 
ATOM     36  C   UNL     1       7.739   5.408  13.235  0.00  0.00    +0.000 A 
ATOM     37  C   UNL     1       7.077   4.769  14.306  0.00  0.00    +0.000 A 
ATOM     38  H   UNL     1       4.944   2.605  15.305  0.00  0.00    +0.000 HD
ENDBRANCH  28  29
ENDBRANCH   2  28
TORSDOF 7
ENDMDL
MODEL 8
REMARK VINA RESULT:      -8.3      1.373      4.810
REMARK  Name = 
REMARK  8 active torsions:
REMARK  status: ('A' for Active; 'I' for Inactive)
REMARK    1  A    between atoms: C_1  and  C_2
REMARK    2  A    between atoms: C_2  and  C_3
REMARK    3  A    between atoms: C_2  and  N_13
REMARK    4  A    between atoms: C_2  and  C_27
REMARK    5  A    between atoms: C_3  and  C_4
REMARK    6  A    between atoms: C_14  and  O_16
REMARK    7  A    between atoms: O_16  and  C_17
REMARK    8  A    between atoms: N_29  and  C_30
REMARK                            x       y       z     vdW  Elec       q    Type
REMARK                         _______ _______ _______ _____ _____    ______ ____
ROOT
ATOM      1  C   UNL     1       6.229   7.161  17.106  0.00  0.00    +0.000 C 
ATOM      2  C   UNL     1       7.140   6.300  18.006  0.00  0.00    +0.000 C 
ENDROOT
BRANCH   2   3
ATOM      3  N   UNL     1       8.159   7.187  18.604  0.00  0.00    +0.000 N 
ATOM      4  C   UNL     1       8.342   8.451  18.125  0.00  0.00    +0.000 C 
ATOM      5  O   UNL     1       8.018   8.830  17.009  0.00  0.00    +0.000 OA
ATOM      6  H   UNL     1       8.259   7.151  19.610  0.00  0.00    +0.000 HD
BRANCH   4   7
ATOM      7  O   UNL     1       8.907   9.220  19.084  0.00  0.00    +0.000 OA
BRANCH   7   8
ATOM      8  C   UNL     1       8.578  10.627  19.070  0.00  0.00    +0.000 C 
ATOM      9  C   UNL     1       9.136  11.314  20.336  0.00  0.00    +0.000 C 
ATOM     10  C   UNL     1      10.671  11.181  20.384  0.00  0.00    +0.000 C 
ATOM     11  C   UNL     1      11.294  11.821  19.132  0.00  0.00    +0.000 C 
ATOM     12  C   UNL     1      10.915  13.312  19.086  0.00  0.00    +0.000 C 
ATOM     13  C   UNL     1       9.385  13.466  19.041  0.00  0.00    +0.000 C 
ATOM     14  C   UNL     1       8.844  12.762  17.783  0.00  0.00    +0.000 C 
ATOM     15  C   UNL     1       9.212  11.268  17.817  0.00  0.00    +0.000 C 
ATOM     16  C   UNL     1      10.746  11.126  17.873  0.00  0.00    +0.000 C 
ATOM     17  C   UNL     1       8.772  12.811  20.292  0.00  0.00    +0.000 C 
ENDBRANCH   7   8
ENDBRANCH   4   7
ENDBRANCH   2   3
BRANCH   2  18
ATOM     18  C   UNL     1       6.188   5.673  19.075  0.00  0.00    +0.000 C 
ATOM     19  O   UNL     1       6.662   5.113  20.063  0.00  0.00    +0.000 OA
ATOM     20  N   UNL     1       4.850   5.587  18.700  0.00  0.00    +0.000 N 
ATOM     21  H   UNL     1       4.612   5.912  17.771  0.00  0.00    +0.000 HD
BRANCH  20  22
ATOM     22  C   UNL     1       3.822   5.026  19.491  0.00  0.00    +0.000 A 
ATOM     23  C   UNL     1       3.754   3.659  19.784  0.00  0.00    +0.000 A 
ATOM     24  C   UNL     1       2.696   3.130  20.524  0.00  0.00    +0.000 A 
ATOM     25  C   UNL     1       1.690   3.966  20.991  0.00  0.00    +0.000 A 
ATOM     26  C   UNL     1       1.760   5.336  20.742  0.00  0.00    +0.000 A 
ATOM     27  C   UNL     1       2.829   5.868  20.007  0.00  0.00    +0.000 A 
ENDBRANCH  20  22
ENDBRANCH   2  18
BRANCH   2  28
ATOM     28  C   UNL     1       7.767   5.113  17.207  0.00  0.00    +0.000 C 
BRANCH  28  29
ATOM     29  C   UNL     1       6.875   4.520  16.154  0.00  0.00    +0.000 A 
ATOM     30  C   UNL     1       5.745   3.753  16.359  0.00  0.00    +0.000 A 
ATOM     31  N   UNL     1       5.254   3.378  15.138  0.00  0.00    +0.000 N 
ATOM     32  C   UNL     1       6.047   3.878  14.132  0.00  0.00    +0.000 A 
ATOM     33  C   UNL     1       5.966   3.707  12.745  0.00  0.00    +0.000 A 
ATOM     34  C   UNL     1       6.914   4.362  11.954  0.00  0.00    +0.000 A 
ATOM     35  C   UNL     1       7.883   5.183  12.526  0.00  0.00    +0.000 A 
ATOM     36  C   UNL     1       7.949   5.344  13.914  0.00  0.00    +0.000 A 
ATOM     37  C   UNL     1       7.032   4.655  14.737  0.00  0.00    +0.000 A 
ATOM     38  H   UNL     1       4.431   2.811  14.990  0.00  0.00    +0.000 HD
ENDBRANCH  28  29
ENDBRANCH   2  28
TORSDOF 7
ENDMDL
MODEL 9
REMARK VINA RESULT:      -8.3      1.598      8.194
REMARK  Name = 
REMARK  8 active torsions:
REMARK  status: ('A' for Active; 'I' for Inactive)
REMARK    1  A    between atoms: C_1  and  C_2
REMARK    2  A    between atoms: C_2  and  C_3
REMARK    3  A    between atoms: C_2  and  N_13
REMARK    4  A    between atoms: C_2  and  C_27
REMARK    5  A    between atoms: C_3  and  C_4
REMARK    6  A    between atoms: C_14  and  O_16
REMARK    7  A    between atoms: O_16  and  C_17
REMARK    8  A    between atoms: N_29  and  C_30
REMARK                            x       y       z     vdW  Elec       q    Type
REMARK                         _______ _______ _______ _____ _____    ______ ____
ROOT
ATOM      1  C   UNL     1       8.186   5.919  18.953  0.00  0.00    +0.000 C 
ATOM      2  C   UNL     1       7.361   6.523  17.796  0.00  0.00    +0.000 C 
ENDROOT
BRANCH   2   3
ATOM      3  N   UNL     1       5.951   6.124  17.985  0.00  0.00    +0.000 N 
ATOM      4  C   UNL     1       5.547   5.546  19.153  0.00  0.00    +0.000 C 
ATOM      5  O   UNL     1       6.284   4.971  19.941  0.00  0.00    +0.000 OA
ATOM      6  H   UNL     1       5.248   6.753  17.618  0.00  0.00    +0.000 HD
BRANCH   4   7
ATOM      7  O   UNL     1       4.216   5.733  19.313  0.00  0.00    +0.000 OA
BRANCH   7   8
ATOM      8  C   UNL     1       3.487   4.685  19.988  0.00  0.00    +0.000 C 
ATOM      9  C   UNL     1       1.985   5.043  20.055  0.00  0.00    +0.000 C 
ATOM     10  C   UNL     1       1.408   5.190  18.634  0.00  0.00    +0.000 C 
ATOM     11  C   UNL     1       1.593   3.878  17.852  0.00  0.00    +0.000 C 
ATOM     12  C   UNL     1       0.852   2.745  18.587  0.00  0.00    +0.000 C 
ATOM     13  C   UNL     1       1.413   2.585  20.011  0.00  0.00    +0.000 C 
ATOM     14  C   UNL     1       2.912   2.246  19.927  0.00  0.00    +0.000 C 
ATOM     15  C   UNL     1       3.667   3.372  19.199  0.00  0.00    +0.000 C 
ATOM     16  C   UNL     1       3.090   3.531  17.778  0.00  0.00    +0.000 C 
ATOM     17  C   UNL     1       1.234   3.908  20.778  0.00  0.00    +0.000 C 
ENDBRANCH   7   8
ENDBRANCH   4   7
ENDBRANCH   2   3
BRANCH   2  18
ATOM     18  C   UNL     1       7.569   8.068  17.907  0.00  0.00    +0.000 C 
ATOM     19  O   UNL     1       6.946   8.823  17.161  0.00  0.00    +0.000 OA
ATOM     20  N   UNL     1       8.643   8.467  18.696  0.00  0.00    +0.000 N 
ATOM     21  H   UNL     1       9.206   7.734  19.110  0.00  0.00    +0.000 HD
BRANCH  20  22
ATOM     22  C   UNL     1       9.038   9.808  18.909  0.00  0.00    +0.000 A 
ATOM     23  C   UNL     1       9.211  10.350  20.188  0.00  0.00    +0.000 A 
ATOM     24  C   UNL     1       9.550  11.692  20.364  0.00  0.00    +0.000 A 
ATOM     25  C   UNL     1       9.730  12.513  19.258  0.00  0.00    +0.000 A 
ATOM     26  C   UNL     1       9.598  11.982  17.975  0.00  0.00    +0.000 A 
ATOM     27  C   UNL     1       9.267  10.631  17.800  0.00  0.00    +0.000 A 
ENDBRANCH  20  22
ENDBRANCH   2  18
BRANCH   2  28
ATOM     28  C   UNL     1       7.930   6.088  16.408  0.00  0.00    +0.000 C 
BRANCH  28  29
ATOM     29  C   UNL     1       7.121   5.046  15.692  0.00  0.00    +0.000 A 
ATOM     30  C   UNL     1       6.264   4.124  16.262  0.00  0.00    +0.000 A 
ATOM     31  N   UNL     1       5.762   3.332  15.266  0.00  0.00    +0.000 N 
ATOM     32  C   UNL     1       6.281   3.710  14.050  0.00  0.00    +0.000 A 
ATOM     33  C   UNL     1       6.099   3.159  12.776  0.00  0.00    +0.000 A 
ATOM     34  C   UNL     1       6.750   3.775  11.703  0.00  0.00    +0.000 A 
ATOM     35  C   UNL     1       7.521   4.919  11.892  0.00  0.00    +0.000 A 
ATOM     36  C   UNL     1       7.690   5.459  13.171  0.00  0.00    +0.000 A 
ATOM     37  C   UNL     1       7.083   4.826  14.277  0.00  0.00    +0.000 A 
ATOM     38  H   UNL     1       5.108   2.574  15.398  0.00  0.00    +0.000 HD
ENDBRANCH  28  29
ENDBRANCH   2  28
TORSDOF 7
ENDMDL
