MODEL 1
REMARK VINA RESULT:      -6.9      0.000      0.000
REMARK  Name = 
REMARK  7 active torsions:
REMARK  status: ('A' for Active; 'I' for Inactive)
REMARK    1  A    between atoms: C_1  and  O_2
REMARK    2  A    between atoms: O_2  and  C_3
REMARK    3  A    between atoms: C_3  and  C_4
REMARK    4  A    between atoms: C_4  and  N_5
REMARK    5  A    between atoms: C_9  and  C_10
REMARK    6  A    between atoms: C_10  and  N_11
REMARK    7  A    between atoms: C_12  and  C_14
REMARK                            x       y       z     vdW  Elec       q    Type
REMARK                         _______ _______ _______ _____ _____    ______ ____
ROOT
ATOM      1  N   UNL     1       3.634   5.894  17.355  0.00  0.00    +0.000 N 
ATOM      2  C   UNL     1       2.955   5.955  18.551  0.00  0.00    +0.000 C 
ATOM      3  O   UNL     1       3.303   6.658  19.488  0.00  0.00    +0.000 OA
ATOM      4  H   UNL     1       3.366   5.220  16.654  0.00  0.00    +0.000 HD
ENDROOT
BRANCH   2   5
ATOM      5  C   UNL     1       1.745   5.079  18.633  0.00  0.00    +0.000 C 
ATOM      6  C   UNL     1       1.478   4.050  17.552  0.00  0.00    +0.000 C 
ATOM      7  C   UNL     1       1.839   3.583  18.942  0.00  0.00    +0.000 C 
ATOM      8  C   UNL     1       0.746   2.948  19.779  0.00  0.00    +0.000 C 
ATOM      9  C   UNL     1       1.139   2.930  21.257  0.00  0.00    +0.000 C 
ATOM     10  C   UNL     1       2.513   2.293  21.476  0.00  0.00    +0.000 C 
ATOM     11  C   UNL     1       3.582   2.954  20.604  0.00  0.00    +0.000 C 
ATOM     12  C   UNL     1       3.182   2.908  19.132  0.00  0.00    +0.000 C 
ENDBRANCH   2   5
BRANCH   1  13
ATOM     13  C   UNL     1       4.857   6.641  17.204  0.00  0.00    +0.000 C 
BRANCH  13  18
ATOM     14  N   UNL     1       6.848   5.137  16.645  0.00  0.00    +0.000 N 
ATOM     15  C   UNL     1       7.838   4.534  17.375  0.00  0.00    +0.000 A 
ATOM     16  N   UNL     1       7.676   4.711  18.664  0.00  0.00    +0.000 NA
ATOM     17  C   UNL     1       6.564   5.499  18.775  0.00  0.00    +0.000 A 
ATOM     18  C   UNL     1       6.014   5.777  17.536  0.00  0.00    +0.000 A 
BRANCH  14  19
ATOM     19  C   UNL     1       6.796   5.129  15.197  0.00  0.00    +0.000 C 
BRANCH  19  20
ATOM     20  C   UNL     1       6.121   3.884  14.625  0.00  0.00    +0.000 C 
BRANCH  20  22
ATOM     21  C   UNL     1       5.445   3.399  12.421  0.00  0.00    +0.000 C 
ATOM     22  O   UNL     1       6.544   3.701  13.273  0.00  0.00    +0.000 OA
ENDBRANCH  20  22
ENDBRANCH  19  20
ENDBRANCH  14  19
ENDBRANCH  13  18
ENDBRANCH   1  13
TORSDOF 6
ENDMDL
MODEL 2
REMARK VINA RESULT:      -6.7      2.544      3.672
REMARK  Name = 
REMARK  7 active torsions:
REMARK  status: ('A' for Active; 'I' for Inactive)
REMARK    1  A    between atoms: C_1  and  O_2
REMARK    2  A    between atoms: O_2  and  C_3
REMARK    3  A    between atoms: C_3  and  C_4
REMARK    4  A    between atoms: C_4  and  N_5
REMARK    5  A    between atoms: C_9  and  C_10
REMARK    6  A    between atoms: C_10  and  N_11
REMARK    7  A    between atoms: C_12  and  C_14
REMARK                            x       y       z     vdW  Elec       q    Type
REMARK                         _______ _______ _______ _____ _____    ______ ____
ROOT
ATOM      1  N   UNL     1       4.123   5.630  16.919  0.00  0.00    +0.000 N 
ATOM      2  C   UNL     1       3.027   5.663  17.752  0.00  0.00    +0.000 C 
ATOM      3  O   UNL     1       2.795   6.584  18.523  0.00  0.00    +0.000 OA
ATOM      4  H   UNL     1       4.325   4.801  16.380  0.00  0.00    +0.000 HD
ENDROOT
BRANCH   2   5
ATOM      5  C   UNL     1       2.127   4.473  17.657  0.00  0.00    +0.000 C 
ATOM      6  C   UNL     1       2.662   3.158  17.124  0.00  0.00    +0.000 C 
ATOM      7  C   UNL     1       2.275   3.261  18.580  0.00  0.00    +0.000 C 
ATOM      8  C   UNL     1       1.021   2.538  19.030  0.00  0.00    +0.000 C 
ATOM      9  C   UNL     1       0.541   3.077  20.378  0.00  0.00    +0.000 C 
ATOM     10  C   UNL     1       1.653   3.064  21.428  0.00  0.00    +0.000 C 
ATOM     11  C   UNL     1       2.902   3.793  20.930  0.00  0.00    +0.000 C 
ATOM     12  C   UNL     1       3.384   3.196  19.610  0.00  0.00    +0.000 C 
ENDBRANCH   2   5
BRANCH   1  13
ATOM     13  C   UNL     1       5.092   6.694  16.992  0.00  0.00    +0.000 C 
BRANCH  13  18
ATOM     14  N   UNL     1       7.368   7.004  18.115  0.00  0.00    +0.000 N 
ATOM     15  C   UNL     1       8.112   6.280  19.009  0.00  0.00    +0.000 A 
ATOM     16  N   UNL     1       7.556   5.126  19.289  0.00  0.00    +0.000 NA
ATOM     17  C   UNL     1       6.383   5.120  18.587  0.00  0.00    +0.000 A 
ATOM     18  C   UNL     1       6.235   6.271  17.835  0.00  0.00    +0.000 A 
BRANCH  14  19
ATOM     19  C   UNL     1       7.729   8.330  17.654  0.00  0.00    +0.000 C 
BRANCH  19  20
ATOM     20  C   UNL     1       8.690   9.054  18.594  0.00  0.00    +0.000 C 
BRANCH  20  22
ATOM     21  C   UNL     1       9.326  11.293  18.963  0.00  0.00    +0.000 C 
ATOM     22  O   UNL     1       9.106  10.279  17.988  0.00  0.00    +0.000 OA
ENDBRANCH  20  22
ENDBRANCH  19  20
ENDBRANCH  14  19
ENDBRANCH  13  18
ENDBRANCH   1  13
TORSDOF 6
ENDMDL
MODEL 3
REMARK VINA RESULT:      -6.7      1.956      3.204
REMARK  Name = 
REMARK  7 active torsions:
REMARK  status: ('A' for Active; 'I' for Inactive)
REMARK    1  A    between atoms: C_1  and  O_2
REMARK    2  A    between atoms: O_2  and  C_3
REMARK    3  A    between atoms: C_3  and  C_4
REMARK    4  A    between atoms: C_4  and  N_5
REMARK    5  A    between atoms: C_9  and  C_10
REMARK    6  A    between atoms: C_10  and  N_11
REMARK    7  A    between atoms: C_12  and  C_14
REMARK                            x       y       z     vdW  Elec       q    Type
REMARK                         _______ _______ _______ _____ _____    ______ ____
ROOT
ATOM      1  N   UNL     1       3.380   6.257  17.361  0.00  0.00    +0.000 N 
ATOM      2  C   UNL     1       3.171   5.802  18.642  0.00  0.00    +0.000 C 
ATOM      3  O   UNL     1       3.964   5.977  19.557  0.00  0.00    +0.000 OA
ATOM      4  H   UNL     1       2.745   5.995  16.620  0.00  0.00    +0.000 HD
ENDROOT
BRANCH   2   5
ATOM      5  C   UNL     1       1.892   5.055  18.846  0.00  0.00    +0.000 C 
ATOM      6  C   UNL     1       1.394   4.098  17.780  0.00  0.00    +0.000 C 
ATOM      7  C   UNL     1       1.858   3.547  19.107  0.00  0.00    +0.000 C 
ATOM      8  C   UNL     1       0.806   3.000  20.052  0.00  0.00    +0.000 C 
ATOM      9  C   UNL     1       1.360   2.890  21.473  0.00  0.00    +0.000 C 
ATOM     10  C   UNL     1       2.673   2.106  21.515  0.00  0.00    +0.000 C 
ATOM     11  C   UNL     1       3.701   2.682  20.540  0.00  0.00    +0.000 C 
ATOM     12  C   UNL     1       3.134   2.729  19.123  0.00  0.00    +0.000 C 
ENDBRANCH   2   5
BRANCH   1  13
ATOM     13  C   UNL     1       4.619   6.920  17.043  0.00  0.00    +0.000 C 
BRANCH  13  18
ATOM     14  N   UNL     1       6.910   5.789  17.128  0.00  0.00    +0.000 N 
ATOM     15  C   UNL     1       7.462   4.678  16.546  0.00  0.00    +0.000 A 
ATOM     16  N   UNL     1       6.644   4.114  15.691  0.00  0.00    +0.000 NA
ATOM     17  C   UNL     1       5.499   4.859  15.753  0.00  0.00    +0.000 A 
ATOM     18  C   UNL     1       5.631   5.919  16.633  0.00  0.00    +0.000 A 
BRANCH  14  19
ATOM     19  C   UNL     1       7.580   6.588  18.134  0.00  0.00    +0.000 C 
BRANCH  19  20
ATOM     20  C   UNL     1       7.908   8.002  17.661  0.00  0.00    +0.000 C 
BRANCH  20  22
ATOM     21  C   UNL     1       8.819  10.056  18.371  0.00  0.00    +0.000 C 
ATOM     22  O   UNL     1       8.650   8.677  18.679  0.00  0.00    +0.000 OA
ENDBRANCH  20  22
ENDBRANCH  19  20
ENDBRANCH  14  19
ENDBRANCH  13  18
ENDBRANCH   1  13
TORSDOF 6
ENDMDL
MODEL 4
REMARK VINA RESULT:      -6.5      2.179      3.422
REMARK  Name = 
REMARK  7 active torsions:
REMARK  status: ('A' for Active; 'I' for Inactive)
REMARK    1  A    between atoms: C_1  and  O_2
REMARK    2  A    between atoms: O_2  and  C_3
REMARK    3  A    between atoms: C_3  and  C_4
REMARK    4  A    between atoms: C_4  and  N_5
REMARK    5  A    between atoms: C_9  and  C_10
REMARK    6  A    between atoms: C_10  and  N_11
REMARK    7  A    between atoms: C_12  and  C_14
REMARK                            x       y       z     vdW  Elec       q    Type
REMARK                         _______ _______ _______ _____ _____    ______ ____
ROOT
ATOM      1  N   UNL     1       4.962   4.470  16.140  0.00  0.00    +0.000 N 
ATOM      2  C   UNL     1       4.524   3.987  17.352  0.00  0.00    +0.000 C 
ATOM      3  O   UNL     1       4.531   2.800  17.646  0.00  0.00    +0.000 OA
ATOM      4  H   UNL     1       4.837   5.444  15.907  0.00  0.00    +0.000 HD
ENDROOT
BRANCH   2   5
ATOM      5  C   UNL     1       4.022   5.028  18.301  0.00  0.00    +0.000 C 
ATOM      6  C   UNL     1       3.266   6.233  17.774  0.00  0.00    +0.000 C 
ATOM      7  C   UNL     1       2.533   5.207  18.604  0.00  0.00    +0.000 C 
ATOM      8  C   UNL     1       2.123   5.598  20.010  0.00  0.00    +0.000 C 
ATOM      9  C   UNL     1       1.795   4.358  20.842  0.00  0.00    +0.000 C 
ATOM     10  C   UNL     1       0.774   3.456  20.146  0.00  0.00    +0.000 C 
ATOM     11  C   UNL     1       1.219   3.096  18.728  0.00  0.00    +0.000 C 
ATOM     12  C   UNL     1       1.488   4.357  17.910  0.00  0.00    +0.000 C 
ENDBRANCH   2   5
BRANCH   1  13
ATOM     13  C   UNL     1       5.392   3.539  15.127  0.00  0.00    +0.000 C 
BRANCH  13  18
ATOM     14  N   UNL     1       6.594   3.937  12.906  0.00  0.00    +0.000 N 
ATOM     15  C   UNL     1       7.541   4.823  12.464  0.00  0.00    +0.000 A 
ATOM     16  N   UNL     1       7.984   5.591  13.430  0.00  0.00    +0.000 NA
ATOM     17  C   UNL     1       7.263   5.223  14.532  0.00  0.00    +0.000 A 
ATOM     18  C   UNL     1       6.392   4.187  14.246  0.00  0.00    +0.000 A 
BRANCH  14  19
ATOM     19  C   UNL     1       5.913   2.991  12.045  0.00  0.00    +0.000 C 
BRANCH  19  20
ATOM     20  C   UNL     1       4.411   3.248  11.937  0.00  0.00    +0.000 C 
BRANCH  20  22
ATOM     21  C   UNL     1       3.131   3.650  10.000  0.00  0.00    +0.000 C 
ATOM     22  O   UNL     1       4.165   4.138  10.847  0.00  0.00    +0.000 OA
ENDBRANCH  20  22
ENDBRANCH  19  20
ENDBRANCH  14  19
ENDBRANCH  13  18
ENDBRANCH   1  13
TORSDOF 6
ENDMDL
MODEL 5
REMARK VINA RESULT:      -6.5      3.885      6.263
REMARK  Name = 
REMARK  7 active torsions:
REMARK  status: ('A' for Active; 'I' for Inactive)
REMARK    1  A    between atoms: C_1  and  O_2
REMARK    2  A    between atoms: O_2  and  C_3
REMARK    3  A    between atoms: C_3  and  C_4
REMARK    4  A    between atoms: C_4  and  N_5
REMARK    5  A    between atoms: C_9  and  C_10
REMARK    6  A    between atoms: C_10  and  N_11
REMARK    7  A    between atoms: C_12  and  C_14
REMARK                            x       y       z     vdW  Elec       q    Type
REMARK                         _______ _______ _______ _____ _____    ______ ____
ROOT
ATOM      1  N   UNL     1       2.089   6.971  18.158  0.00  0.00    +0.000 N 
ATOM      2  C   UNL     1       3.202   6.223  17.849  0.00  0.00    +0.000 C 
ATOM      3  O   UNL     1       4.335   6.682  17.817  0.00  0.00    +0.000 OA
ATOM      4  H   UNL     1       1.167   6.570  18.068  0.00  0.00    +0.000 HD
ENDROOT
BRANCH   2   5
ATOM      5  C   UNL     1       2.929   4.785  17.540  0.00  0.00    +0.000 C 
ATOM      6  C   UNL     1       4.060   3.775  17.570  0.00  0.00    +0.000 C 
ATOM      7  C   UNL     1       2.972   3.696  18.614  0.00  0.00    +0.000 C 
ATOM      8  C   UNL     1       1.985   2.549  18.522  0.00  0.00    +0.000 C 
ATOM      9  C   UNL     1       0.736   2.842  19.353  0.00  0.00    +0.000 C 
ATOM     10  C   UNL     1       1.084   3.221  20.793  0.00  0.00    +0.000 C 
ATOM     11  C   UNL     1       2.090   4.373  20.842  0.00  0.00    +0.000 C 
ATOM     12  C   UNL     1       3.345   4.026  20.046  0.00  0.00    +0.000 C 
ENDBRANCH   2   5
BRANCH   1  13
ATOM     13  C   UNL     1       2.237   8.385  18.395  0.00  0.00    +0.000 C 
BRANCH  13  18
ATOM     14  N   UNL     1       0.382   9.696  19.569  0.00  0.00    +0.000 N 
ATOM     15  C   UNL     1      -0.163   9.686  20.826  0.00  0.00    +0.000 A 
ATOM     16  N   UNL     1       0.471   8.865  21.629  0.00  0.00    +0.000 NA
ATOM     17  C   UNL     1       1.434   8.284  20.851  0.00  0.00    +0.000 A 
ATOM     18  C   UNL     1       1.416   8.785  19.562  0.00  0.00    +0.000 A 
BRANCH  14  19
ATOM     19  C   UNL     1      -0.139  10.487  18.472  0.00  0.00    +0.000 C 
BRANCH  19  20
ATOM     20  C   UNL     1      -1.624  10.248  18.208  0.00  0.00    +0.000 C 
BRANCH  20  22
ATOM     21  C   UNL     1      -2.591  10.696  16.107  0.00  0.00    +0.000 C 
ATOM     22  O   UNL     1      -1.794   9.793  16.865  0.00  0.00    +0.000 OA
ENDBRANCH  20  22
ENDBRANCH  19  20
ENDBRANCH  14  19
ENDBRANCH  13  18
ENDBRANCH   1  13
TORSDOF 6
ENDMDL
MODEL 6
REMARK VINA RESULT:      -6.4      1.962      3.348
REMARK  Name = 
REMARK  7 active torsions:
REMARK  status: ('A' for Active; 'I' for Inactive)
REMARK    1  A    between atoms: C_1  and  O_2
REMARK    2  A    between atoms: O_2  and  C_3
REMARK    3  A    between atoms: C_3  and  C_4
REMARK    4  A    between atoms: C_4  and  N_5
REMARK    5  A    between atoms: C_9  and  C_10
REMARK    6  A    between atoms: C_10  and  N_11
REMARK    7  A    between atoms: C_12  and  C_14
REMARK                            x       y       z     vdW  Elec       q    Type
REMARK                         _______ _______ _______ _____ _____    ______ ____
ROOT
ATOM      1  N   UNL     1       4.114   6.009  18.408  0.00  0.00    +0.000 N 
ATOM      2  C   UNL     1       2.974   6.318  19.114  0.00  0.00    +0.000 C 
ATOM      3  O   UNL     1       2.342   7.352  18.954  0.00  0.00    +0.000 OA
ATOM      4  H   UNL     1       4.657   5.193  18.652  0.00  0.00    +0.000 HD
ENDROOT
BRANCH   2   5
ATOM      5  C   UNL     1       2.556   5.289  20.116  0.00  0.00    +0.000 C 
ATOM      6  C   UNL     1       1.089   5.121  20.463  0.00  0.00    +0.000 C 
ATOM      7  C   UNL     1       1.802   4.019  19.717  0.00  0.00    +0.000 C 
ATOM      8  C   UNL     1       2.099   2.735  20.467  0.00  0.00    +0.000 C 
ATOM      9  C   UNL     1       3.169   1.920  19.741  0.00  0.00    +0.000 C 
ATOM     10  C   UNL     1       2.813   1.689  18.271  0.00  0.00    +0.000 C 
ATOM     11  C   UNL     1       2.508   3.006  17.555  0.00  0.00    +0.000 C 
ATOM     12  C   UNL     1       1.401   3.769  18.277  0.00  0.00    +0.000 C 
ENDBRANCH   2   5
BRANCH   1  13
ATOM     13  C   UNL     1       4.643   6.970  17.474  0.00  0.00    +0.000 C 
BRANCH  13  18
ATOM     14  N   UNL     1       6.749   5.709  16.757  0.00  0.00    +0.000 N 
ATOM     15  C   UNL     1       7.169   5.106  15.601  0.00  0.00    +0.000 A 
ATOM     16  N   UNL     1       6.321   5.288  14.617  0.00  0.00    +0.000 NA
ATOM     17  C   UNL     1       5.289   5.997  15.166  0.00  0.00    +0.000 A 
ATOM     18  C   UNL     1       5.525   6.287  16.498  0.00  0.00    +0.000 A 
BRANCH  14  19
ATOM     19  C   UNL     1       7.475   5.642  18.009  0.00  0.00    +0.000 C 
BRANCH  19  20
ATOM     20  C   UNL     1       8.011   6.996  18.469  0.00  0.00    +0.000 C 
BRANCH  20  22
ATOM     21  C   UNL     1       8.089   9.252  17.793  0.00  0.00    +0.000 C 
ATOM     22  O   UNL     1       8.019   7.898  17.361  0.00  0.00    +0.000 OA
ENDBRANCH  20  22
ENDBRANCH  19  20
ENDBRANCH  14  19
ENDBRANCH  13  18
ENDBRANCH   1  13
TORSDOF 6
ENDMDL
MODEL 7
REMARK VINA RESULT:      -6.4      2.235      6.317
REMARK  Name = 
REMARK  7 active torsions:
REMARK  status: ('A' for Active; 'I' for Inactive)
REMARK    1  A    between atoms: C_1  and  O_2
REMARK    2  A    between atoms: O_2  and  C_3
REMARK    3  A    between atoms: C_3  and  C_4
REMARK    4  A    between atoms: C_4  and  N_5
REMARK    5  A    between atoms: C_9  and  C_10
REMARK    6  A    between atoms: C_10  and  N_11
REMARK    7  A    between atoms: C_12  and  C_14
REMARK                            x       y       z     vdW  Elec       q    Type
REMARK                         _______ _______ _______ _____ _____    ______ ____
ROOT
ATOM      1  N   UNL     1       4.841   4.094  18.708  0.00  0.00    +0.000 N 
ATOM      2  C   UNL     1       5.876   4.942  19.029  0.00  0.00    +0.000 C 
ATOM      3  O   UNL     1       6.553   4.825  20.041  0.00  0.00    +0.000 OA
ATOM      4  H   UNL     1       4.247   4.296  17.917  0.00  0.00    +0.000 HD
ENDROOT
BRANCH   2   5
ATOM      5  C   UNL     1       6.117   6.043  18.047  0.00  0.00    +0.000 C 
ATOM      6  C   UNL     1       7.528   6.538  17.793  0.00  0.00    +0.000 C 
ATOM      7  C   UNL     1       6.797   5.800  16.697  0.00  0.00    +0.000 C 
ATOM      8  C   UNL     1       6.329   6.600  15.497  0.00  0.00    +0.000 C 
ATOM      9  C   UNL     1       5.265   5.829  14.715  0.00  0.00    +0.000 C 
ATOM     10  C   UNL     1       5.731   4.418  14.353  0.00  0.00    +0.000 C 
ATOM     11  C   UNL     1       6.205   3.651  15.588  0.00  0.00    +0.000 C 
ATOM     12  C   UNL     1       7.303   4.423  16.315  0.00  0.00    +0.000 C 
ENDBRANCH   2   5
BRANCH   1  13
ATOM     13  C   UNL     1       4.478   3.047  19.629  0.00  0.00    +0.000 C 
BRANCH  13  18
ATOM     14  N   UNL     1       2.033   3.503  20.221  0.00  0.00    +0.000 N 
ATOM     15  C   UNL     1       0.827   3.014  19.793  0.00  0.00    +0.000 A 
ATOM     16  N   UNL     1       0.972   2.030  18.938  0.00  0.00    +0.000 NA
ATOM     17  C   UNL     1       2.323   1.907  18.767  0.00  0.00    +0.000 A 
ATOM     18  C   UNL     1       3.018   2.803  19.559  0.00  0.00    +0.000 A 
BRANCH  14  19
ATOM     19  C   UNL     1       2.170   4.613  21.143  0.00  0.00    +0.000 C 
BRANCH  19  20
ATOM     20  C   UNL     1       1.771   5.955  20.535  0.00  0.00    +0.000 C 
BRANCH  20  22
ATOM     21  C   UNL     1       2.425   6.664  18.385  0.00  0.00    +0.000 C 
ATOM     22  O   UNL     1       2.844   6.441  19.726  0.00  0.00    +0.000 OA
ENDBRANCH  20  22
ENDBRANCH  19  20
ENDBRANCH  14  19
ENDBRANCH  13  18
ENDBRANCH   1  13
TORSDOF 6
ENDMDL
MODEL 8
REMARK VINA RESULT:      -6.4      1.107      1.150
REMARK  Name = 
REMARK  7 active torsions:
REMARK  status: ('A' for Active; 'I' for Inactive)
REMARK    1  A    between atoms: C_1  and  O_2
REMARK    2  A    between atoms: O_2  and  C_3
REMARK    3  A    between atoms: C_3  and  C_4
REMARK    4  A    between atoms: C_4  and  N_5
REMARK    5  A    between atoms: C_9  and  C_10
REMARK    6  A    between atoms: C_10  and  N_11
REMARK    7  A    between atoms: C_12  and  C_14
REMARK                            x       y       z     vdW  Elec       q    Type
REMARK                         _______ _______ _______ _____ _____    ______ ____
ROOT
ATOM      1  N   UNL     1       3.791   6.068  17.921  0.00  0.00    +0.000 N 
ATOM      2  C   UNL     1       3.138   4.899  17.601  0.00  0.00    +0.000 C 
ATOM      3  O   UNL     1       3.526   4.126  16.737  0.00  0.00    +0.000 OA
ATOM      4  H   UNL     1       3.373   6.722  18.567  0.00  0.00    +0.000 HD
ENDROOT
BRANCH   2   5
ATOM      5  C   UNL     1       1.894   4.636  18.388  0.00  0.00    +0.000 C 
ATOM      6  C   UNL     1       0.887   3.614  17.896  0.00  0.00    +0.000 C 
ATOM      7  C   UNL     1       1.673   3.330  19.154  0.00  0.00    +0.000 C 
ATOM      8  C   UNL     1       0.932   3.384  20.476  0.00  0.00    +0.000 C 
ATOM      9  C   UNL     1       1.915   3.503  21.642  0.00  0.00    +0.000 C 
ATOM     10  C   UNL     1       2.990   2.415  21.597  0.00  0.00    +0.000 C 
ATOM     11  C   UNL     1       3.703   2.387  20.244  0.00  0.00    +0.000 C 
ATOM     12  C   UNL     1       2.698   2.215  19.108  0.00  0.00    +0.000 C 
ENDBRANCH   2   5
BRANCH   1  13
ATOM     13  C   UNL     1       4.957   6.450  17.166  0.00  0.00    +0.000 C 
BRANCH  13  18
ATOM     14  N   UNL     1       6.872   4.768  16.969  0.00  0.00    +0.000 N 
ATOM     15  C   UNL     1       7.932   4.411  17.761  0.00  0.00    +0.000 A 
ATOM     16  N   UNL     1       7.906   5.025  18.919  0.00  0.00    +0.000 NA
ATOM     17  C   UNL     1       6.816   5.847  18.860  0.00  0.00    +0.000 A 
ATOM     18  C   UNL     1       6.140   5.707  17.661  0.00  0.00    +0.000 A 
BRANCH  14  19
ATOM     19  C   UNL     1       6.668   4.267  15.624  0.00  0.00    +0.000 C 
BRANCH  19  20
ATOM     20  C   UNL     1       7.310   5.143  14.551  0.00  0.00    +0.000 C 
BRANCH  20  22
ATOM     21  C   UNL     1       5.910   3.703  13.318  0.00  0.00    +0.000 C 
ATOM     22  O   UNL     1       7.014   4.600  13.263  0.00  0.00    +0.000 OA
ENDBRANCH  20  22
ENDBRANCH  19  20
ENDBRANCH  14  19
ENDBRANCH  13  18
ENDBRANCH   1  13
TORSDOF 6
ENDMDL
MODEL 9
REMARK VINA RESULT:      -6.3      4.525      7.158
REMARK  Name = 
REMARK  7 active torsions:
REMARK  status: ('A' for Active; 'I' for Inactive)
REMARK    1  A    between atoms: C_1  and  O_2
REMARK    2  A    between atoms: O_2  and  C_3
REMARK    3  A    between atoms: C_3  and  C_4
REMARK    4  A    between atoms: C_4  and  N_5
REMARK    5  A    between atoms: C_9  and  C_10
REMARK    6  A    between atoms: C_10  and  N_11
REMARK    7  A    between atoms: C_12  and  C_14
REMARK                            x       y       z     vdW  Elec       q    Type
REMARK                         _______ _______ _______ _____ _____    ______ ____
ROOT
ATOM      1  N   UNL     1       1.693   6.838  20.618  0.00  0.00    +0.000 N 
ATOM      2  C   UNL     1       2.602   5.945  20.099  0.00  0.00    +0.000 C 
ATOM      3  O   UNL     1       3.502   6.266  19.335  0.00  0.00    +0.000 OA
ATOM      4  H   UNL     1       0.907   6.505  21.158  0.00  0.00    +0.000 HD
ENDROOT
BRANCH   2   5
ATOM      5  C   UNL     1       2.408   4.526  20.529  0.00  0.00    +0.000 C 
ATOM      6  C   UNL     1       1.010   3.988  20.765  0.00  0.00    +0.000 C 
ATOM      7  C   UNL     1       1.816   3.463  19.601  0.00  0.00    +0.000 C 
ATOM      8  C   UNL     1       2.347   2.046  19.691  0.00  0.00    +0.000 C 
ATOM      9  C   UNL     1       3.465   1.822  18.673  0.00  0.00    +0.000 C 
ATOM     10  C   UNL     1       3.039   2.216  17.258  0.00  0.00    +0.000 C 
ATOM     11  C   UNL     1       2.499   3.647  17.214  0.00  0.00    +0.000 C 
ATOM     12  C   UNL     1       1.350   3.821  18.203  0.00  0.00    +0.000 C 
ENDBRANCH   2   5
BRANCH   1  13
ATOM     13  C   UNL     1       1.746   8.216  20.202  0.00  0.00    +0.000 C 
BRANCH  13  18
ATOM     14  N   UNL     1      -0.029   9.908  20.927  0.00  0.00    +0.000 N 
ATOM     15  C   UNL     1      -0.449  10.414  22.129  0.00  0.00    +0.000 A 
ATOM     16  N   UNL     1       0.286   9.984  23.126  0.00  0.00    +0.000 NA
ATOM     17  C   UNL     1       1.188   9.129  22.557  0.00  0.00    +0.000 A 
ATOM     18  C   UNL     1       1.029   9.063  21.185  0.00  0.00    +0.000 A 
BRANCH  14  19
ATOM     19  C   UNL     1      -0.679  10.190  19.663  0.00  0.00    +0.000 C 
BRANCH  19  20
ATOM     20  C   UNL     1      -0.010  11.317  18.880  0.00  0.00    +0.000 C 
BRANCH  20  22
ATOM     21  C   UNL     1      -0.289  13.614  18.437  0.00  0.00    +0.000 C 
ATOM     22  O   UNL     1      -0.947  12.379  18.692  0.00  0.00    +0.000 OA
ENDBRANCH  20  22
ENDBRANCH  19  20
ENDBRANCH  14  19
ENDBRANCH  13  18
ENDBRANCH   1  13
TORSDOF 6
ENDMDL
