MODEL 1
REMARK VINA RESULT:      -6.5      0.000      0.000
REMARK  Name = 
REMARK  9 active torsions:
REMARK  status: ('A' for Active; 'I' for Inactive)
REMARK    1  A    between atoms: C_1  and  O_2
REMARK    2  A    between atoms: O_2  and  C_3
REMARK    3  A    between atoms: C_3  and  C_5
REMARK    4  A    between atoms: C_5  and  C_6
REMARK    5  A    between atoms: C_6  and  N_7
REMARK    6  A    between atoms: N_7  and  S_8
REMARK    7  A    between atoms: S_8  and  N_11
REMARK    8  A    between atoms: N_11  and  C_12
REMARK    9  A    between atoms: C_12  and  C_13
REMARK                            x       y       z     vdW  Elec       q    Type
REMARK                         _______ _______ _______ _____ _____    ______ ____
ROOT
ATOM      1  S   UNL     1       7.584   4.969  18.102  0.00  0.00    +0.000 S 
ATOM      2  O   UNL     1       8.692   4.048  18.034  0.00  0.00    +0.000 OA
ATOM      3  O   UNL     1       7.528   6.076  19.019  0.00  0.00    +0.000 OA
ENDROOT
BRANCH   1   4
ATOM      4  N   UNL     1       7.381   5.588  16.537  0.00  0.00    +0.000 NA
ATOM      5  H   UNL     1       8.085   6.307  16.380  0.00  0.00    +0.000 HD
BRANCH   4   6
ATOM      6  C   UNL     1       6.010   6.163  16.373  0.00  0.00    +0.000 C 
BRANCH   6   7
ATOM      7  C   UNL     1       5.295   5.595  15.155  0.00  0.00    +0.000 C 
BRANCH   7   8
ATOM      8  C   UNL     1       6.010   4.333  14.735  0.00  0.00    +0.000 C 
ATOM      9  O   UNL     1       5.953   3.266  15.332  0.00  0.00    +0.000 OA
BRANCH   8  11
ATOM     10  C   UNL     1       6.380   3.603  12.552  0.00  0.00    +0.000 C 
ATOM     11  O   UNL     1       6.711   4.537  13.585  0.00  0.00    +0.000 OA
ENDBRANCH   8  11
ENDBRANCH   7   8
ENDBRANCH   6   7
ENDBRANCH   4   6
ENDBRANCH   1   4
BRANCH   1  12
ATOM     12  N   UNL     1       6.176   4.118  18.209  0.00  0.00    +0.000 NA
ATOM     13  H   UNL     1       6.154   3.194  17.791  0.00  0.00    +0.000 HD
BRANCH  12  14
ATOM     14  C   UNL     1       5.245   4.496  19.260  0.00  0.00    +0.000 C 
BRANCH  14  15
ATOM     15  C   UNL     1       3.862   3.922  19.068  0.00  0.00    +0.000 A 
ATOM     16  C   UNL     1       3.579   3.150  17.932  0.00  0.00    +0.000 A 
ATOM     17  C   UNL     1       2.322   2.561  17.774  0.00  0.00    +0.000 A 
ATOM     18  C   UNL     1       1.355   2.743  18.749  0.00  0.00    +0.000 A 
ATOM     19  F   UNL     1       0.154   2.166  18.599  0.00  0.00    +0.000 F 
ATOM     20  C   UNL     1       1.610   3.505  19.881  0.00  0.00    +0.000 A 
ATOM     21  C   UNL     1       2.865   4.096  20.042  0.00  0.00    +0.000 A 
ENDBRANCH  14  15
ENDBRANCH  12  14
ENDBRANCH   1  12
TORSDOF 8
ENDMDL
MODEL 2
REMARK VINA RESULT:      -6.5      1.235      1.347
REMARK  Name = 
REMARK  9 active torsions:
REMARK  status: ('A' for Active; 'I' for Inactive)
REMARK    1  A    between atoms: C_1  and  O_2
REMARK    2  A    between atoms: O_2  and  C_3
REMARK    3  A    between atoms: C_3  and  C_5
REMARK    4  A    between atoms: C_5  and  C_6
REMARK    5  A    between atoms: C_6  and  N_7
REMARK    6  A    between atoms: N_7  and  S_8
REMARK    7  A    between atoms: S_8  and  N_11
REMARK    8  A    between atoms: N_11  and  C_12
REMARK    9  A    between atoms: C_12  and  C_13
REMARK                            x       y       z     vdW  Elec       q    Type
REMARK                         _______ _______ _______ _____ _____    ______ ____
ROOT
ATOM      1  S   UNL     1       7.516   4.778  17.707  0.00  0.00    +0.000 S 
ATOM      2  O   UNL     1       8.714   4.072  18.088  0.00  0.00    +0.000 OA
ATOM      3  O   UNL     1       7.253   6.145  18.067  0.00  0.00    +0.000 OA
ENDROOT
BRANCH   1   4
ATOM      4  N   UNL     1       7.409   4.661  16.020  0.00  0.00    +0.000 NA
ATOM      5  H   UNL     1       7.350   5.603  15.634  0.00  0.00    +0.000 HD
BRANCH   4   6
ATOM      6  C   UNL     1       6.208   3.864  15.623  0.00  0.00    +0.000 C 
BRANCH   6   7
ATOM      7  C   UNL     1       5.604   4.354  14.315  0.00  0.00    +0.000 C 
BRANCH   7   8
ATOM      8  C   UNL     1       6.713   4.466  13.297  0.00  0.00    +0.000 C 
ATOM      9  O   UNL     1       7.585   5.325  13.305  0.00  0.00    +0.000 OA
BRANCH   8  11
ATOM     10  C   UNL     1       5.282   3.186  11.976  0.00  0.00    +0.000 C 
ATOM     11  O   UNL     1       6.626   3.464  12.378  0.00  0.00    +0.000 OA
ENDBRANCH   8  11
ENDBRANCH   7   8
ENDBRANCH   6   7
ENDBRANCH   4   6
ENDBRANCH   1   4
BRANCH   1  12
ATOM     12  N   UNL     1       6.200   3.864  18.096  0.00  0.00    +0.000 NA
ATOM     13  H   UNL     1       6.280   2.859  17.991  0.00  0.00    +0.000 HD
BRANCH  12  14
ATOM     14  C   UNL     1       5.214   4.457  18.986  0.00  0.00    +0.000 C 
BRANCH  14  15
ATOM     15  C   UNL     1       3.839   3.850  18.841  0.00  0.00    +0.000 A 
ATOM     16  C   UNL     1       3.695   2.458  18.752  0.00  0.00    +0.000 A 
ATOM     17  C   UNL     1       2.425   1.882  18.681  0.00  0.00    +0.000 A 
ATOM     18  C   UNL     1       1.304   2.695  18.702  0.00  0.00    +0.000 A 
ATOM     19  F   UNL     1       0.086   2.137  18.647  0.00  0.00    +0.000 F 
ATOM     20  C   UNL     1       1.420   4.076  18.788  0.00  0.00    +0.000 A 
ATOM     21  C   UNL     1       2.688   4.656  18.858  0.00  0.00    +0.000 A 
ENDBRANCH  14  15
ENDBRANCH  12  14
ENDBRANCH   1  12
TORSDOF 8
ENDMDL
MODEL 3
REMARK VINA RESULT:      -6.5      1.788      2.315
REMARK  Name = 
REMARK  9 active torsions:
REMARK  status: ('A' for Active; 'I' for Inactive)
REMARK    1  A    between atoms: C_1  and  O_2
REMARK    2  A    between atoms: O_2  and  C_3
REMARK    3  A    between atoms: C_3  and  C_5
REMARK    4  A    between atoms: C_5  and  C_6
REMARK    5  A    between atoms: C_6  and  N_7
REMARK    6  A    between atoms: N_7  and  S_8
REMARK    7  A    between atoms: S_8  and  N_11
REMARK    8  A    between atoms: N_11  and  C_12
REMARK    9  A    between atoms: C_12  and  C_13
REMARK                            x       y       z     vdW  Elec       q    Type
REMARK                         _______ _______ _______ _____ _____    ______ ____
ROOT
ATOM      1  S   UNL     1       7.058   4.773  16.248  0.00  0.00    +0.000 S 
ATOM      2  O   UNL     1       8.030   4.156  17.116  0.00  0.00    +0.000 OA
ATOM      3  O   UNL     1       7.375   5.836  15.332  0.00  0.00    +0.000 OA
ENDROOT
BRANCH   1   4
ATOM      4  N   UNL     1       6.350   3.519  15.355  0.00  0.00    +0.000 NA
ATOM      5  H   UNL     1       7.070   2.834  15.132  0.00  0.00    +0.000 HD
BRANCH   4   6
ATOM      6  C   UNL     1       5.735   4.050  14.099  0.00  0.00    +0.000 C 
BRANCH   6   7
ATOM      7  C   UNL     1       6.478   3.581  12.857  0.00  0.00    +0.000 C 
BRANCH   7   8
ATOM      8  C   UNL     1       5.496   2.857  11.967  0.00  0.00    +0.000 C 
ATOM      9  O   UNL     1       5.703   1.775  11.433  0.00  0.00    +0.000 OA
BRANCH   8  11
ATOM     10  C   UNL     1       3.550   3.178  10.724  0.00  0.00    +0.000 C 
ATOM     11  O   UNL     1       4.336   3.563  11.856  0.00  0.00    +0.000 OA
ENDBRANCH   8  11
ENDBRANCH   7   8
ENDBRANCH   6   7
ENDBRANCH   4   6
ENDBRANCH   1   4
BRANCH   1  12
ATOM     12  N   UNL     1       5.739   5.213  17.135  0.00  0.00    +0.000 NA
ATOM     13  H   UNL     1       5.023   5.761  16.670  0.00  0.00    +0.000 HD
BRANCH  12  14
ATOM     14  C   UNL     1       5.441   4.430  18.323  0.00  0.00    +0.000 C 
BRANCH  14  15
ATOM     15  C   UNL     1       4.032   3.888  18.343  0.00  0.00    +0.000 A 
ATOM     16  C   UNL     1       3.763   2.621  17.805  0.00  0.00    +0.000 A 
ATOM     17  C   UNL     1       2.477   2.083  17.874  0.00  0.00    +0.000 A 
ATOM     18  C   UNL     1       1.464   2.808  18.480  0.00  0.00    +0.000 A 
ATOM     19  F   UNL     1       0.233   2.282  18.555  0.00  0.00    +0.000 F 
ATOM     20  C   UNL     1       1.704   4.065  19.018  0.00  0.00    +0.000 A 
ATOM     21  C   UNL     1       2.989   4.607  18.951  0.00  0.00    +0.000 A 
ENDBRANCH  14  15
ENDBRANCH  12  14
ENDBRANCH   1  12
TORSDOF 8
ENDMDL
MODEL 4
REMARK VINA RESULT:      -6.4      1.435      1.863
REMARK  Name = 
REMARK  9 active torsions:
REMARK  status: ('A' for Active; 'I' for Inactive)
REMARK    1  A    between atoms: C_1  and  O_2
REMARK    2  A    between atoms: O_2  and  C_3
REMARK    3  A    between atoms: C_3  and  C_5
REMARK    4  A    between atoms: C_5  and  C_6
REMARK    5  A    between atoms: C_6  and  N_7
REMARK    6  A    between atoms: N_7  and  S_8
REMARK    7  A    between atoms: S_8  and  N_11
REMARK    8  A    between atoms: N_11  and  C_12
REMARK    9  A    between atoms: C_12  and  C_13
REMARK                            x       y       z     vdW  Elec       q    Type
REMARK                         _______ _______ _______ _____ _____    ______ ____
ROOT
ATOM      1  S   UNL     1       7.240   5.710  17.998  0.00  0.00    +0.000 S 
ATOM      2  O   UNL     1       7.876   4.431  18.196  0.00  0.00    +0.000 OA
ATOM      3  O   UNL     1       7.872   6.966  18.300  0.00  0.00    +0.000 OA
ENDROOT
BRANCH   1   4
ATOM      4  N   UNL     1       6.755   5.756  16.375  0.00  0.00    +0.000 NA
ATOM      5  H   UNL     1       5.792   6.085  16.335  0.00  0.00    +0.000 HD
BRANCH   4   6
ATOM      6  C   UNL     1       6.865   4.400  15.754  0.00  0.00    +0.000 C 
BRANCH   6   7
ATOM      7  C   UNL     1       6.235   4.353  14.370  0.00  0.00    +0.000 C 
BRANCH   7   8
ATOM      8  C   UNL     1       7.254   4.848  13.372  0.00  0.00    +0.000 C 
ATOM      9  O   UNL     1       8.135   5.662  13.618  0.00  0.00    +0.000 OA
BRANCH   8  11
ATOM     10  C   UNL     1       6.091   3.209  12.191  0.00  0.00    +0.000 C 
ATOM     11  O   UNL     1       7.074   4.248  12.162  0.00  0.00    +0.000 OA
ENDBRANCH   8  11
ENDBRANCH   7   8
ENDBRANCH   6   7
ENDBRANCH   4   6
ENDBRANCH   1   4
BRANCH   1  12
ATOM     12  N   UNL     1       5.746   5.687  18.696  0.00  0.00    +0.000 NA
ATOM     13  H   UNL     1       5.688   5.897  19.686  0.00  0.00    +0.000 HD
BRANCH  12  14
ATOM     14  C   UNL     1       4.596   5.846  17.819  0.00  0.00    +0.000 C 
BRANCH  14  15
ATOM     15  C   UNL     1       3.521   4.812  18.052  0.00  0.00    +0.000 A 
ATOM     16  C   UNL     1       2.476   5.081  18.948  0.00  0.00    +0.000 A 
ATOM     17  C   UNL     1       1.443   4.159  19.124  0.00  0.00    +0.000 A 
ATOM     18  C   UNL     1       1.453   2.975  18.406  0.00  0.00    +0.000 A 
ATOM     19  F   UNL     1       0.452   2.098  18.569  0.00  0.00    +0.000 F 
ATOM     20  C   UNL     1       2.477   2.685  17.514  0.00  0.00    +0.000 A 
ATOM     21  C   UNL     1       3.513   3.604  17.335  0.00  0.00    +0.000 A 
ENDBRANCH  14  15
ENDBRANCH  12  14
ENDBRANCH   1  12
TORSDOF 8
ENDMDL
MODEL 5
REMARK VINA RESULT:      -6.4      1.664      2.063
REMARK  Name = 
REMARK  9 active torsions:
REMARK  status: ('A' for Active; 'I' for Inactive)
REMARK    1  A    between atoms: C_1  and  O_2
REMARK    2  A    between atoms: O_2  and  C_3
REMARK    3  A    between atoms: C_3  and  C_5
REMARK    4  A    between atoms: C_5  and  C_6
REMARK    5  A    between atoms: C_6  and  N_7
REMARK    6  A    between atoms: N_7  and  S_8
REMARK    7  A    between atoms: S_8  and  N_11
REMARK    8  A    between atoms: N_11  and  C_12
REMARK    9  A    between atoms: C_12  and  C_13
REMARK                            x       y       z     vdW  Elec       q    Type
REMARK                         _______ _______ _______ _____ _____    ______ ____
ROOT
ATOM      1  S   UNL     1       6.676   4.592  16.947  0.00  0.00    +0.000 S 
ATOM      2  O   UNL     1       8.096   4.401  16.788  0.00  0.00    +0.000 OA
ATOM      3  O   UNL     1       6.020   5.858  16.758  0.00  0.00    +0.000 OA
ENDROOT
BRANCH   1   4
ATOM      4  N   UNL     1       5.925   3.467  15.925  0.00  0.00    +0.000 NA
ATOM      5  H   UNL     1       6.602   2.744  15.688  0.00  0.00    +0.000 HD
BRANCH   4   6
ATOM      6  C   UNL     1       5.425   4.136  14.684  0.00  0.00    +0.000 C 
BRANCH   6   7
ATOM      7  C   UNL     1       6.442   4.073  13.554  0.00  0.00    +0.000 C 
BRANCH   7   8
ATOM      8  C   UNL     1       5.812   3.340  12.394  0.00  0.00    +0.000 C 
ATOM      9  O   UNL     1       4.676   3.532  11.979  0.00  0.00    +0.000 OA
BRANCH   8  11
ATOM     10  C   UNL     1       6.044   1.365  11.177  0.00  0.00    +0.000 C 
ATOM     11  O   UNL     1       6.689   2.448  11.854  0.00  0.00    +0.000 OA
ENDBRANCH   8  11
ENDBRANCH   7   8
ENDBRANCH   6   7
ENDBRANCH   4   6
ENDBRANCH   1   4
BRANCH   1  12
ATOM     12  N   UNL     1       6.200   3.959  18.394  0.00  0.00    +0.000 NA
ATOM     13  H   UNL     1       6.861   3.368  18.886  0.00  0.00    +0.000 HD
BRANCH  12  14
ATOM     14  C   UNL     1       5.117   4.630  19.094  0.00  0.00    +0.000 C 
BRANCH  14  15
ATOM     15  C   UNL     1       3.780   3.951  18.916  0.00  0.00    +0.000 A 
ATOM     16  C   UNL     1       3.465   2.820  19.682  0.00  0.00    +0.000 A 
ATOM     17  C   UNL     1       2.208   2.221  19.571  0.00  0.00    +0.000 A 
ATOM     18  C   UNL     1       1.272   2.753  18.701  0.00  0.00    +0.000 A 
ATOM     19  F   UNL     1       0.062   2.182  18.607  0.00  0.00    +0.000 F 
ATOM     20  C   UNL     1       1.561   3.871  17.930  0.00  0.00    +0.000 A 
ATOM     21  C   UNL     1       2.817   4.472  18.037  0.00  0.00    +0.000 A 
ENDBRANCH  14  15
ENDBRANCH  12  14
ENDBRANCH   1  12
TORSDOF 8
ENDMDL
MODEL 6
REMARK VINA RESULT:      -6.3      2.216      2.982
REMARK  Name = 
REMARK  9 active torsions:
REMARK  status: ('A' for Active; 'I' for Inactive)
REMARK    1  A    between atoms: C_1  and  O_2
REMARK    2  A    between atoms: O_2  and  C_3
REMARK    3  A    between atoms: C_3  and  C_5
REMARK    4  A    between atoms: C_5  and  C_6
REMARK    5  A    between atoms: C_6  and  N_7
REMARK    6  A    between atoms: N_7  and  S_8
REMARK    7  A    between atoms: S_8  and  N_11
REMARK    8  A    between atoms: N_11  and  C_12
REMARK    9  A    between atoms: C_12  and  C_13
REMARK                            x       y       z     vdW  Elec       q    Type
REMARK                         _______ _______ _______ _____ _____    ______ ____
ROOT
ATOM      1  S   UNL     1       7.214   4.952  15.328  0.00  0.00    +0.000 S 
ATOM      2  O   UNL     1       7.800   4.536  16.578  0.00  0.00    +0.000 OA
ATOM      3  O   UNL     1       7.957   5.603  14.282  0.00  0.00    +0.000 OA
ENDROOT
BRANCH   1   4
ATOM      4  N   UNL     1       6.487   3.575  14.659  0.00  0.00    +0.000 NA
ATOM      5  H   UNL     1       7.220   2.959  14.310  0.00  0.00    +0.000 HD
BRANCH   4   6
ATOM      6  C   UNL     1       5.559   3.956  13.550  0.00  0.00    +0.000 C 
BRANCH   6   7
ATOM      7  C   UNL     1       6.104   3.555  12.187  0.00  0.00    +0.000 C 
BRANCH   7   8
ATOM      8  C   UNL     1       5.083   2.669  11.514  0.00  0.00    +0.000 C 
ATOM      9  O   UNL     1       3.985   3.041  11.122  0.00  0.00    +0.000 OA
BRANCH   8  11
ATOM     10  C   UNL     1       6.932   1.354  10.979  0.00  0.00    +0.000 C 
ATOM     11  O   UNL     1       5.560   1.400  11.382  0.00  0.00    +0.000 OA
ENDBRANCH   8  11
ENDBRANCH   7   8
ENDBRANCH   6   7
ENDBRANCH   4   6
ENDBRANCH   1   4
BRANCH   1  12
ATOM     12  N   UNL     1       5.848   5.824  15.630  0.00  0.00    +0.000 NA
ATOM     13  H   UNL     1       5.194   5.951  14.866  0.00  0.00    +0.000 HD
BRANCH  12  14
ATOM     14  C   UNL     1       5.425   5.944  17.016  0.00  0.00    +0.000 C 
BRANCH  14  15
ATOM     15  C   UNL     1       4.132   5.222  17.311  0.00  0.00    +0.000 A 
ATOM     16  C   UNL     1       4.012   3.857  17.014  0.00  0.00    +0.000 A 
ATOM     17  C   UNL     1       2.844   3.164  17.339  0.00  0.00    +0.000 A 
ATOM     18  C   UNL     1       1.803   3.833  17.960  0.00  0.00    +0.000 A 
ATOM     19  F   UNL     1       0.688   3.161  18.281  0.00  0.00    +0.000 F 
ATOM     20  C   UNL     1       1.897   5.185  18.262  0.00  0.00    +0.000 A 
ATOM     21  C   UNL     1       3.063   5.882  17.938  0.00  0.00    +0.000 A 
ENDBRANCH  14  15
ENDBRANCH  12  14
ENDBRANCH   1  12
TORSDOF 8
ENDMDL
MODEL 7
REMARK VINA RESULT:      -6.3      2.446      3.922
REMARK  Name = 
REMARK  9 active torsions:
REMARK  status: ('A' for Active; 'I' for Inactive)
REMARK    1  A    between atoms: C_1  and  O_2
REMARK    2  A    between atoms: O_2  and  C_3
REMARK    3  A    between atoms: C_3  and  C_5
REMARK    4  A    between atoms: C_5  and  C_6
REMARK    5  A    between atoms: C_6  and  N_7
REMARK    6  A    between atoms: N_7  and  S_8
REMARK    7  A    between atoms: S_8  and  N_11
REMARK    8  A    between atoms: N_11  and  C_12
REMARK    9  A    between atoms: C_12  and  C_13
REMARK                            x       y       z     vdW  Elec       q    Type
REMARK                         _______ _______ _______ _____ _____    ______ ____
ROOT
ATOM      1  S   UNL     1       5.798   4.354  15.935  0.00  0.00    +0.000 S 
ATOM      2  O   UNL     1       5.218   5.659  15.737  0.00  0.00    +0.000 OA
ATOM      3  O   UNL     1       6.220   3.501  14.856  0.00  0.00    +0.000 OA
ENDROOT
BRANCH   1   4
ATOM      4  N   UNL     1       7.126   4.572  16.965  0.00  0.00    +0.000 NA
ATOM      5  H   UNL     1       7.540   3.661  17.156  0.00  0.00    +0.000 HD
BRANCH   4   6
ATOM      6  C   UNL     1       6.699   5.224  18.242  0.00  0.00    +0.000 C 
BRANCH   6   7
ATOM      7  C   UNL     1       7.810   6.067  18.852  0.00  0.00    +0.000 C 
BRANCH   7   8
ATOM      8  C   UNL     1       7.931   7.339  18.048  0.00  0.00    +0.000 C 
ATOM      9  O   UNL     1       7.477   7.501  16.923  0.00  0.00    +0.000 OA
BRANCH   8  11
ATOM     10  C   UNL     1       8.482   9.600  18.182  0.00  0.00    +0.000 C 
ATOM     11  O   UNL     1       8.596   8.294  18.756  0.00  0.00    +0.000 OA
ENDBRANCH   8  11
ENDBRANCH   7   8
ENDBRANCH   6   7
ENDBRANCH   4   6
ENDBRANCH   1   4
BRANCH   1  12
ATOM     12  N   UNL     1       4.841   3.482  16.957  0.00  0.00    +0.000 NA
ATOM     13  H   UNL     1       5.297   2.968  17.702  0.00  0.00    +0.000 HD
BRANCH  12  14
ATOM     14  C   UNL     1       3.440   3.861  17.046  0.00  0.00    +0.000 C 
BRANCH  14  15
ATOM     15  C   UNL     1       2.792   3.451  18.347  0.00  0.00    +0.000 A 
ATOM     16  C   UNL     1       3.570   3.335  19.507  0.00  0.00    +0.000 A 
ATOM     17  C   UNL     1       2.972   3.018  20.729  0.00  0.00    +0.000 A 
ATOM     18  C   UNL     1       1.603   2.821  20.789  0.00  0.00    +0.000 A 
ATOM     19  F   UNL     1       1.032   2.529  21.966  0.00  0.00    +0.000 F 
ATOM     20  C   UNL     1       0.811   2.929  19.653  0.00  0.00    +0.000 A 
ATOM     21  C   UNL     1       1.405   3.245  18.430  0.00  0.00    +0.000 A 
ENDBRANCH  14  15
ENDBRANCH  12  14
ENDBRANCH   1  12
TORSDOF 8
ENDMDL
MODEL 8
REMARK VINA RESULT:      -6.2      1.562      1.705
REMARK  Name = 
REMARK  9 active torsions:
REMARK  status: ('A' for Active; 'I' for Inactive)
REMARK    1  A    between atoms: C_1  and  O_2
REMARK    2  A    between atoms: O_2  and  C_3
REMARK    3  A    between atoms: C_3  and  C_5
REMARK    4  A    between atoms: C_5  and  C_6
REMARK    5  A    between atoms: C_6  and  N_7
REMARK    6  A    between atoms: N_7  and  S_8
REMARK    7  A    between atoms: S_8  and  N_11
REMARK    8  A    between atoms: N_11  and  C_12
REMARK    9  A    between atoms: C_12  and  C_13
REMARK                            x       y       z     vdW  Elec       q    Type
REMARK                         _______ _______ _______ _____ _____    ______ ____
ROOT
ATOM      1  S   UNL     1       6.582   5.621  18.443  0.00  0.00    +0.000 S 
ATOM      2  O   UNL     1       6.517   5.203  19.821  0.00  0.00    +0.000 OA
ATOM      3  O   UNL     1       7.526   6.588  17.951  0.00  0.00    +0.000 OA
ENDROOT
BRANCH   1   4
ATOM      4  N   UNL     1       6.767   4.209  17.523  0.00  0.00    +0.000 NA
ATOM      5  H   UNL     1       7.602   4.306  16.947  0.00  0.00    +0.000 HD
BRANCH   4   6
ATOM      6  C   UNL     1       5.566   3.984  16.660  0.00  0.00    +0.000 C 
BRANCH   6   7
ATOM      7  C   UNL     1       5.950   3.652  15.225  0.00  0.00    +0.000 C 
BRANCH   7   8
ATOM      8  C   UNL     1       6.379   4.930  14.545  0.00  0.00    +0.000 C 
ATOM      9  O   UNL     1       6.180   6.056  14.983  0.00  0.00    +0.000 OA
BRANCH   8  11
ATOM     10  C   UNL     1       6.406   3.648  12.598  0.00  0.00    +0.000 C 
ATOM     11  O   UNL     1       7.042   4.660  13.386  0.00  0.00    +0.000 OA
ENDBRANCH   8  11
ENDBRANCH   7   8
ENDBRANCH   6   7
ENDBRANCH   4   6
ENDBRANCH   1   4
BRANCH   1  12
ATOM     12  N   UNL     1       5.073   6.046  17.932  0.00  0.00    +0.000 NA
ATOM     13  H   UNL     1       4.792   5.750  17.004  0.00  0.00    +0.000 HD
BRANCH  12  14
ATOM     14  C   UNL     1       4.090   6.375  18.952  0.00  0.00    +0.000 C 
BRANCH  14  15
ATOM     15  C   UNL     1       2.985   5.353  19.068  0.00  0.00    +0.000 A 
ATOM     16  C   UNL     1       2.413   4.809  17.909  0.00  0.00    +0.000 A 
ATOM     17  C   UNL     1       1.435   3.817  18.004  0.00  0.00    +0.000 A 
ATOM     18  C   UNL     1       1.033   3.370  19.252  0.00  0.00    +0.000 A 
ATOM     19  F   UNL     1       0.102   2.409  19.337  0.00  0.00    +0.000 F 
ATOM     20  C   UNL     1       1.582   3.895  20.414  0.00  0.00    +0.000 A 
ATOM     21  C   UNL     1       2.560   4.887  20.323  0.00  0.00    +0.000 A 
ENDBRANCH  14  15
ENDBRANCH  12  14
ENDBRANCH   1  12
TORSDOF 8
ENDMDL
MODEL 9
REMARK VINA RESULT:      -6.2      1.268      1.716
REMARK  Name = 
REMARK  9 active torsions:
REMARK  status: ('A' for Active; 'I' for Inactive)
REMARK    1  A    between atoms: C_1  and  O_2
REMARK    2  A    between atoms: O_2  and  C_3
REMARK    3  A    between atoms: C_3  and  C_5
REMARK    4  A    between atoms: C_5  and  C_6
REMARK    5  A    between atoms: C_6  and  N_7
REMARK    6  A    between atoms: N_7  and  S_8
REMARK    7  A    between atoms: S_8  and  N_11
REMARK    8  A    between atoms: N_11  and  C_12
REMARK    9  A    between atoms: C_12  and  C_13
REMARK                            x       y       z     vdW  Elec       q    Type
REMARK                         _______ _______ _______ _____ _____    ______ ____
ROOT
ATOM      1  S   UNL     1       6.643   5.623  18.491  0.00  0.00    +0.000 S 
ATOM      2  O   UNL     1       6.955   5.001  19.754  0.00  0.00    +0.000 OA
ATOM      3  O   UNL     1       7.303   6.805  18.004  0.00  0.00    +0.000 OA
ENDROOT
BRANCH   1   4
ATOM      4  N   UNL     1       6.808   4.419  17.310  0.00  0.00    +0.000 NA
ATOM      5  H   UNL     1       7.595   4.662  16.710  0.00  0.00    +0.000 HD
BRANCH   4   6
ATOM      6  C   UNL     1       5.556   4.301  16.501  0.00  0.00    +0.000 C 
BRANCH   6   7
ATOM      7  C   UNL     1       5.598   5.175  15.256  0.00  0.00    +0.000 C 
BRANCH   7   8
ATOM      8  C   UNL     1       6.780   4.747  14.419  0.00  0.00    +0.000 C 
ATOM      9  O   UNL     1       7.822   5.379  14.307  0.00  0.00    +0.000 OA
BRANCH   8  11
ATOM     10  C   UNL     1       6.390   3.646  12.401  0.00  0.00    +0.000 C 
ATOM     11  O   UNL     1       6.537   3.547  13.821  0.00  0.00    +0.000 OA
ENDBRANCH   8  11
ENDBRANCH   7   8
ENDBRANCH   6   7
ENDBRANCH   4   6
ENDBRANCH   1   4
BRANCH   1  12
ATOM     12  N   UNL     1       5.012   5.844  18.383  0.00  0.00    +0.000 NA
ATOM     13  H   UNL     1       4.601   5.857  17.456  0.00  0.00    +0.000 HD
BRANCH  12  14
ATOM     14  C   UNL     1       4.216   5.534  19.560  0.00  0.00    +0.000 C 
BRANCH  14  15
ATOM     15  C   UNL     1       3.112   4.540  19.288  0.00  0.00    +0.000 A 
ATOM     16  C   UNL     1       2.710   3.650  20.295  0.00  0.00    +0.000 A 
ATOM     17  C   UNL     1       1.648   2.771  20.076  0.00  0.00    +0.000 A 
ATOM     18  C   UNL     1       0.990   2.783  18.858  0.00  0.00    +0.000 A 
ATOM     19  F   UNL     1      -0.037   1.945  18.657  0.00  0.00    +0.000 F 
ATOM     20  C   UNL     1       1.370   3.653  17.845  0.00  0.00    +0.000 A 
ATOM     21  C   UNL     1       2.432   4.534  18.059  0.00  0.00    +0.000 A 
ENDBRANCH  14  15
ENDBRANCH  12  14
ENDBRANCH   1  12
TORSDOF 8
ENDMDL
