MODEL 1
REMARK VINA RESULT:      -8.4      0.000      0.000
REMARK  Name = 
REMARK  7 active torsions:
REMARK  status: ('A' for Active; 'I' for Inactive)
REMARK    1  A    between atoms: C_2  and  C_3
REMARK    2  A    between atoms: C_3  and  O_4
REMARK    3  A    between atoms: O_4  and  C_5
REMARK    4  A    between atoms: C_8  and  C_9
REMARK    5  A    between atoms: N_11  and  C_12
REMARK    6  A    between atoms: C_18  and  C_19
REMARK    7  A    between atoms: C_19  and  C_20
REMARK                            x       y       z     vdW  Elec       q    Type
REMARK                         _______ _______ _______ _____ _____    ______ ____
ROOT
ATOM      1  C   UNL     1       2.472   5.814  19.968  0.00  0.00    +0.000 A 
ATOM      2  C   UNL     1       1.928   4.527  19.922  0.00  0.00    +0.000 A 
ATOM      3  C   UNL     1       2.614   3.489  19.310  0.00  0.00    +0.000 A 
ATOM      4  F   UNL     1       2.070   2.264  19.293  0.00  0.00    +0.000 F 
ATOM      5  C   UNL     1       3.850   3.703  18.724  0.00  0.00    +0.000 A 
ATOM      6  F   UNL     1       4.473   2.663  18.150  0.00  0.00    +0.000 F 
ATOM      7  C   UNL     1       4.439   4.974  18.719  0.00  0.00    +0.000 A 
ATOM      8  C   UNL     1       3.709   6.033  19.328  0.00  0.00    +0.000 A 
ENDROOT
BRANCH   7   9
ATOM      9  C   UNL     1       5.833   5.181  18.071  0.00  0.00    +0.000 C 
ATOM     10  N   UNL     1       5.900   4.473  16.773  0.00  0.00    +0.000 NA
ATOM     11  C   UNL     1       5.488   5.068  15.715  0.00  0.00    +0.000 C 
ATOM     12  N   UNL     1       5.365   4.430  14.530  0.00  0.00    +0.000 N 
ATOM     13  O   UNL     1       5.144   6.373  15.616  0.00  0.00    +0.000 OA
ATOM     14  C   UNL     1       5.607   7.286  16.624  0.00  0.00    +0.000 C 
ATOM     15  C   UNL     1       7.088   7.251  16.904  0.00  0.00    +0.000 C 
ATOM     16  C   UNL     1       6.094   6.673  17.891  0.00  0.00    +0.000 C 
ATOM     17  H   UNL     1       5.959   3.613  14.457  0.00  0.00    +0.000 HD
ATOM     18  H   UNL     1       5.381   5.041  13.724  0.00  0.00    +0.000 HD
BRANCH   9  19
ATOM     19  C   UNL     1       6.936   4.594  19.016  0.00  0.00    +0.000 C 
ATOM     20  F   UNL     1       7.288   5.502  19.970  0.00  0.00    +0.000 F 
ATOM     21  F   UNL     1       8.072   4.309  18.325  0.00  0.00    +0.000 F 
ENDBRANCH   9  19
ENDBRANCH   7   9
BRANCH   1  24
ATOM     22  C   UNL     1       1.536   8.117  20.054  0.00  0.00    +0.000 C 
ATOM     23  O   UNL     1       1.778   8.414  18.882  0.00  0.00    +0.000 OA
ATOM     24  N   UNL     1       1.820   6.887  20.640  0.00  0.00    +0.000 N 
ATOM     25  H   UNL     1       1.433   6.722  21.566  0.00  0.00    +0.000 HD
BRANCH  22  29
ATOM     26  C   UNL     1      -0.396  10.882  22.529  0.00  0.00    +0.000 A 
ATOM     27  C   UNL     1      -0.392  11.057  21.140  0.00  0.00    +0.000 A 
ATOM     28  N   UNL     1       0.219  10.199  20.264  0.00  0.00    +0.000 NA
ATOM     29  C   UNL     1       0.844   9.154  20.872  0.00  0.00    +0.000 A 
ATOM     30  C   UNL     1       0.859   9.000  22.256  0.00  0.00    +0.000 A 
ATOM     31  N   UNL     1       0.245   9.854  23.116  0.00  0.00    +0.000 NA
BRANCH  26  32
ATOM     32  O   UNL     1      -1.050  11.797  23.319  0.00  0.00    +0.000 OA
BRANCH  32  33
ATOM     33  C   UNL     1      -2.214  12.361  22.687  0.00  0.00    +0.000 C 
BRANCH  33  35
ATOM     34  C   UNL     1      -4.266  12.417  24.626  0.00  0.00    +0.000 C 
ATOM     35  C   UNL     1      -3.319  12.391  23.731  0.00  0.00    +0.000 C 
ENDBRANCH  33  35
ENDBRANCH  32  33
ENDBRANCH  26  32
ENDBRANCH  22  29
ENDBRANCH   1  24
TORSDOF 7
ENDMDL
MODEL 2
REMARK VINA RESULT:      -8.3      2.613      4.247
REMARK  Name = 
REMARK  7 active torsions:
REMARK  status: ('A' for Active; 'I' for Inactive)
REMARK    1  A    between atoms: C_2  and  C_3
REMARK    2  A    between atoms: C_3  and  O_4
REMARK    3  A    between atoms: O_4  and  C_5
REMARK    4  A    between atoms: C_8  and  C_9
REMARK    5  A    between atoms: N_11  and  C_12
REMARK    6  A    between atoms: C_18  and  C_19
REMARK    7  A    between atoms: C_19  and  C_20
REMARK                            x       y       z     vdW  Elec       q    Type
REMARK                         _______ _______ _______ _____ _____    ______ ____
ROOT
ATOM      1  C   UNL     1       2.271   7.354  19.410  0.00  0.00    +0.000 A 
ATOM      2  C   UNL     1       3.129   7.615  18.338  0.00  0.00    +0.000 A 
ATOM      3  C   UNL     1       3.637   6.579  17.569  0.00  0.00    +0.000 A 
ATOM      4  F   UNL     1       4.448   6.862  16.540  0.00  0.00    +0.000 F 
ATOM      5  C   UNL     1       3.313   5.262  17.850  0.00  0.00    +0.000 A 
ATOM      6  F   UNL     1       3.828   4.299  17.071  0.00  0.00    +0.000 F 
ATOM      7  C   UNL     1       2.475   4.935  18.922  0.00  0.00    +0.000 A 
ATOM      8  C   UNL     1       1.985   6.009  19.717  0.00  0.00    +0.000 A 
ENDROOT
BRANCH   7   9
ATOM      9  C   UNL     1       2.113   3.452  19.202  0.00  0.00    +0.000 C 
ATOM     10  N   UNL     1       3.342   2.626  19.228  0.00  0.00    +0.000 NA
ATOM     11  C   UNL     1       3.998   2.516  20.324  0.00  0.00    +0.000 C 
ATOM     12  N   UNL     1       5.208   1.918  20.382  0.00  0.00    +0.000 N 
ATOM     13  O   UNL     1       3.592   2.942  21.542  0.00  0.00    +0.000 OA
ATOM     14  C   UNL     1       2.195   3.201  21.753  0.00  0.00    +0.000 C 
ATOM     15  C   UNL     1       1.260   2.087  21.354  0.00  0.00    +0.000 C 
ATOM     16  C   UNL     1       1.363   3.353  20.527  0.00  0.00    +0.000 C 
ATOM     17  H   UNL     1       5.363   1.262  19.626  0.00  0.00    +0.000 HD
ATOM     18  H   UNL     1       5.461   1.577  21.300  0.00  0.00    +0.000 HD
BRANCH   9  19
ATOM     19  C   UNL     1       1.180   2.923  18.062  0.00  0.00    +0.000 C 
ATOM     20  F   UNL     1       0.105   2.266  18.583  0.00  0.00    +0.000 F 
ATOM     21  F   UNL     1       1.830   2.024  17.274  0.00  0.00    +0.000 F 
ENDBRANCH   9  19
ENDBRANCH   7   9
BRANCH   1  24
ATOM     22  C   UNL     1       0.939   9.443  19.643  0.00  0.00    +0.000 C 
ATOM     23  O   UNL     1       0.661   9.570  18.448  0.00  0.00    +0.000 OA
ATOM     24  N   UNL     1       1.687   8.400  20.181  0.00  0.00    +0.000 N 
ATOM     25  H   UNL     1       1.714   8.333  21.196  0.00  0.00    +0.000 HD
BRANCH  22  29
ATOM     26  C   UNL     1      -0.659  12.161  22.392  0.00  0.00    +0.000 A 
ATOM     27  C   UNL     1      -0.506  12.521  21.049  0.00  0.00    +0.000 A 
ATOM     28  N   UNL     1       0.011  11.691  20.089  0.00  0.00    +0.000 NA
ATOM     29  C   UNL     1       0.380  10.471  20.567  0.00  0.00    +0.000 A 
ATOM     30  C   UNL     1       0.250  10.128  21.910  0.00  0.00    +0.000 A 
ATOM     31  N   UNL     1      -0.269  10.958  22.853  0.00  0.00    +0.000 NA
BRANCH  26  32
ATOM     32  O   UNL     1      -1.200  13.067  23.273  0.00  0.00    +0.000 OA
BRANCH  32  33
ATOM     33  C   UNL     1      -2.500  13.539  22.872  0.00  0.00    +0.000 C 
BRANCH  33  35
ATOM     34  C   UNL     1      -4.371  12.463  24.693  0.00  0.00    +0.000 C 
ATOM     35  C   UNL     1      -3.507  12.960  23.852  0.00  0.00    +0.000 C 
ENDBRANCH  33  35
ENDBRANCH  32  33
ENDBRANCH  26  32
ENDBRANCH  22  29
ENDBRANCH   1  24
TORSDOF 7
ENDMDL
MODEL 3
REMARK VINA RESULT:      -8.3      2.669      4.414
REMARK  Name = 
REMARK  7 active torsions:
REMARK  status: ('A' for Active; 'I' for Inactive)
REMARK    1  A    between atoms: C_2  and  C_3
REMARK    2  A    between atoms: C_3  and  O_4
REMARK    3  A    between atoms: O_4  and  C_5
REMARK    4  A    between atoms: C_8  and  C_9
REMARK    5  A    between atoms: N_11  and  C_12
REMARK    6  A    between atoms: C_18  and  C_19
REMARK    7  A    between atoms: C_19  and  C_20
REMARK                            x       y       z     vdW  Elec       q    Type
REMARK                         _______ _______ _______ _____ _____    ______ ____
ROOT
ATOM      1  C   UNL     1       2.608   7.391  18.893  0.00  0.00    +0.000 A 
ATOM      2  C   UNL     1       3.561   7.477  17.874  0.00  0.00    +0.000 A 
ATOM      3  C   UNL     1       4.046   6.332  17.259  0.00  0.00    +0.000 A 
ATOM      4  F   UNL     1       4.952   6.449  16.278  0.00  0.00    +0.000 F 
ATOM      5  C   UNL     1       3.604   5.078  17.645  0.00  0.00    +0.000 A 
ATOM      6  F   UNL     1       4.102   4.005  17.012  0.00  0.00    +0.000 F 
ATOM      7  C   UNL     1       2.665   4.925  18.672  0.00  0.00    +0.000 A 
ATOM      8  C   UNL     1       2.199   6.108  19.311  0.00  0.00    +0.000 A 
ENDROOT
BRANCH   7   9
ATOM      9  C   UNL     1       2.173   3.508  19.070  0.00  0.00    +0.000 C 
ATOM     10  N   UNL     1       3.318   2.571  19.128  0.00  0.00    +0.000 NA
ATOM     11  C   UNL     1       3.993   2.477  20.213  0.00  0.00    +0.000 C 
ATOM     12  N   UNL     1       5.143   1.770  20.287  0.00  0.00    +0.000 N 
ATOM     13  O   UNL     1       3.668   3.026  21.406  0.00  0.00    +0.000 OA
ATOM     14  C   UNL     1       2.309   3.433  21.630  0.00  0.00    +0.000 C 
ATOM     15  C   UNL     1       1.261   2.390  21.337  0.00  0.00    +0.000 C 
ATOM     16  C   UNL     1       1.458   3.577  20.416  0.00  0.00    +0.000 C 
ATOM     17  H   UNL     1       5.212   1.049  19.579  0.00  0.00    +0.000 HD
ATOM     18  H   UNL     1       5.390   1.473  21.222  0.00  0.00    +0.000 HD
BRANCH   9  19
ATOM     19  C   UNL     1       1.159   2.991  17.994  0.00  0.00    +0.000 C 
ATOM     20  F   UNL     1       0.578   4.034  17.336  0.00  0.00    +0.000 F 
ATOM     21  F   UNL     1       0.144   2.294  18.573  0.00  0.00    +0.000 F 
ENDBRANCH   9  19
ENDBRANCH   7   9
BRANCH   1  24
ATOM     22  C   UNL     1       1.227   9.460  18.844  0.00  0.00    +0.000 C 
ATOM     23  O   UNL     1       0.857   9.357  17.672  0.00  0.00    +0.000 OA
ATOM     24  N   UNL     1       2.047   8.549  19.503  0.00  0.00    +0.000 N 
ATOM     25  H   UNL     1       2.152   8.672  20.508  0.00  0.00    +0.000 HD
BRANCH  22  29
ATOM     26  C   UNL     1      -0.235  12.614  21.170  0.00  0.00    +0.000 A 
ATOM     27  C   UNL     1      -0.293  12.679  19.773  0.00  0.00    +0.000 A 
ATOM     28  N   UNL     1       0.165  11.691  18.943  0.00  0.00    +0.000 NA
ATOM     29  C   UNL     1       0.704  10.630  19.605  0.00  0.00    +0.000 A 
ATOM     30  C   UNL     1       0.784  10.584  20.994  0.00  0.00    +0.000 A 
ATOM     31  N   UNL     1       0.320  11.568  21.809  0.00  0.00    +0.000 NA
BRANCH  26  32
ATOM     32  O   UNL     1      -0.735  13.658  21.912  0.00  0.00    +0.000 OA
BRANCH  32  33
ATOM     33  C   UNL     1      -1.318  13.238  23.160  0.00  0.00    +0.000 C 
BRANCH  33  35
ATOM     34  C   UNL     1      -1.346  15.489  24.864  0.00  0.00    +0.000 C 
ATOM     35  C   UNL     1      -1.333  14.449  24.077  0.00  0.00    +0.000 C 
ENDBRANCH  33  35
ENDBRANCH  32  33
ENDBRANCH  26  32
ENDBRANCH  22  29
ENDBRANCH   1  24
TORSDOF 7
ENDMDL
MODEL 4
REMARK VINA RESULT:      -8.1      2.597      4.285
REMARK  Name = 
REMARK  7 active torsions:
REMARK  status: ('A' for Active; 'I' for Inactive)
REMARK    1  A    between atoms: C_2  and  C_3
REMARK    2  A    between atoms: C_3  and  O_4
REMARK    3  A    between atoms: O_4  and  C_5
REMARK    4  A    between atoms: C_8  and  C_9
REMARK    5  A    between atoms: N_11  and  C_12
REMARK    6  A    between atoms: C_18  and  C_19
REMARK    7  A    between atoms: C_19  and  C_20
REMARK                            x       y       z     vdW  Elec       q    Type
REMARK                         _______ _______ _______ _____ _____    ______ ____
ROOT
ATOM      1  C   UNL     1       2.493   7.380  18.786  0.00  0.00    +0.000 A 
ATOM      2  C   UNL     1       3.517   7.464  17.839  0.00  0.00    +0.000 A 
ATOM      3  C   UNL     1       4.084   6.316  17.304  0.00  0.00    +0.000 A 
ATOM      4  F   UNL     1       5.057   6.430  16.390  0.00  0.00    +0.000 F 
ATOM      5  C   UNL     1       3.654   5.062  17.702  0.00  0.00    +0.000 A 
ATOM      6  F   UNL     1       4.232   3.985  17.149  0.00  0.00    +0.000 F 
ATOM      7  C   UNL     1       2.645   4.912  18.661  0.00  0.00    +0.000 A 
ATOM      8  C   UNL     1       2.094   6.100  19.219  0.00  0.00    +0.000 A 
ENDROOT
BRANCH   7   9
ATOM      9  C   UNL     1       2.170   3.493  19.074  0.00  0.00    +0.000 C 
ATOM     10  N   UNL     1       3.325   2.569  19.136  0.00  0.00    +0.000 NA
ATOM     11  C   UNL     1       4.004   2.492  20.220  0.00  0.00    +0.000 C 
ATOM     12  N   UNL     1       5.162   1.798  20.297  0.00  0.00    +0.000 N 
ATOM     13  O   UNL     1       3.677   3.049  21.409  0.00  0.00    +0.000 OA
ATOM     14  C   UNL     1       2.314   3.443  21.633  0.00  0.00    +0.000 C 
ATOM     15  C   UNL     1       1.276   2.387  21.354  0.00  0.00    +0.000 C 
ATOM     16  C   UNL     1       1.458   3.567  20.421  0.00  0.00    +0.000 C 
ATOM     17  H   UNL     1       5.236   1.072  19.595  0.00  0.00    +0.000 HD
ATOM     18  H   UNL     1       5.415   1.512  21.234  0.00  0.00    +0.000 HD
BRANCH   9  19
ATOM     19  C   UNL     1       1.158   2.956  18.006  0.00  0.00    +0.000 C 
ATOM     20  F   UNL     1       0.723   3.966  17.200  0.00  0.00    +0.000 F 
ATOM     21  F   UNL     1       0.049   2.437  18.599  0.00  0.00    +0.000 F 
ENDBRANCH   9  19
ENDBRANCH   7   9
BRANCH   1  24
ATOM     22  C   UNL     1       1.356   8.638  20.606  0.00  0.00    +0.000 C 
ATOM     23  O   UNL     1       1.443   7.758  21.465  0.00  0.00    +0.000 OA
ATOM     24  N   UNL     1       1.851   8.539  19.309  0.00  0.00    +0.000 N 
ATOM     25  H   UNL     1       1.848   9.391  18.752  0.00  0.00    +0.000 HD
BRANCH  22  29
ATOM     26  C   UNL     1      -0.541  12.108  21.971  0.00  0.00    +0.000 A 
ATOM     27  C   UNL     1      -0.062  12.034  20.658  0.00  0.00    +0.000 A 
ATOM     28  N   UNL     1       0.571  10.936  20.137  0.00  0.00    +0.000 NA
ATOM     29  C   UNL     1       0.708   9.914  21.026  0.00  0.00    +0.000 A 
ATOM     30  C   UNL     1       0.254  10.005  22.339  0.00  0.00    +0.000 A 
ATOM     31  N   UNL     1      -0.377  11.097  22.844  0.00  0.00    +0.000 NA
BRANCH  26  32
ATOM     32  O   UNL     1      -1.172  13.255  22.391  0.00  0.00    +0.000 OA
BRANCH  32  33
ATOM     33  C   UNL     1      -2.272  13.001  23.284  0.00  0.00    +0.000 C 
BRANCH  33  35
ATOM     34  C   UNL     1      -4.599  12.793  21.699  0.00  0.00    +0.000 C 
ATOM     35  C   UNL     1      -3.525  12.889  22.431  0.00  0.00    +0.000 C 
ENDBRANCH  33  35
ENDBRANCH  32  33
ENDBRANCH  26  32
ENDBRANCH  22  29
ENDBRANCH   1  24
TORSDOF 7
ENDMDL
MODEL 5
REMARK VINA RESULT:      -8.1      2.634      4.465
REMARK  Name = 
REMARK  7 active torsions:
REMARK  status: ('A' for Active; 'I' for Inactive)
REMARK    1  A    between atoms: C_2  and  C_3
REMARK    2  A    between atoms: C_3  and  O_4
REMARK    3  A    between atoms: O_4  and  C_5
REMARK    4  A    between atoms: C_8  and  C_9
REMARK    5  A    between atoms: N_11  and  C_12
REMARK    6  A    between atoms: C_18  and  C_19
REMARK    7  A    between atoms: C_19  and  C_20
REMARK                            x       y       z     vdW  Elec       q    Type
REMARK                         _______ _______ _______ _____ _____    ______ ____
ROOT
ATOM      1  C   UNL     1       2.579   7.404  18.850  0.00  0.00    +0.000 A 
ATOM      2  C   UNL     1       3.566   7.485  17.865  0.00  0.00    +0.000 A 
ATOM      3  C   UNL     1       4.086   6.337  17.285  0.00  0.00    +0.000 A 
ATOM      4  F   UNL     1       5.024   6.449  16.334  0.00  0.00    +0.000 F 
ATOM      5  C   UNL     1       3.645   5.084  17.675  0.00  0.00    +0.000 A 
ATOM      6  F   UNL     1       4.177   4.007  17.078  0.00  0.00    +0.000 F 
ATOM      7  C   UNL     1       2.672   4.936  18.672  0.00  0.00    +0.000 A 
ATOM      8  C   UNL     1       2.170   6.123  19.274  0.00  0.00    +0.000 A 
ENDROOT
BRANCH   7   9
ATOM      9  C   UNL     1       2.183   3.520  19.075  0.00  0.00    +0.000 C 
ATOM     10  N   UNL     1       3.328   2.583  19.129  0.00  0.00    +0.000 NA
ATOM     11  C   UNL     1       4.009   2.491  20.212  0.00  0.00    +0.000 C 
ATOM     12  N   UNL     1       5.159   1.785  20.282  0.00  0.00    +0.000 N 
ATOM     13  O   UNL     1       3.689   3.044  21.405  0.00  0.00    +0.000 OA
ATOM     14  C   UNL     1       2.330   3.451  21.634  0.00  0.00    +0.000 C 
ATOM     15  C   UNL     1       1.281   2.406  21.349  0.00  0.00    +0.000 C 
ATOM     16  C   UNL     1       1.474   3.591  20.424  0.00  0.00    +0.000 C 
ATOM     17  H   UNL     1       5.225   1.063  19.575  0.00  0.00    +0.000 HD
ATOM     18  H   UNL     1       5.411   1.490  21.217  0.00  0.00    +0.000 HD
BRANCH   9  19
ATOM     19  C   UNL     1       1.164   2.999  18.005  0.00  0.00    +0.000 C 
ATOM     20  F   UNL     1       0.646   4.036  17.286  0.00  0.00    +0.000 F 
ATOM     21  F   UNL     1       0.106   2.381  18.596  0.00  0.00    +0.000 F 
ENDBRANCH   9  19
ENDBRANCH   7   9
BRANCH   1  24
ATOM     22  C   UNL     1       1.117   9.413  18.741  0.00  0.00    +0.000 C 
ATOM     23  O   UNL     1       0.730   9.246  17.582  0.00  0.00    +0.000 OA
ATOM     24  N   UNL     1       1.984   8.565  19.422  0.00  0.00    +0.000 N 
ATOM     25  H   UNL     1       2.102   8.735  20.419  0.00  0.00    +0.000 HD
BRANCH  22  29
ATOM     26  C   UNL     1      -0.516  12.807  20.562  0.00  0.00    +0.000 A 
ATOM     27  C   UNL     1       0.378  11.989  21.263  0.00  0.00    +0.000 A 
ATOM     28  N   UNL     1       0.953  10.862  20.738  0.00  0.00    +0.000 NA
ATOM     29  C   UNL     1       0.562  10.594  19.462  0.00  0.00    +0.000 A 
ATOM     30  C   UNL     1      -0.349  11.397  18.781  0.00  0.00    +0.000 A 
ATOM     31  N   UNL     1      -0.910  12.517  19.308  0.00  0.00    +0.000 NA
BRANCH  26  32
ATOM     32  O   UNL     1      -1.027  13.924  21.179  0.00  0.00    +0.000 OA
BRANCH  32  33
ATOM     33  C   UNL     1      -2.464  13.913  21.270  0.00  0.00    +0.000 C 
BRANCH  33  35
ATOM     34  C   UNL     1      -3.145  12.271  23.464  0.00  0.00    +0.000 C 
ATOM     35  C   UNL     1      -2.830  13.029  22.451  0.00  0.00    +0.000 C 
ENDBRANCH  33  35
ENDBRANCH  32  33
ENDBRANCH  26  32
ENDBRANCH  22  29
ENDBRANCH   1  24
TORSDOF 7
ENDMDL
MODEL 6
REMARK VINA RESULT:      -8.0      4.448      7.838
REMARK  Name = 
REMARK  7 active torsions:
REMARK  status: ('A' for Active; 'I' for Inactive)
REMARK    1  A    between atoms: C_2  and  C_3
REMARK    2  A    between atoms: C_3  and  O_4
REMARK    3  A    between atoms: O_4  and  C_5
REMARK    4  A    between atoms: C_8  and  C_9
REMARK    5  A    between atoms: N_11  and  C_12
REMARK    6  A    between atoms: C_18  and  C_19
REMARK    7  A    between atoms: C_19  and  C_20
REMARK                            x       y       z     vdW  Elec       q    Type
REMARK                         _______ _______ _______ _____ _____    ______ ____
ROOT
ATOM      1  C   UNL     1       6.595   6.506  17.095  0.00  0.00    +0.000 A 
ATOM      2  C   UNL     1       6.962   5.757  15.974  0.00  0.00    +0.000 A 
ATOM      3  C   UNL     1       6.380   4.523  15.725  0.00  0.00    +0.000 A 
ATOM      4  F   UNL     1       6.745   3.833  14.635  0.00  0.00    +0.000 F 
ATOM      5  C   UNL     1       5.428   4.001  16.585  0.00  0.00    +0.000 A 
ATOM      6  F   UNL     1       4.893   2.806  16.294  0.00  0.00    +0.000 F 
ATOM      7  C   UNL     1       5.034   4.695  17.735  0.00  0.00    +0.000 A 
ATOM      8  C   UNL     1       5.661   5.947  17.990  0.00  0.00    +0.000 A 
ENDROOT
BRANCH   7   9
ATOM      9  C   UNL     1       3.951   4.094  18.671  0.00  0.00    +0.000 C 
ATOM     10  N   UNL     1       3.573   5.080  19.709  0.00  0.00    +0.000 NA
ATOM     11  C   UNL     1       2.657   5.939  19.450  0.00  0.00    +0.000 C 
ATOM     12  N   UNL     1       2.376   6.967  20.282  0.00  0.00    +0.000 N 
ATOM     13  O   UNL     1       1.850   5.943  18.363  0.00  0.00    +0.000 OA
ATOM     14  C   UNL     1       1.704   4.729  17.609  0.00  0.00    +0.000 C 
ATOM     15  C   UNL     1       1.342   3.504  18.410  0.00  0.00    +0.000 C 
ATOM     16  C   UNL     1       2.737   3.681  17.845  0.00  0.00    +0.000 C 
ATOM     17  H   UNL     1       2.652   6.788  21.239  0.00  0.00    +0.000 HD
ATOM     18  H   UNL     1       1.448   7.351  20.171  0.00  0.00    +0.000 HD
BRANCH   9  19
ATOM     19  C   UNL     1       4.526   2.821  19.379  0.00  0.00    +0.000 C 
ATOM     20  F   UNL     1       4.096   1.687  18.758  0.00  0.00    +0.000 F 
ATOM     21  F   UNL     1       4.092   2.738  20.666  0.00  0.00    +0.000 F 
ENDBRANCH   9  19
ENDBRANCH   7   9
BRANCH   1  24
ATOM     22  C   UNL     1       8.103   8.072  18.306  0.00  0.00    +0.000 C 
ATOM     23  O   UNL     1       8.642   7.226  19.023  0.00  0.00    +0.000 OA
ATOM     24  N   UNL     1       7.131   7.802  17.347  0.00  0.00    +0.000 N 
ATOM     25  H   UNL     1       6.881   8.565  16.722  0.00  0.00    +0.000 HD
BRANCH  22  29
ATOM     26  C   UNL     1       9.365  12.054  18.532  0.00  0.00    +0.000 A 
ATOM     27  C   UNL     1       9.801  11.119  19.478  0.00  0.00    +0.000 A 
ATOM     28  N   UNL     1       9.432   9.800  19.473  0.00  0.00    +0.000 NA
ATOM     29  C   UNL     1       8.580   9.476  18.463  0.00  0.00    +0.000 A 
ATOM     30  C   UNL     1       8.128  10.417  17.542  0.00  0.00    +0.000 A 
ATOM     31  N   UNL     1       8.504  11.723  17.552  0.00  0.00    +0.000 NA
BRANCH  26  32
ATOM     32  O   UNL     1       9.805  13.353  18.621  0.00  0.00    +0.000 OA
BRANCH  32  33
ATOM     33  C   UNL     1      10.532  13.786  17.456  0.00  0.00    +0.000 C 
BRANCH  33  35
ATOM     34  C   UNL     1      10.493  16.609  17.453  0.00  0.00    +0.000 C 
ATOM     35  C   UNL     1      10.511  15.305  17.454  0.00  0.00    +0.000 C 
ENDBRANCH  33  35
ENDBRANCH  32  33
ENDBRANCH  26  32
ENDBRANCH  22  29
ENDBRANCH   1  24
TORSDOF 7
ENDMDL
MODEL 7
REMARK VINA RESULT:      -7.9      4.448      7.261
REMARK  Name = 
REMARK  7 active torsions:
REMARK  status: ('A' for Active; 'I' for Inactive)
REMARK    1  A    between atoms: C_2  and  C_3
REMARK    2  A    between atoms: C_3  and  O_4
REMARK    3  A    between atoms: O_4  and  C_5
REMARK    4  A    between atoms: C_8  and  C_9
REMARK    5  A    between atoms: N_11  and  C_12
REMARK    6  A    between atoms: C_18  and  C_19
REMARK    7  A    between atoms: C_19  and  C_20
REMARK                            x       y       z     vdW  Elec       q    Type
REMARK                         _______ _______ _______ _____ _____    ______ ____
ROOT
ATOM      1  C   UNL     1       6.535   6.473  17.070  0.00  0.00    +0.000 A 
ATOM      2  C   UNL     1       6.901   5.714  15.955  0.00  0.00    +0.000 A 
ATOM      3  C   UNL     1       6.328   4.473  15.724  0.00  0.00    +0.000 A 
ATOM      4  F   UNL     1       6.691   3.774  14.639  0.00  0.00    +0.000 F 
ATOM      5  C   UNL     1       5.385   3.953  16.595  0.00  0.00    +0.000 A 
ATOM      6  F   UNL     1       4.858   2.750  16.321  0.00  0.00    +0.000 F 
ATOM      7  C   UNL     1       4.992   4.656  17.740  0.00  0.00    +0.000 A 
ATOM      8  C   UNL     1       5.611   5.916  17.977  0.00  0.00    +0.000 A 
ENDROOT
BRANCH   7   9
ATOM      9  C   UNL     1       3.920   4.058  18.689  0.00  0.00    +0.000 C 
ATOM     10  N   UNL     1       3.556   5.045  19.731  0.00  0.00    +0.000 NA
ATOM     11  C   UNL     1       2.638   5.905  19.482  0.00  0.00    +0.000 C 
ATOM     12  N   UNL     1       2.369   6.933  20.317  0.00  0.00    +0.000 N 
ATOM     13  O   UNL     1       1.818   5.908  18.406  0.00  0.00    +0.000 OA
ATOM     14  C   UNL     1       1.662   4.695  17.654  0.00  0.00    +0.000 C 
ATOM     15  C   UNL     1       1.307   3.471  18.460  0.00  0.00    +0.000 C 
ATOM     16  C   UNL     1       2.695   3.646  17.878  0.00  0.00    +0.000 C 
ATOM     17  H   UNL     1       2.656   6.754  21.271  0.00  0.00    +0.000 HD
ATOM     18  H   UNL     1       1.439   7.319  20.217  0.00  0.00    +0.000 HD
BRANCH   9  19
ATOM     19  C   UNL     1       4.502   2.785  19.391  0.00  0.00    +0.000 C 
ATOM     20  F   UNL     1       4.071   1.650  18.770  0.00  0.00    +0.000 F 
ATOM     21  F   UNL     1       4.077   2.698  20.680  0.00  0.00    +0.000 F 
ENDBRANCH   9  19
ENDBRANCH   7   9
BRANCH   1  24
ATOM     22  C   UNL     1       8.044   8.062  18.248  0.00  0.00    +0.000 C 
ATOM     23  O   UNL     1       8.600   7.228  18.966  0.00  0.00    +0.000 OA
ATOM     24  N   UNL     1       7.063   7.775  17.304  0.00  0.00    +0.000 N 
ATOM     25  H   UNL     1       6.798   8.531  16.676  0.00  0.00    +0.000 HD
BRANCH  22  29
ATOM     26  C   UNL     1       9.260  12.061  18.430  0.00  0.00    +0.000 A 
ATOM     27  C   UNL     1       9.771  11.124  19.336  0.00  0.00    +0.000 A 
ATOM     28  N   UNL     1       9.422   9.800  19.343  0.00  0.00    +0.000 NA
ATOM     29  C   UNL     1       8.509   9.472  18.387  0.00  0.00    +0.000 A 
ATOM     30  C   UNL     1       7.985  10.415  17.507  0.00  0.00    +0.000 A 
ATOM     31  N   UNL     1       8.342  11.725  17.505  0.00  0.00    +0.000 NA
BRANCH  26  32
ATOM     32  O   UNL     1       9.686  13.366  18.502  0.00  0.00    +0.000 OA
BRANCH  32  33
ATOM     33  C   UNL     1       8.609  14.318  18.423  0.00  0.00    +0.000 C 
BRANCH  33  35
ATOM     34  C   UNL     1       7.581  14.629  21.035  0.00  0.00    +0.000 C 
ATOM     35  C   UNL     1       8.056  14.485  19.829  0.00  0.00    +0.000 C 
ENDBRANCH  33  35
ENDBRANCH  32  33
ENDBRANCH  26  32
ENDBRANCH  22  29
ENDBRANCH   1  24
TORSDOF 7
ENDMDL
MODEL 8
REMARK VINA RESULT:      -7.9      2.022      2.562
REMARK  Name = 
REMARK  7 active torsions:
REMARK  status: ('A' for Active; 'I' for Inactive)
REMARK    1  A    between atoms: C_2  and  C_3
REMARK    2  A    between atoms: C_3  and  O_4
REMARK    3  A    between atoms: O_4  and  C_5
REMARK    4  A    between atoms: C_8  and  C_9
REMARK    5  A    between atoms: N_11  and  C_12
REMARK    6  A    between atoms: C_18  and  C_19
REMARK    7  A    between atoms: C_19  and  C_20
REMARK                            x       y       z     vdW  Elec       q    Type
REMARK                         _______ _______ _______ _____ _____    ______ ____
ROOT
ATOM      1  C   UNL     1       2.483   6.749  18.189  0.00  0.00    +0.000 A 
ATOM      2  C   UNL     1       1.730   5.575  18.284  0.00  0.00    +0.000 A 
ATOM      3  C   UNL     1       2.252   4.362  17.860  0.00  0.00    +0.000 A 
ATOM      4  F   UNL     1       1.509   3.252  17.975  0.00  0.00    +0.000 F 
ATOM      5  C   UNL     1       3.527   4.287  17.326  0.00  0.00    +0.000 A 
ATOM      6  F   UNL     1       3.985   3.087  16.936  0.00  0.00    +0.000 F 
ATOM      7  C   UNL     1       4.322   5.430  17.186  0.00  0.00    +0.000 A 
ATOM      8  C   UNL     1       3.761   6.670  17.601  0.00  0.00    +0.000 A 
ENDROOT
BRANCH   7   9
ATOM      9  C   UNL     1       5.755   5.313  16.601  0.00  0.00    +0.000 C 
ATOM     10  N   UNL     1       6.355   6.658  16.453  0.00  0.00    +0.000 NA
ATOM     11  C   UNL     1       6.968   7.181  17.450  0.00  0.00    +0.000 C 
ATOM     12  N   UNL     1       7.395   8.464  17.442  0.00  0.00    +0.000 N 
ATOM     13  O   UNL     1       7.288   6.557  18.607  0.00  0.00    +0.000 OA
ATOM     14  C   UNL     1       7.308   5.121  18.633  0.00  0.00    +0.000 C 
ATOM     15  C   UNL     1       8.121   4.461  17.549  0.00  0.00    +0.000 C 
ATOM     16  C   UNL     1       6.606   4.434  17.512  0.00  0.00    +0.000 C 
ATOM     17  H   UNL     1       7.535   8.828  16.507  0.00  0.00    +0.000 HD
ATOM     18  H   UNL     1       8.145   8.658  18.092  0.00  0.00    +0.000 HD
BRANCH   9  19
ATOM     19  C   UNL     1       5.684   4.641  15.188  0.00  0.00    +0.000 C 
ATOM     20  F   UNL     1       6.159   3.364  15.235  0.00  0.00    +0.000 F 
ATOM     21  F   UNL     1       6.463   5.303  14.291  0.00  0.00    +0.000 F 
ENDBRANCH   9  19
ENDBRANCH   7   9
BRANCH   1  24
ATOM     22  C   UNL     1       1.479   8.196  19.946  0.00  0.00    +0.000 C 
ATOM     23  O   UNL     1       1.410   7.332  20.822  0.00  0.00    +0.000 OA
ATOM     24  N   UNL     1       1.998   7.999  18.670  0.00  0.00    +0.000 N 
ATOM     25  H   UNL     1       2.135   8.830  18.098  0.00  0.00    +0.000 HD
BRANCH  22  29
ATOM     26  C   UNL     1       0.133  11.949  21.214  0.00  0.00    +0.000 A 
ATOM     27  C   UNL     1       0.218  11.652  19.849  0.00  0.00    +0.000 A 
ATOM     28  N   UNL     1       0.651  10.450  19.355  0.00  0.00    +0.000 NA
ATOM     29  C   UNL     1       1.009   9.561  20.321  0.00  0.00    +0.000 A 
ATOM     30  C   UNL     1       0.947   9.872  21.677  0.00  0.00    +0.000 A 
ATOM     31  N   UNL     1       0.512  11.066  22.157  0.00  0.00    +0.000 NA
BRANCH  26  32
ATOM     32  O   UNL     1      -0.326  13.184  21.605  0.00  0.00    +0.000 OA
BRANCH  32  33
ATOM     33  C   UNL     1      -0.965  13.169  22.895  0.00  0.00    +0.000 C 
BRANCH  33  35
ATOM     34  C   UNL     1      -3.720  12.741  22.453  0.00  0.00    +0.000 C 
ATOM     35  C   UNL     1      -2.448  12.938  22.657  0.00  0.00    +0.000 C 
ENDBRANCH  33  35
ENDBRANCH  32  33
ENDBRANCH  26  32
ENDBRANCH  22  29
ENDBRANCH   1  24
TORSDOF 7
ENDMDL
MODEL 9
REMARK VINA RESULT:      -7.9      2.595      4.339
REMARK  Name = 
REMARK  7 active torsions:
REMARK  status: ('A' for Active; 'I' for Inactive)
REMARK    1  A    between atoms: C_2  and  C_3
REMARK    2  A    between atoms: C_3  and  O_4
REMARK    3  A    between atoms: O_4  and  C_5
REMARK    4  A    between atoms: C_8  and  C_9
REMARK    5  A    between atoms: N_11  and  C_12
REMARK    6  A    between atoms: C_18  and  C_19
REMARK    7  A    between atoms: C_19  and  C_20
REMARK                            x       y       z     vdW  Elec       q    Type
REMARK                         _______ _______ _______ _____ _____    ______ ____
ROOT
ATOM      1  C   UNL     1       2.534   7.269  18.501  0.00  0.00    +0.000 A 
ATOM      2  C   UNL     1       3.643   7.307  17.653  0.00  0.00    +0.000 A 
ATOM      3  C   UNL     1       4.277   6.137  17.261  0.00  0.00    +0.000 A 
ATOM      4  F   UNL     1       5.332   6.206  16.437  0.00  0.00    +0.000 F 
ATOM      5  C   UNL     1       3.830   4.905  17.708  0.00  0.00    +0.000 A 
ATOM      6  F   UNL     1       4.476   3.805  17.294  0.00  0.00    +0.000 F 
ATOM      7  C   UNL     1       2.735   4.803  18.575  0.00  0.00    +0.000 A 
ATOM      8  C   UNL     1       2.115   6.015  18.988  0.00  0.00    +0.000 A 
ENDROOT
BRANCH   7   9
ATOM      9  C   UNL     1       2.244   3.407  19.044  0.00  0.00    +0.000 C 
ATOM     10  N   UNL     1       3.398   2.495  19.217  0.00  0.00    +0.000 NA
ATOM     11  C   UNL     1       4.023   2.484  20.336  0.00  0.00    +0.000 C 
ATOM     12  N   UNL     1       5.177   1.802  20.510  0.00  0.00    +0.000 N 
ATOM     13  O   UNL     1       3.635   3.106  21.473  0.00  0.00    +0.000 OA
ATOM     14  C   UNL     1       2.261   3.505  21.606  0.00  0.00    +0.000 C 
ATOM     15  C   UNL     1       1.242   2.427  21.337  0.00  0.00    +0.000 C 
ATOM     16  C   UNL     1       1.466   3.553  20.348  0.00  0.00    +0.000 C 
ATOM     17  H   UNL     1       5.288   1.038  19.855  0.00  0.00    +0.000 HD
ATOM     18  H   UNL     1       5.384   1.572  21.472  0.00  0.00    +0.000 HD
BRANCH   9  19
ATOM     19  C   UNL     1       1.289   2.803  17.960  0.00  0.00    +0.000 C 
ATOM     20  F   UNL     1       0.261   2.125  18.545  0.00  0.00    +0.000 F 
ATOM     21  F   UNL     1       1.942   1.902  17.178  0.00  0.00    +0.000 F 
ENDBRANCH   9  19
ENDBRANCH   7   9
BRANCH   1  24
ATOM     22  C   UNL     1       1.360   8.705  20.160  0.00  0.00    +0.000 C 
ATOM     23  O   UNL     1       1.533   7.969  21.134  0.00  0.00    +0.000 OA
ATOM     24  N   UNL     1       1.826   8.448  18.874  0.00  0.00    +0.000 N 
ATOM     25  H   UNL     1       1.748   9.206  18.199  0.00  0.00    +0.000 HD
BRANCH  22  29
ATOM     26  C   UNL     1      -0.792  12.254  20.681  0.00  0.00    +0.000 A 
ATOM     27  C   UNL     1       0.374  12.019  21.418  0.00  0.00    +0.000 A 
ATOM     28  N   UNL     1       1.132  10.884  21.307  0.00  0.00    +0.000 NA
ATOM     29  C   UNL     1       0.637   9.984  20.414  0.00  0.00    +0.000 A 
ATOM     30  C   UNL     1      -0.539  10.212  19.704  0.00  0.00    +0.000 A 
ATOM     31  N   UNL     1      -1.281  11.345  19.817  0.00  0.00    +0.000 NA
BRANCH  26  32
ATOM     32  O   UNL     1      -1.474  13.434  20.861  0.00  0.00    +0.000 OA
BRANCH  32  33
ATOM     33  C   UNL     1      -1.483  13.879  22.230  0.00  0.00    +0.000 C 
BRANCH  33  35
ATOM     34  C   UNL     1      -3.601  12.534  23.525  0.00  0.00    +0.000 C 
ATOM     35  C   UNL     1      -2.623  13.155  22.927  0.00  0.00    +0.000 C 
ENDBRANCH  33  35
ENDBRANCH  32  33
ENDBRANCH  26  32
ENDBRANCH  22  29
ENDBRANCH   1  24
TORSDOF 7
ENDMDL
