MODEL 1
REMARK VINA RESULT:      -7.6      0.000      0.000
REMARK  Name = 
REMARK  10 active torsions:
REMARK  status: ('A' for Active; 'I' for Inactive)
REMARK    1  A    between atoms: C_1  and  C_2
REMARK    2  A    between atoms: C_2  and  N_3
REMARK    3  A    between atoms: C_7  and  O_8
REMARK    4  A    between atoms: O_8  and  C_9
REMARK    5  A    between atoms: C_11  and  C_12
REMARK    6  A    between atoms: C_12  and  C_13
REMARK    7  A    between atoms: C_16  and  C_17
REMARK    8  A    between atoms: C_16  and  O_18
REMARK    9  A    between atoms: C_23  and  N_24
REMARK   10  A    between atoms: N_27  and  C_28
REMARK                            x       y       z     vdW  Elec       q    Type
REMARK                         _______ _______ _______ _____ _____    ______ ____
ROOT
ATOM      1  C   UNL     1       4.072   5.719  18.801  0.00  0.00    +0.000 A 
ATOM      2  C   UNL     1       2.980   6.613  18.896  0.00  0.00    +0.000 A 
ATOM      3  C   UNL     1       2.900   7.723  18.071  0.00  0.00    +0.000 A 
ATOM      4  C   UNL     1       3.993   7.971  17.247  0.00  0.00    +0.000 A 
ATOM      5  N   UNL     1       5.104   7.219  17.231  0.00  0.00    +0.000 NA
ATOM      6  C   UNL     1       5.147   6.082  17.979  0.00  0.00    +0.000 A 
ENDROOT
BRANCH   6   7
ATOM      7  N   UNL     1       6.304   5.292  17.867  0.00  0.00    +0.000 N 
ATOM      8  C   UNL     1       6.882   4.793  16.722  0.00  0.00    +0.000 C 
ATOM      9  O   UNL     1       7.899   4.106  16.794  0.00  0.00    +0.000 OA
ATOM     10  N   UNL     1       6.254   5.073  15.548  0.00  0.00    +0.000 N 
ATOM     11  C   UNL     1       6.634   4.581  14.251  0.00  0.00    +0.000 C 
ATOM     12  H   UNL     1       6.776   5.027  18.718  0.00  0.00    +0.000 HD
ATOM     13  H   UNL     1       5.543   5.798  15.606  0.00  0.00    +0.000 HD
ENDBRANCH   6   7
BRANCH   1  14
ATOM     14  O   UNL     1       4.011   4.513  19.488  0.00  0.00    +0.000 OA
BRANCH  14  19
ATOM     15  N   UNL     1       2.082   3.069  19.406  0.00  0.00    +0.000 N 
ATOM     16  N   UNL     1       1.517   2.110  18.635  0.00  0.00    +0.000 NA
ATOM     17  C   UNL     1       2.405   1.901  17.672  0.00  0.00    +0.000 A 
ATOM     18  C   UNL     1       3.541   2.705  17.822  0.00  0.00    +0.000 A 
ATOM     19  C   UNL     1       3.302   3.502  18.935  0.00  0.00    +0.000 A 
BRANCH  15  21
ATOM     20  C   UNL     1       1.589   2.782  21.803  0.00  0.00    +0.000 C 
ATOM     21  C   UNL     1       1.302   3.555  20.530  0.00  0.00    +0.000 C 
ENDBRANCH  15  21
ENDBRANCH  14  19
ENDBRANCH   1  14
BRANCH   3  22
ATOM     22  C   UNL     1       1.644   8.521  17.872  0.00  0.00    +0.000 C 
BRANCH  22  23
ATOM     23  C   UNL     1       1.284   9.676  18.832  0.00  0.00    +0.000 C 
ATOM     24  C   UNL     1       1.795  11.059  18.388  0.00  0.00    +0.000 C 
ATOM     25  C   UNL     1       1.236  12.182  19.274  0.00  0.00    +0.000 C 
ATOM     26  C   UNL     1      -0.298  12.179  19.349  0.00  0.00    +0.000 C 
ATOM     27  C   UNL     1      -0.927  12.580  18.010  0.00  0.00    +0.000 C 
ATOM     28  C   UNL     1      -0.784  10.806  19.827  0.00  0.00    +0.000 C 
ATOM     29  C   UNL     1      -0.251   9.669  18.968  0.00  0.00    +0.000 C 
BRANCH  26  30
ATOM     30  O   UNL     1      -0.722  13.161  20.298  0.00  0.00    +0.000 OA
ATOM     31  H   UNL     1      -1.540  12.847  20.721  0.00  0.00    +0.000 HD
ENDBRANCH  26  30
ENDBRANCH  22  23
ENDBRANCH   3  22
TORSDOF 7
ENDMDL
MODEL 2
REMARK VINA RESULT:      -7.6      1.947      4.535
REMARK  Name = 
REMARK  10 active torsions:
REMARK  status: ('A' for Active; 'I' for Inactive)
REMARK    1  A    between atoms: C_1  and  C_2
REMARK    2  A    between atoms: C_2  and  N_3
REMARK    3  A    between atoms: C_7  and  O_8
REMARK    4  A    between atoms: O_8  and  C_9
REMARK    5  A    between atoms: C_11  and  C_12
REMARK    6  A    between atoms: C_12  and  C_13
REMARK    7  A    between atoms: C_16  and  C_17
REMARK    8  A    between atoms: C_16  and  O_18
REMARK    9  A    between atoms: C_23  and  N_24
REMARK   10  A    between atoms: N_27  and  C_28
REMARK                            x       y       z     vdW  Elec       q    Type
REMARK                         _______ _______ _______ _____ _____    ______ ____
ROOT
ATOM      1  C   UNL     1       2.998   5.641  18.444  0.00  0.00    +0.000 A 
ATOM      2  C   UNL     1       2.639   6.863  19.059  0.00  0.00    +0.000 A 
ATOM      3  C   UNL     1       1.950   6.876  20.261  0.00  0.00    +0.000 A 
ATOM      4  C   UNL     1       1.530   5.644  20.755  0.00  0.00    +0.000 A 
ATOM      5  N   UNL     1       1.736   4.477  20.126  0.00  0.00    +0.000 NA
ATOM      6  C   UNL     1       2.486   4.456  18.990  0.00  0.00    +0.000 A 
ENDROOT
BRANCH   6   7
ATOM      7  N   UNL     1       2.733   3.199  18.415  0.00  0.00    +0.000 N 
ATOM      8  C   UNL     1       3.501   2.173  18.918  0.00  0.00    +0.000 C 
ATOM      9  O   UNL     1       3.624   1.127  18.284  0.00  0.00    +0.000 OA
ATOM     10  N   UNL     1       4.121   2.400  20.107  0.00  0.00    +0.000 N 
ATOM     11  C   UNL     1       5.034   1.505  20.765  0.00  0.00    +0.000 C 
ATOM     12  H   UNL     1       2.325   3.007  17.512  0.00  0.00    +0.000 HD
ATOM     13  H   UNL     1       3.789   3.217  20.614  0.00  0.00    +0.000 HD
ENDBRANCH   6   7
BRANCH   1  14
ATOM     14  O   UNL     1       3.867   5.667  17.361  0.00  0.00    +0.000 OA
BRANCH  14  19
ATOM     15  N   UNL     1       6.135   5.338  16.611  0.00  0.00    +0.000 N 
ATOM     16  N   UNL     1       7.400   5.256  17.085  0.00  0.00    +0.000 NA
ATOM     17  C   UNL     1       7.256   5.310  18.404  0.00  0.00    +0.000 A 
ATOM     18  C   UNL     1       5.913   5.413  18.782  0.00  0.00    +0.000 A 
ATOM     19  C   UNL     1       5.186   5.477  17.599  0.00  0.00    +0.000 A 
BRANCH  15  21
ATOM     20  C   UNL     1       6.038   3.973  14.561  0.00  0.00    +0.000 C 
ATOM     21  C   UNL     1       5.973   5.363  15.167  0.00  0.00    +0.000 C 
ENDBRANCH  15  21
ENDBRANCH  14  19
ENDBRANCH   1  14
BRANCH   3  22
ATOM     22  C   UNL     1       1.826   8.090  21.135  0.00  0.00    +0.000 C 
BRANCH  22  23
ATOM     23  C   UNL     1       0.491   8.859  21.231  0.00  0.00    +0.000 C 
ATOM     24  C   UNL     1       0.293   9.636  22.547  0.00  0.00    +0.000 C 
ATOM     25  C   UNL     1      -0.952  10.532  22.496  0.00  0.00    +0.000 C 
ATOM     26  C   UNL     1      -0.948  11.497  21.300  0.00  0.00    +0.000 C 
ATOM     27  C   UNL     1       0.130  12.575  21.454  0.00  0.00    +0.000 C 
ATOM     28  C   UNL     1      -0.788  10.701  20.000  0.00  0.00    +0.000 C 
ATOM     29  C   UNL     1       0.441   9.804  20.015  0.00  0.00    +0.000 C 
BRANCH  26  30
ATOM     30  O   UNL     1      -2.199  12.188  21.252  0.00  0.00    +0.000 OA
ATOM     31  H   UNL     1      -2.738  11.799  20.542  0.00  0.00    +0.000 HD
ENDBRANCH  26  30
ENDBRANCH  22  23
ENDBRANCH   3  22
TORSDOF 7
ENDMDL
MODEL 3
REMARK VINA RESULT:      -7.5      1.809      2.199
REMARK  Name = 
REMARK  10 active torsions:
REMARK  status: ('A' for Active; 'I' for Inactive)
REMARK    1  A    between atoms: C_1  and  C_2
REMARK    2  A    between atoms: C_2  and  N_3
REMARK    3  A    between atoms: C_7  and  O_8
REMARK    4  A    between atoms: O_8  and  C_9
REMARK    5  A    between atoms: C_11  and  C_12
REMARK    6  A    between atoms: C_12  and  C_13
REMARK    7  A    between atoms: C_16  and  C_17
REMARK    8  A    between atoms: C_16  and  O_18
REMARK    9  A    between atoms: C_23  and  N_24
REMARK   10  A    between atoms: N_27  and  C_28
REMARK                            x       y       z     vdW  Elec       q    Type
REMARK                         _______ _______ _______ _____ _____    ______ ____
ROOT
ATOM      1  C   UNL     1       3.793   5.865  18.942  0.00  0.00    +0.000 A 
ATOM      2  C   UNL     1       2.822   6.427  19.804  0.00  0.00    +0.000 A 
ATOM      3  C   UNL     1       2.131   7.572  19.442  0.00  0.00    +0.000 A 
ATOM      4  C   UNL     1       2.525   8.194  18.261  0.00  0.00    +0.000 A 
ATOM      5  N   UNL     1       3.534   7.763  17.490  0.00  0.00    +0.000 NA
ATOM      6  C   UNL     1       4.156   6.593  17.801  0.00  0.00    +0.000 A 
ENDROOT
BRANCH   6   7
ATOM      7  N   UNL     1       5.154   6.149  16.917  0.00  0.00    +0.000 N 
ATOM      8  C   UNL     1       6.453   6.593  16.814  0.00  0.00    +0.000 C 
ATOM      9  O   UNL     1       7.208   6.103  15.977  0.00  0.00    +0.000 OA
ATOM     10  N   UNL     1       6.823   7.600  17.651  0.00  0.00    +0.000 N 
ATOM     11  C   UNL     1       8.096   8.269  17.652  0.00  0.00    +0.000 C 
ATOM     12  H   UNL     1       4.908   5.432  16.252  0.00  0.00    +0.000 HD
ATOM     13  H   UNL     1       6.175   7.782  18.414  0.00  0.00    +0.000 HD
ENDBRANCH   6   7
BRANCH   1  14
ATOM     14  O   UNL     1       4.305   4.610  19.241  0.00  0.00    +0.000 OA
BRANCH  14  19
ATOM     15  N   UNL     1       2.868   2.746  19.766  0.00  0.00    +0.000 N 
ATOM     16  N   UNL     1       2.143   1.774  19.165  0.00  0.00    +0.000 NA
ATOM     17  C   UNL     1       2.423   1.910  17.875  0.00  0.00    +0.000 A 
ATOM     18  C   UNL     1       3.330   2.951  17.641  0.00  0.00    +0.000 A 
ATOM     19  C   UNL     1       3.582   3.524  18.881  0.00  0.00    +0.000 A 
BRANCH  15  21
ATOM     20  C   UNL     1       1.298   2.611  21.660  0.00  0.00    +0.000 C 
ATOM     21  C   UNL     1       2.719   2.885  21.204  0.00  0.00    +0.000 C 
ENDBRANCH  15  21
ENDBRANCH  14  19
ENDBRANCH   1  14
BRANCH   3  22
ATOM     22  C   UNL     1       0.876   8.036  20.124  0.00  0.00    +0.000 C 
BRANCH  22  23
ATOM     23  C   UNL     1       0.890   9.282  21.036  0.00  0.00    +0.000 C 
ATOM     24  C   UNL     1       0.816  10.625  20.285  0.00  0.00    +0.000 C 
ATOM     25  C   UNL     1       0.632  11.805  21.250  0.00  0.00    +0.000 C 
ATOM     26  C   UNL     1      -0.583  11.641  22.174  0.00  0.00    +0.000 C 
ATOM     27  C   UNL     1      -1.899  11.748  21.395  0.00  0.00    +0.000 C 
ATOM     28  C   UNL     1      -0.471  10.317  22.938  0.00  0.00    +0.000 C 
ATOM     29  C   UNL     1      -0.292   9.124  22.011  0.00  0.00    +0.000 C 
BRANCH  26  30
ATOM     30  O   UNL     1      -0.596  12.709  23.125  0.00  0.00    +0.000 OA
ATOM     31  H   UNL     1      -1.521  12.909  23.351  0.00  0.00    +0.000 HD
ENDBRANCH  26  30
ENDBRANCH  22  23
ENDBRANCH   3  22
TORSDOF 7
ENDMDL
MODEL 4
REMARK VINA RESULT:      -7.4      0.881      1.208
REMARK  Name = 
REMARK  10 active torsions:
REMARK  status: ('A' for Active; 'I' for Inactive)
REMARK    1  A    between atoms: C_1  and  C_2
REMARK    2  A    between atoms: C_2  and  N_3
REMARK    3  A    between atoms: C_7  and  O_8
REMARK    4  A    between atoms: O_8  and  C_9
REMARK    5  A    between atoms: C_11  and  C_12
REMARK    6  A    between atoms: C_12  and  C_13
REMARK    7  A    between atoms: C_16  and  C_17
REMARK    8  A    between atoms: C_16  and  O_18
REMARK    9  A    between atoms: C_23  and  N_24
REMARK   10  A    between atoms: N_27  and  C_28
REMARK                            x       y       z     vdW  Elec       q    Type
REMARK                         _______ _______ _______ _____ _____    ______ ____
ROOT
ATOM      1  C   UNL     1       4.050   5.682  18.852  0.00  0.00    +0.000 A 
ATOM      2  C   UNL     1       2.943   6.562  18.875  0.00  0.00    +0.000 A 
ATOM      3  C   UNL     1       2.901   7.669  18.042  0.00  0.00    +0.000 A 
ATOM      4  C   UNL     1       4.041   7.928  17.287  0.00  0.00    +0.000 A 
ATOM      5  N   UNL     1       5.159   7.190  17.345  0.00  0.00    +0.000 NA
ATOM      6  C   UNL     1       5.170   6.056  18.098  0.00  0.00    +0.000 A 
ENDROOT
BRANCH   6   7
ATOM      7  N   UNL     1       6.341   5.281  18.062  0.00  0.00    +0.000 N 
ATOM      8  C   UNL     1       7.031   4.838  16.956  0.00  0.00    +0.000 C 
ATOM      9  O   UNL     1       8.044   4.156  17.094  0.00  0.00    +0.000 OA
ATOM     10  N   UNL     1       6.514   5.166  15.741  0.00  0.00    +0.000 N 
ATOM     11  C   UNL     1       7.021   4.736  14.466  0.00  0.00    +0.000 C 
ATOM     12  H   UNL     1       6.733   4.981  18.942  0.00  0.00    +0.000 HD
ATOM     13  H   UNL     1       5.792   5.883  15.763  0.00  0.00    +0.000 HD
ENDBRANCH   6   7
BRANCH   1  14
ATOM     14  O   UNL     1       3.961   4.478  19.538  0.00  0.00    +0.000 OA
BRANCH  14  19
ATOM     15  N   UNL     1       2.041   3.023  19.434  0.00  0.00    +0.000 N 
ATOM     16  N   UNL     1       1.480   2.075  18.648  0.00  0.00    +0.000 NA
ATOM     17  C   UNL     1       2.368   1.888  17.679  0.00  0.00    +0.000 A 
ATOM     18  C   UNL     1       3.499   2.697  17.841  0.00  0.00    +0.000 A 
ATOM     19  C   UNL     1       3.257   3.472  18.969  0.00  0.00    +0.000 A 
BRANCH  15  21
ATOM     20  C   UNL     1       1.607   2.740  21.843  0.00  0.00    +0.000 C 
ATOM     21  C   UNL     1       1.259   3.485  20.568  0.00  0.00    +0.000 C 
ENDBRANCH  15  21
ENDBRANCH  14  19
ENDBRANCH   1  14
BRANCH   3  22
ATOM     22  C   UNL     1       1.650   8.451  17.762  0.00  0.00    +0.000 C 
BRANCH  22  23
ATOM     23  C   UNL     1       0.716   8.882  18.912  0.00  0.00    +0.000 C 
ATOM     24  C   UNL     1       1.420   9.078  20.268  0.00  0.00    +0.000 C 
ATOM     25  C   UNL     1       0.479   9.696  21.313  0.00  0.00    +0.000 C 
ATOM     26  C   UNL     1      -0.156  11.014  20.843  0.00  0.00    +0.000 C 
ATOM     27  C   UNL     1       0.884  12.135  20.750  0.00  0.00    +0.000 C 
ATOM     28  C   UNL     1      -0.882  10.788  19.512  0.00  0.00    +0.000 C 
ATOM     29  C   UNL     1       0.024  10.179  18.452  0.00  0.00    +0.000 C 
BRANCH  26  30
ATOM     30  O   UNL     1      -1.117  11.442  21.812  0.00  0.00    +0.000 OA
ATOM     31  H   UNL     1      -1.994  11.451  21.391  0.00  0.00    +0.000 HD
ENDBRANCH  26  30
ENDBRANCH  22  23
ENDBRANCH   3  22
TORSDOF 7
ENDMDL
MODEL 5
REMARK VINA RESULT:      -7.4      0.593      1.579
REMARK  Name = 
REMARK  10 active torsions:
REMARK  status: ('A' for Active; 'I' for Inactive)
REMARK    1  A    between atoms: C_1  and  C_2
REMARK    2  A    between atoms: C_2  and  N_3
REMARK    3  A    between atoms: C_7  and  O_8
REMARK    4  A    between atoms: O_8  and  C_9
REMARK    5  A    between atoms: C_11  and  C_12
REMARK    6  A    between atoms: C_12  and  C_13
REMARK    7  A    between atoms: C_16  and  C_17
REMARK    8  A    between atoms: C_16  and  O_18
REMARK    9  A    between atoms: C_23  and  N_24
REMARK   10  A    between atoms: N_27  and  C_28
REMARK                            x       y       z     vdW  Elec       q    Type
REMARK                         _______ _______ _______ _____ _____    ______ ____
ROOT
ATOM      1  C   UNL     1       4.208   5.574  19.062  0.00  0.00    +0.000 A 
ATOM      2  C   UNL     1       3.085   6.424  19.195  0.00  0.00    +0.000 A 
ATOM      3  C   UNL     1       2.887   7.479  18.319  0.00  0.00    +0.000 A 
ATOM      4  C   UNL     1       3.900   7.725  17.396  0.00  0.00    +0.000 A 
ATOM      5  N   UNL     1       5.041   7.022  17.333  0.00  0.00    +0.000 NA
ATOM      6  C   UNL     1       5.197   5.934  18.136  0.00  0.00    +0.000 A 
ENDROOT
BRANCH   6   7
ATOM      7  N   UNL     1       6.377   5.190  17.976  0.00  0.00    +0.000 N 
ATOM      8  C   UNL     1       6.951   4.754  16.803  0.00  0.00    +0.000 C 
ATOM      9  O   UNL     1       7.992   4.101  16.831  0.00  0.00    +0.000 OA
ATOM     10  N   UNL     1       6.293   5.056  15.651  0.00  0.00    +0.000 N 
ATOM     11  C   UNL     1       6.667   4.626  14.330  0.00  0.00    +0.000 C 
ATOM     12  H   UNL     1       6.873   4.909  18.808  0.00  0.00    +0.000 HD
ATOM     13  H   UNL     1       5.559   5.754  15.748  0.00  0.00    +0.000 HD
ENDBRANCH   6   7
BRANCH   1  14
ATOM     14  O   UNL     1       4.258   4.410  19.817  0.00  0.00    +0.000 OA
BRANCH  14  19
ATOM     15  N   UNL     1       2.459   2.861  19.394  0.00  0.00    +0.000 N 
ATOM     16  N   UNL     1       1.354   2.346  19.982  0.00  0.00    +0.000 NA
ATOM     17  C   UNL     1       1.253   3.010  21.126  0.00  0.00    +0.000 A 
ATOM     18  C   UNL     1       2.275   3.956  21.275  0.00  0.00    +0.000 A 
ATOM     19  C   UNL     1       3.088   3.821  20.157  0.00  0.00    +0.000 A 
BRANCH  15  21
ATOM     20  C   UNL     1       2.635   3.224  16.963  0.00  0.00    +0.000 C 
ATOM     21  C   UNL     1       2.864   2.278  18.127  0.00  0.00    +0.000 C 
ENDBRANCH  15  21
ENDBRANCH  14  19
ENDBRANCH   1  14
BRANCH   3  22
ATOM     22  C   UNL     1       1.583   8.209  18.178  0.00  0.00    +0.000 C 
BRANCH  22  23
ATOM     23  C   UNL     1       1.316   9.506  18.973  0.00  0.00    +0.000 C 
ATOM     24  C   UNL     1       1.651  10.803  18.212  0.00  0.00    +0.000 C 
ATOM     25  C   UNL     1       1.178  12.047  18.976  0.00  0.00    +0.000 C 
ATOM     26  C   UNL     1      -0.317  12.004  19.326  0.00  0.00    +0.000 C 
ATOM     27  C   UNL     1      -1.191  12.133  18.073  0.00  0.00    +0.000 C 
ATOM     28  C   UNL     1      -0.622  10.725  20.114  0.00  0.00    +0.000 C 
ATOM     29  C   UNL     1      -0.169   9.470  19.382  0.00  0.00    +0.000 C 
BRANCH  26  30
ATOM     30  O   UNL     1      -0.638  13.127  20.152  0.00  0.00    +0.000 OA
ATOM     31  H   UNL     1      -0.249  12.982  21.032  0.00  0.00    +0.000 HD
ENDBRANCH  26  30
ENDBRANCH  22  23
ENDBRANCH   3  22
TORSDOF 7
ENDMDL
MODEL 6
REMARK VINA RESULT:      -7.4      1.838      4.423
REMARK  Name = 
REMARK  10 active torsions:
REMARK  status: ('A' for Active; 'I' for Inactive)
REMARK    1  A    between atoms: C_1  and  C_2
REMARK    2  A    between atoms: C_2  and  N_3
REMARK    3  A    between atoms: C_7  and  O_8
REMARK    4  A    between atoms: O_8  and  C_9
REMARK    5  A    between atoms: C_11  and  C_12
REMARK    6  A    between atoms: C_12  and  C_13
REMARK    7  A    between atoms: C_16  and  C_17
REMARK    8  A    between atoms: C_16  and  O_18
REMARK    9  A    between atoms: C_23  and  N_24
REMARK   10  A    between atoms: N_27  and  C_28
REMARK                            x       y       z     vdW  Elec       q    Type
REMARK                         _______ _______ _______ _____ _____    ______ ____
ROOT
ATOM      1  C   UNL     1       3.245   6.415  17.984  0.00  0.00    +0.000 A 
ATOM      2  C   UNL     1       2.630   7.667  18.221  0.00  0.00    +0.000 A 
ATOM      3  C   UNL     1       2.024   7.939  19.437  0.00  0.00    +0.000 A 
ATOM      4  C   UNL     1       1.948   6.890  20.348  0.00  0.00    +0.000 A 
ATOM      5  N   UNL     1       2.400   5.652  20.101  0.00  0.00    +0.000 NA
ATOM      6  C   UNL     1       3.071   5.407  18.941  0.00  0.00    +0.000 A 
ENDROOT
BRANCH   6   7
ATOM      7  N   UNL     1       3.589   4.113  18.768  0.00  0.00    +0.000 N 
ATOM      8  C   UNL     1       2.894   2.930  18.659  0.00  0.00    +0.000 C 
ATOM      9  O   UNL     1       3.500   1.870  18.516  0.00  0.00    +0.000 OA
ATOM     10  N   UNL     1       1.539   3.006  18.749  0.00  0.00    +0.000 N 
ATOM     11  C   UNL     1       0.631   1.891  18.749  0.00  0.00    +0.000 C 
ATOM     12  H   UNL     1       4.592   4.008  18.738  0.00  0.00    +0.000 HD
ATOM     13  H   UNL     1       1.157   3.946  18.674  0.00  0.00    +0.000 HD
ENDBRANCH   6   7
BRANCH   1  14
ATOM     14  O   UNL     1       4.023   6.258  16.844  0.00  0.00    +0.000 OA
BRANCH  14  19
ATOM     15  N   UNL     1       6.178   5.216  16.559  0.00  0.00    +0.000 N 
ATOM     16  N   UNL     1       7.499   5.467  16.722  0.00  0.00    +0.000 NA
ATOM     17  C   UNL     1       7.534   6.664  17.295  0.00  0.00    +0.000 A 
ATOM     18  C   UNL     1       6.252   7.179  17.515  0.00  0.00    +0.000 A 
ATOM     19  C   UNL     1       5.368   6.244  16.988  0.00  0.00    +0.000 A 
BRANCH  15  21
ATOM     20  C   UNL     1       6.270   3.961  14.441  0.00  0.00    +0.000 C 
ATOM     21  C   UNL     1       5.821   3.978  15.890  0.00  0.00    +0.000 C 
ENDBRANCH  15  21
ENDBRANCH  14  19
ENDBRANCH   1  14
BRANCH   3  22
ATOM     22  C   UNL     1       1.652   9.322  19.888  0.00  0.00    +0.000 C 
BRANCH  22  23
ATOM     23  C   UNL     1       0.200   9.830  19.756  0.00  0.00    +0.000 C 
ATOM     24  C   UNL     1      -0.100  11.121  20.541  0.00  0.00    +0.000 C 
ATOM     25  C   UNL     1      -1.492  11.678  20.208  0.00  0.00    +0.000 C 
ATOM     26  C   UNL     1      -1.702  11.906  18.704  0.00  0.00    +0.000 C 
ATOM     27  C   UNL     1      -0.840  13.062  18.186  0.00  0.00    +0.000 C 
ATOM     28  C   UNL     1      -1.434  10.601  17.945  0.00  0.00    +0.000 C 
ATOM     29  C   UNL     1      -0.060  10.023  18.250  0.00  0.00    +0.000 C 
BRANCH  26  30
ATOM     30  O   UNL     1      -3.061  12.288  18.474  0.00  0.00    +0.000 OA
ATOM     31  H   UNL     1      -3.641  11.650  18.924  0.00  0.00    +0.000 HD
ENDBRANCH  26  30
ENDBRANCH  22  23
ENDBRANCH   3  22
TORSDOF 7
ENDMDL
MODEL 7
REMARK VINA RESULT:      -7.3      1.609      4.457
REMARK  Name = 
REMARK  10 active torsions:
REMARK  status: ('A' for Active; 'I' for Inactive)
REMARK    1  A    between atoms: C_1  and  C_2
REMARK    2  A    between atoms: C_2  and  N_3
REMARK    3  A    between atoms: C_7  and  O_8
REMARK    4  A    between atoms: O_8  and  C_9
REMARK    5  A    between atoms: C_11  and  C_12
REMARK    6  A    between atoms: C_12  and  C_13
REMARK    7  A    between atoms: C_16  and  C_17
REMARK    8  A    between atoms: C_16  and  O_18
REMARK    9  A    between atoms: C_23  and  N_24
REMARK   10  A    between atoms: N_27  and  C_28
REMARK                            x       y       z     vdW  Elec       q    Type
REMARK                         _______ _______ _______ _____ _____    ______ ____
ROOT
ATOM      1  C   UNL     1       3.934   5.674  17.908  0.00  0.00    +0.000 A 
ATOM      2  C   UNL     1       3.710   7.063  17.760  0.00  0.00    +0.000 A 
ATOM      3  C   UNL     1       2.438   7.595  17.900  0.00  0.00    +0.000 A 
ATOM      4  C   UNL     1       1.396   6.688  18.069  0.00  0.00    +0.000 A 
ATOM      5  N   UNL     1       1.557   5.357  18.077  0.00  0.00    +0.000 NA
ATOM      6  C   UNL     1       2.815   4.838  18.024  0.00  0.00    +0.000 A 
ENDROOT
BRANCH   6   7
ATOM      7  N   UNL     1       2.931   3.441  18.112  0.00  0.00    +0.000 N 
ATOM      8  C   UNL     1       2.606   2.629  19.175  0.00  0.00    +0.000 C 
ATOM      9  O   UNL     1       2.774   1.414  19.097  0.00  0.00    +0.000 OA
ATOM     10  N   UNL     1       2.133   3.245  20.293  0.00  0.00    +0.000 N 
ATOM     11  C   UNL     1       1.818   2.601  21.539  0.00  0.00    +0.000 C 
ATOM     12  H   UNL     1       3.317   2.950  17.320  0.00  0.00    +0.000 HD
ATOM     13  H   UNL     1       1.864   4.218  20.163  0.00  0.00    +0.000 HD
ENDBRANCH   6   7
BRANCH   1  14
ATOM     14  O   UNL     1       5.241   5.211  17.974  0.00  0.00    +0.000 OA
BRANCH  14  19
ATOM     15  N   UNL     1       6.977   5.996  16.496  0.00  0.00    +0.000 N 
ATOM     16  N   UNL     1       7.603   5.671  15.341  0.00  0.00    +0.000 NA
ATOM     17  C   UNL     1       6.944   4.606  14.903  0.00  0.00    +0.000 A 
ATOM     18  C   UNL     1       5.894   4.250  15.756  0.00  0.00    +0.000 A 
ATOM     19  C   UNL     1       5.950   5.139  16.823  0.00  0.00    +0.000 A 
BRANCH  15  21
ATOM     20  C   UNL     1       8.023   6.687  18.618  0.00  0.00    +0.000 C 
ATOM     21  C   UNL     1       7.523   7.112  17.250  0.00  0.00    +0.000 C 
ENDBRANCH  15  21
ENDBRANCH  14  19
ENDBRANCH   1  14
BRANCH   3  22
ATOM     22  C   UNL     1       2.166   9.059  18.090  0.00  0.00    +0.000 C 
BRANCH  22  23
ATOM     23  C   UNL     1       0.894   9.535  18.825  0.00  0.00    +0.000 C 
ATOM     24  C   UNL     1       1.106  10.750  19.748  0.00  0.00    +0.000 C 
ATOM     25  C   UNL     1      -0.226  11.292  20.287  0.00  0.00    +0.000 C 
ATOM     26  C   UNL     1      -1.228  11.634  19.175  0.00  0.00    +0.000 C 
ATOM     27  C   UNL     1      -0.772  12.852  18.364  0.00  0.00    +0.000 C 
ATOM     28  C   UNL     1      -1.452  10.402  18.290  0.00  0.00    +0.000 C 
ATOM     29  C   UNL     1      -0.152   9.841  17.735  0.00  0.00    +0.000 C 
BRANCH  26  30
ATOM     30  O   UNL     1      -2.479  11.995  19.766  0.00  0.00    +0.000 OA
ATOM     31  H   UNL     1      -2.525  11.600  20.654  0.00  0.00    +0.000 HD
ENDBRANCH  26  30
ENDBRANCH  22  23
ENDBRANCH   3  22
TORSDOF 7
ENDMDL
MODEL 8
REMARK VINA RESULT:      -7.3      1.513      2.508
REMARK  Name = 
REMARK  10 active torsions:
REMARK  status: ('A' for Active; 'I' for Inactive)
REMARK    1  A    between atoms: C_1  and  C_2
REMARK    2  A    between atoms: C_2  and  N_3
REMARK    3  A    between atoms: C_7  and  O_8
REMARK    4  A    between atoms: O_8  and  C_9
REMARK    5  A    between atoms: C_11  and  C_12
REMARK    6  A    between atoms: C_12  and  C_13
REMARK    7  A    between atoms: C_16  and  C_17
REMARK    8  A    between atoms: C_16  and  O_18
REMARK    9  A    between atoms: C_23  and  N_24
REMARK   10  A    between atoms: N_27  and  C_28
REMARK                            x       y       z     vdW  Elec       q    Type
REMARK                         _______ _______ _______ _____ _____    ______ ____
ROOT
ATOM      1  C   UNL     1       3.229   6.305  19.211  0.00  0.00    +0.000 A 
ATOM      2  C   UNL     1       2.369   7.152  19.949  0.00  0.00    +0.000 A 
ATOM      3  C   UNL     1       1.817   8.282  19.366  0.00  0.00    +0.000 A 
ATOM      4  C   UNL     1       2.246   8.597  18.080  0.00  0.00    +0.000 A 
ATOM      5  N   UNL     1       3.164   7.890  17.405  0.00  0.00    +0.000 NA
ATOM      6  C   UNL     1       3.642   6.734  17.942  0.00  0.00    +0.000 A 
ENDROOT
BRANCH   6   7
ATOM      7  N   UNL     1       4.544   5.995  17.159  0.00  0.00    +0.000 N 
ATOM      8  C   UNL     1       5.885   6.232  16.960  0.00  0.00    +0.000 C 
ATOM      9  O   UNL     1       6.541   5.489  16.233  0.00  0.00    +0.000 OA
ATOM     10  N   UNL     1       6.410   7.326  17.574  0.00  0.00    +0.000 N 
ATOM     11  C   UNL     1       7.759   7.806  17.432  0.00  0.00    +0.000 C 
ATOM     12  H   UNL     1       4.185   5.199  16.654  0.00  0.00    +0.000 HD
ATOM     13  H   UNL     1       5.818   7.741  18.289  0.00  0.00    +0.000 HD
ENDBRANCH   6   7
BRANCH   1  14
ATOM     14  O   UNL     1       3.588   5.079  19.755  0.00  0.00    +0.000 OA
BRANCH  14  19
ATOM     15  N   UNL     1       1.676   3.657  19.388  0.00  0.00    +0.000 N 
ATOM     16  N   UNL     1       0.847   2.816  20.049  0.00  0.00    +0.000 NA
ATOM     17  C   UNL     1       1.226   2.916  21.317  0.00  0.00    +0.000 A 
ATOM     18  C   UNL     1       2.281   3.821  21.480  0.00  0.00    +0.000 A 
ATOM     19  C   UNL     1       2.601   4.269  20.204  0.00  0.00    +0.000 A 
BRANCH  15  21
ATOM     20  C   UNL     1       2.615   2.924  17.230  0.00  0.00    +0.000 C 
ATOM     21  C   UNL     1       1.537   3.718  17.943  0.00  0.00    +0.000 C 
ENDBRANCH  15  21
ENDBRANCH  14  19
ENDBRANCH   1  14
BRANCH   3  22
ATOM     22  C   UNL     1       0.657   9.035  19.951  0.00  0.00    +0.000 C 
BRANCH  22  23
ATOM     23  C   UNL     1       0.341  10.475  19.492  0.00  0.00    +0.000 C 
ATOM     24  C   UNL     1      -1.019  10.637  18.786  0.00  0.00    +0.000 C 
ATOM     25  C   UNL     1      -1.357  12.114  18.537  0.00  0.00    +0.000 C 
ATOM     26  C   UNL     1      -1.314  12.963  19.817  0.00  0.00    +0.000 C 
ATOM     27  C   UNL     1      -2.459  12.601  20.769  0.00  0.00    +0.000 C 
ATOM     28  C   UNL     1       0.059  12.816  20.484  0.00  0.00    +0.000 C 
ATOM     29  C   UNL     1       0.424  11.363  20.748  0.00  0.00    +0.000 C 
BRANCH  26  30
ATOM     30  O   UNL     1      -1.501  14.338  19.474  0.00  0.00    +0.000 OA
ATOM     31  H   UNL     1      -1.995  14.770  20.191  0.00  0.00    +0.000 HD
ENDBRANCH  26  30
ENDBRANCH  22  23
ENDBRANCH   3  22
TORSDOF 7
ENDMDL
MODEL 9
REMARK VINA RESULT:      -7.3      0.637      1.082
REMARK  Name = 
REMARK  10 active torsions:
REMARK  status: ('A' for Active; 'I' for Inactive)
REMARK    1  A    between atoms: C_1  and  C_2
REMARK    2  A    between atoms: C_2  and  N_3
REMARK    3  A    between atoms: C_7  and  O_8
REMARK    4  A    between atoms: O_8  and  C_9
REMARK    5  A    between atoms: C_11  and  C_12
REMARK    6  A    between atoms: C_12  and  C_13
REMARK    7  A    between atoms: C_16  and  C_17
REMARK    8  A    between atoms: C_16  and  O_18
REMARK    9  A    between atoms: C_23  and  N_24
REMARK   10  A    between atoms: N_27  and  C_28
REMARK                            x       y       z     vdW  Elec       q    Type
REMARK                         _______ _______ _______ _____ _____    ______ ____
ROOT
ATOM      1  C   UNL     1       3.959   5.751  18.883  0.00  0.00    +0.000 A 
ATOM      2  C   UNL     1       2.762   6.502  18.961  0.00  0.00    +0.000 A 
ATOM      3  C   UNL     1       2.548   7.583  18.120  0.00  0.00    +0.000 A 
ATOM      4  C   UNL     1       3.606   7.956  17.297  0.00  0.00    +0.000 A 
ATOM      5  N   UNL     1       4.803   7.349  17.297  0.00  0.00    +0.000 NA
ATOM      6  C   UNL     1       4.984   6.236  18.061  0.00  0.00    +0.000 A 
ENDROOT
BRANCH   6   7
ATOM      7  N   UNL     1       6.231   5.597  17.965  0.00  0.00    +0.000 N 
ATOM      8  C   UNL     1       6.740   4.887  16.901  0.00  0.00    +0.000 C 
ATOM      9  O   UNL     1       7.856   4.377  16.977  0.00  0.00    +0.000 OA
ATOM     10  N   UNL     1       5.938   4.763  15.809  0.00  0.00    +0.000 N 
ATOM     11  C   UNL     1       6.234   3.994  14.630  0.00  0.00    +0.000 C 
ATOM     12  H   UNL     1       6.840   5.630  18.769  0.00  0.00    +0.000 HD
ATOM     13  H   UNL     1       5.131   5.382  15.799  0.00  0.00    +0.000 HD
ENDBRANCH   6   7
BRANCH   1  14
ATOM     14  O   UNL     1       4.045   4.557  19.586  0.00  0.00    +0.000 OA
BRANCH  14  19
ATOM     15  N   UNL     1       2.220   2.982  19.538  0.00  0.00    +0.000 N 
ATOM     16  N   UNL     1       1.742   1.946  18.809  0.00  0.00    +0.000 NA
ATOM     17  C   UNL     1       2.669   1.747  17.881  0.00  0.00    +0.000 A 
ATOM     18  C   UNL     1       3.744   2.633  18.012  0.00  0.00    +0.000 A 
ATOM     19  C   UNL     1       3.421   3.471  19.074  0.00  0.00    +0.000 A 
BRANCH  15  21
ATOM     20  C   UNL     1       1.579   2.694  21.900  0.00  0.00    +0.000 C 
ATOM     21  C   UNL     1       1.378   3.474  20.614  0.00  0.00    +0.000 C 
ENDBRANCH  15  21
ENDBRANCH  14  19
ENDBRANCH   1  14
BRANCH   3  22
ATOM     22  C   UNL     1       1.203   8.214  17.905  0.00  0.00    +0.000 C 
BRANCH  22  23
ATOM     23  C   UNL     1       0.980   9.714  18.198  0.00  0.00    +0.000 C 
ATOM     24  C   UNL     1      -0.469  10.196  17.997  0.00  0.00    +0.000 C 
ATOM     25  C   UNL     1      -0.662  11.636  18.494  0.00  0.00    +0.000 C 
ATOM     26  C   UNL     1      -0.232  11.829  19.956  0.00  0.00    +0.000 C 
ATOM     27  C   UNL     1      -1.177  11.103  20.919  0.00  0.00    +0.000 C 
ATOM     28  C   UNL     1       1.223  11.377  20.126  0.00  0.00    +0.000 C 
ATOM     29  C   UNL     1       1.449   9.951  19.646  0.00  0.00    +0.000 C 
BRANCH  26  30
ATOM     30  O   UNL     1      -0.313  13.217  20.289  0.00  0.00    +0.000 OA
ATOM     31  H   UNL     1      -0.840  13.309  21.101  0.00  0.00    +0.000 HD
ENDBRANCH  26  30
ENDBRANCH  22  23
ENDBRANCH   3  22
TORSDOF 7
ENDMDL
