MODEL 1
REMARK VINA RESULT:      -6.8      0.000      0.000
REMARK  Name = 
REMARK  21 active torsions:
REMARK  status: ('A' for Active; 'I' for Inactive)
REMARK    1  A    between atoms: C_1  and  C_2
REMARK    2  A    between atoms: C_2  and  C_3
REMARK    3  A    between atoms: C_3  and  O_4
REMARK    4  A    between atoms: O_4  and  C_5
REMARK    5  A    between atoms: C_5  and  C_6
REMARK    6  A    between atoms: C_6  and  O_7
REMARK    7  A    between atoms: C_6  and  C_8
REMARK    8  A    between atoms: C_8  and  C_9
REMARK    9  A    between atoms: C_8  and  N_13
REMARK   10  A    between atoms: C_9  and  C_10
REMARK   11  A    between atoms: C_10  and  C_11
REMARK   12  A    between atoms: C_10  and  C_12
REMARK   13  A    between atoms: C_14  and  C_16
REMARK   14  A    between atoms: C_16  and  C_17
REMARK   15  A    between atoms: C_16  and  N_21
REMARK   16  A    between atoms: C_17  and  C_18
REMARK   17  A    between atoms: C_18  and  C_19
REMARK   18  A    between atoms: C_18  and  C_20
REMARK   19  A    between atoms: C_22  and  O_24
REMARK   20  A    between atoms: O_24  and  C_25
REMARK   21  A    between atoms: C_25  and  C_26
REMARK                            x       y       z     vdW  Elec       q    Type
REMARK                         _______ _______ _______ _____ _____    ______ ____
ROOT
ATOM      1  N   UNL     1       5.004   5.419  18.402  0.00  0.00    +0.000 N 
ATOM      2  C   UNL     1       3.998   4.834  19.129  0.00  0.00    +0.000 C 
ATOM      3  O   UNL     1       4.225   3.983  19.994  0.00  0.00    +0.000 OA
ATOM      4  H   UNL     1       4.758   6.054  17.651  0.00  0.00    +0.000 HD
ENDROOT
BRANCH   1   5
ATOM      5  C   UNL     1       6.419   4.992  18.475  0.00  0.00    +0.000 C 
BRANCH   5   6
ATOM      6  C   UNL     1       6.911   4.469  17.102  0.00  0.00    +0.000 C 
BRANCH   6   7
ATOM      7  C   UNL     1       5.967   4.744  15.910  0.00  0.00    +0.000 C 
ATOM      8  C   UNL     1       6.728   4.954  14.600  0.00  0.00    +0.000 C 
ATOM      9  C   UNL     1       4.962   3.600  15.751  0.00  0.00    +0.000 C 
ENDBRANCH   6   7
ENDBRANCH   5   6
BRANCH   5  10
ATOM     10  C   UNL     1       7.368   6.065  19.101  0.00  0.00    +0.000 C 
BRANCH  10  11
ATOM     11  O   UNL     1       8.457   5.513  19.844  0.00  0.00    +0.000 OA
ATOM     12  H   UNL     1       8.270   4.562  19.999  0.00  0.00    +0.000 HD
ENDBRANCH  10  11
BRANCH  10  13
ATOM     13  C   UNL     1       7.923   7.063  18.081  0.00  0.00    +0.000 C 
BRANCH  13  14
ATOM     14  O   UNL     1       8.648   8.107  18.735  0.00  0.00    +0.000 OA
BRANCH  14  15
ATOM     15  C   UNL     1       8.348   9.368  18.139  0.00  0.00    +0.000 C 
BRANCH  15  17
ATOM     16  C   UNL     1      10.084  11.166  17.984  0.00  0.00    +0.000 C 
ATOM     17  C   UNL     1       9.082  10.471  18.889  0.00  0.00    +0.000 C 
ENDBRANCH  15  17
ENDBRANCH  14  15
ENDBRANCH  13  14
ENDBRANCH  10  13
ENDBRANCH   5  10
ENDBRANCH   1   5
BRANCH   2  18
ATOM     18  C   UNL     1       2.556   5.218  18.773  0.00  0.00    +0.000 C 
BRANCH  18  19
ATOM     19  N   UNL     1       2.654   6.588  18.307  0.00  0.00    +0.000 N 
ATOM     20  C   UNL     1       2.318   7.698  18.992  0.00  0.00    +0.000 C 
ATOM     21  O   UNL     1       1.872   7.714  20.131  0.00  0.00    +0.000 OA
ATOM     22  H   UNL     1       3.088   6.745  17.399  0.00  0.00    +0.000 HD
BRANCH  20  23
ATOM     23  O   UNL     1       2.575   8.767  18.213  0.00  0.00    +0.000 OA
BRANCH  23  24
ATOM     24  C   UNL     1       1.467   9.600  17.856  0.00  0.00    +0.000 C 
BRANCH  24  25
ATOM     25  C   UNL     1       1.625  10.899  18.603  0.00  0.00    +0.000 A 
ATOM     26  C   UNL     1       0.945  11.127  19.806  0.00  0.00    +0.000 A 
ATOM     27  C   UNL     1       1.046  12.361  20.453  0.00  0.00    +0.000 A 
ATOM     28  C   UNL     1       1.821  13.379  19.899  0.00  0.00    +0.000 A 
ATOM     29  C   UNL     1       2.501  13.163  18.702  0.00  0.00    +0.000 A 
ATOM     30  C   UNL     1       2.402  11.931  18.054  0.00  0.00    +0.000 A 
ENDBRANCH  24  25
ENDBRANCH  23  24
ENDBRANCH  20  23
ENDBRANCH  18  19
BRANCH  18  31
ATOM     31  C   UNL     1       1.910   4.266  17.757  0.00  0.00    +0.000 C 
BRANCH  31  32
ATOM     32  C   UNL     1       1.278   2.966  18.314  0.00  0.00    +0.000 C 
ATOM     33  C   UNL     1       2.261   1.799  18.151  0.00  0.00    +0.000 C 
ATOM     34  C   UNL     1       0.872   3.059  19.786  0.00  0.00    +0.000 C 
ENDBRANCH  31  32
ENDBRANCH  18  31
ENDBRANCH   2  18
TORSDOF 16
ENDMDL
MODEL 2
REMARK VINA RESULT:      -6.7      1.494      2.191
REMARK  Name = 
REMARK  21 active torsions:
REMARK  status: ('A' for Active; 'I' for Inactive)
REMARK    1  A    between atoms: C_1  and  C_2
REMARK    2  A    between atoms: C_2  and  C_3
REMARK    3  A    between atoms: C_3  and  O_4
REMARK    4  A    between atoms: O_4  and  C_5
REMARK    5  A    between atoms: C_5  and  C_6
REMARK    6  A    between atoms: C_6  and  O_7
REMARK    7  A    between atoms: C_6  and  C_8
REMARK    8  A    between atoms: C_8  and  C_9
REMARK    9  A    between atoms: C_8  and  N_13
REMARK   10  A    between atoms: C_9  and  C_10
REMARK   11  A    between atoms: C_10  and  C_11
REMARK   12  A    between atoms: C_10  and  C_12
REMARK   13  A    between atoms: C_14  and  C_16
REMARK   14  A    between atoms: C_16  and  C_17
REMARK   15  A    between atoms: C_16  and  N_21
REMARK   16  A    between atoms: C_17  and  C_18
REMARK   17  A    between atoms: C_18  and  C_19
REMARK   18  A    between atoms: C_18  and  C_20
REMARK   19  A    between atoms: C_22  and  O_24
REMARK   20  A    between atoms: O_24  and  C_25
REMARK   21  A    between atoms: C_25  and  C_26
REMARK                            x       y       z     vdW  Elec       q    Type
REMARK                         _______ _______ _______ _____ _____    ______ ____
ROOT
ATOM      1  N   UNL     1       4.993   4.690  18.058  0.00  0.00    +0.000 N 
ATOM      2  C   UNL     1       4.327   5.169  19.158  0.00  0.00    +0.000 C 
ATOM      3  O   UNL     1       4.919   5.714  20.094  0.00  0.00    +0.000 OA
ATOM      4  H   UNL     1       4.469   4.182  17.353  0.00  0.00    +0.000 HD
ENDROOT
BRANCH   1   5
ATOM      5  C   UNL     1       6.468   4.646  17.950  0.00  0.00    +0.000 C 
BRANCH   5   6
ATOM      6  C   UNL     1       6.911   4.493  16.474  0.00  0.00    +0.000 C 
BRANCH   6   7
ATOM      7  C   UNL     1       5.779   4.596  15.427  0.00  0.00    +0.000 C 
ATOM      8  C   UNL     1       5.340   6.040  15.183  0.00  0.00    +0.000 C 
ATOM      9  C   UNL     1       6.216   3.955  14.106  0.00  0.00    +0.000 C 
ENDBRANCH   6   7
ENDBRANCH   5   6
BRANCH   5  10
ATOM     10  C   UNL     1       7.187   5.822  18.690  0.00  0.00    +0.000 C 
BRANCH  10  11
ATOM     11  O   UNL     1       8.238   5.400  19.563  0.00  0.00    +0.000 OA
ATOM     12  H   UNL     1       9.079   5.413  19.058  0.00  0.00    +0.000 HD
ENDBRANCH  10  11
BRANCH  10  13
ATOM     13  C   UNL     1       7.733   6.898  17.746  0.00  0.00    +0.000 C 
BRANCH  13  14
ATOM     14  O   UNL     1       8.421   7.913  18.480  0.00  0.00    +0.000 OA
BRANCH  14  15
ATOM     15  C   UNL     1       8.102   9.203  17.961  0.00  0.00    +0.000 C 
BRANCH  15  17
ATOM     16  C   UNL     1       9.256  10.524  19.748  0.00  0.00    +0.000 C 
ATOM     17  C   UNL     1       9.236  10.170  18.271  0.00  0.00    +0.000 C 
ENDBRANCH  15  17
ENDBRANCH  14  15
ENDBRANCH  13  14
ENDBRANCH  10  13
ENDBRANCH   5  10
ENDBRANCH   1   5
BRANCH   2  18
ATOM     18  C   UNL     1       2.814   4.931  19.225  0.00  0.00    +0.000 C 
BRANCH  18  19
ATOM     19  N   UNL     1       2.262   6.224  19.581  0.00  0.00    +0.000 N 
ATOM     20  C   UNL     1       2.292   7.346  18.835  0.00  0.00    +0.000 C 
ATOM     21  O   UNL     1       2.799   7.440  17.726  0.00  0.00    +0.000 OA
ATOM     22  H   UNL     1       1.731   6.286  20.449  0.00  0.00    +0.000 HD
BRANCH  20  23
ATOM     23  O   UNL     1       1.658   8.321  19.517  0.00  0.00    +0.000 OA
BRANCH  23  24
ATOM     24  C   UNL     1       1.442   8.110  20.915  0.00  0.00    +0.000 C 
BRANCH  24  25
ATOM     25  C   UNL     1       0.657   9.288  21.430  0.00  0.00    +0.000 A 
ATOM     26  C   UNL     1       0.757  10.544  20.818  0.00  0.00    +0.000 A 
ATOM     27  C   UNL     1       0.077  11.645  21.346  0.00  0.00    +0.000 A 
ATOM     28  C   UNL     1      -0.702  11.500  22.493  0.00  0.00    +0.000 A 
ATOM     29  C   UNL     1      -0.807  10.254  23.110  0.00  0.00    +0.000 A 
ATOM     30  C   UNL     1      -0.130   9.154  22.584  0.00  0.00    +0.000 A 
ENDBRANCH  24  25
ENDBRANCH  23  24
ENDBRANCH  20  23
ENDBRANCH  18  19
BRANCH  18  31
ATOM     31  C   UNL     1       2.235   4.350  17.927  0.00  0.00    +0.000 C 
BRANCH  31  32
ATOM     32  C   UNL     1       1.645   2.920  17.998  0.00  0.00    +0.000 C 
ATOM     33  C   UNL     1       2.782   1.891  18.047  0.00  0.00    +0.000 C 
ATOM     34  C   UNL     1       0.728   2.689  19.201  0.00  0.00    +0.000 C 
ENDBRANCH  31  32
ENDBRANCH  18  31
ENDBRANCH   2  18
TORSDOF 16
ENDMDL
MODEL 3
REMARK VINA RESULT:      -6.7      2.467      8.178
REMARK  Name = 
REMARK  21 active torsions:
REMARK  status: ('A' for Active; 'I' for Inactive)
REMARK    1  A    between atoms: C_1  and  C_2
REMARK    2  A    between atoms: C_2  and  C_3
REMARK    3  A    between atoms: C_3  and  O_4
REMARK    4  A    between atoms: O_4  and  C_5
REMARK    5  A    between atoms: C_5  and  C_6
REMARK    6  A    between atoms: C_6  and  O_7
REMARK    7  A    between atoms: C_6  and  C_8
REMARK    8  A    between atoms: C_8  and  C_9
REMARK    9  A    between atoms: C_8  and  N_13
REMARK   10  A    between atoms: C_9  and  C_10
REMARK   11  A    between atoms: C_10  and  C_11
REMARK   12  A    between atoms: C_10  and  C_12
REMARK   13  A    between atoms: C_14  and  C_16
REMARK   14  A    between atoms: C_16  and  C_17
REMARK   15  A    between atoms: C_16  and  N_21
REMARK   16  A    between atoms: C_17  and  C_18
REMARK   17  A    between atoms: C_18  and  C_19
REMARK   18  A    between atoms: C_18  and  C_20
REMARK   19  A    between atoms: C_22  and  O_24
REMARK   20  A    between atoms: O_24  and  C_25
REMARK   21  A    between atoms: C_25  and  C_26
REMARK                            x       y       z     vdW  Elec       q    Type
REMARK                         _______ _______ _______ _____ _____    ______ ____
ROOT
ATOM      1  N   UNL     1       2.916   7.890  18.518  0.00  0.00    +0.000 N 
ATOM      2  C   UNL     1       3.138   6.587  18.153  0.00  0.00    +0.000 C 
ATOM      3  O   UNL     1       2.239   5.741  18.165  0.00  0.00    +0.000 OA
ATOM      4  H   UNL     1       3.705   8.526  18.565  0.00  0.00    +0.000 HD
ENDROOT
BRANCH   1   5
ATOM      5  C   UNL     1       1.638   8.372  19.091  0.00  0.00    +0.000 C 
BRANCH   5   6
ATOM      6  C   UNL     1       1.708   8.416  20.637  0.00  0.00    +0.000 C 
BRANCH   6   7
ATOM      7  C   UNL     1       0.499   9.077  21.338  0.00  0.00    +0.000 C 
ATOM      8  C   UNL     1      -0.752   8.198  21.292  0.00  0.00    +0.000 C 
ATOM      9  C   UNL     1       0.845   9.415  22.790  0.00  0.00    +0.000 C 
ENDBRANCH   6   7
ENDBRANCH   5   6
BRANCH   5  10
ATOM     10  C   UNL     1       1.130   9.708  18.458  0.00  0.00    +0.000 C 
BRANCH  10  11
ATOM     11  O   UNL     1       2.043  10.293  17.527  0.00  0.00    +0.000 OA
ATOM     12  H   UNL     1       2.144   9.677  16.769  0.00  0.00    +0.000 HD
ENDBRANCH  10  11
BRANCH  10  13
ATOM     13  C   UNL     1      -0.244   9.587  17.791  0.00  0.00    +0.000 C 
BRANCH  13  14
ATOM     14  O   UNL     1      -1.213  10.380  18.480  0.00  0.00    +0.000 OA
BRANCH  14  15
ATOM     15  C   UNL     1      -2.082  11.022  17.548  0.00  0.00    +0.000 C 
BRANCH  15  17
ATOM     16  C   UNL     1      -4.580  10.987  17.703  0.00  0.00    +0.000 C 
ATOM     17  C   UNL     1      -3.338  10.183  17.363  0.00  0.00    +0.000 C 
ENDBRANCH  15  17
ENDBRANCH  14  15
ENDBRANCH  13  14
ENDBRANCH  10  13
ENDBRANCH   5  10
ENDBRANCH   1   5
BRANCH   2  18
ATOM     18  C   UNL     1       4.578   6.189  17.803  0.00  0.00    +0.000 C 
BRANCH  18  19
ATOM     19  N   UNL     1       4.651   4.778  18.131  0.00  0.00    +0.000 N 
ATOM     20  C   UNL     1       5.423   4.210  19.077  0.00  0.00    +0.000 C 
ATOM     21  O   UNL     1       6.192   4.813  19.814  0.00  0.00    +0.000 OA
ATOM     22  H   UNL     1       4.004   4.151  17.655  0.00  0.00    +0.000 HD
BRANCH  20  23
ATOM     23  O   UNL     1       5.185   2.883  19.074  0.00  0.00    +0.000 OA
BRANCH  23  24
ATOM     24  C   UNL     1       4.534   2.331  20.222  0.00  0.00    +0.000 C 
BRANCH  24  25
ATOM     25  C   UNL     1       3.057   2.583  20.064  0.00  0.00    +0.000 A 
ATOM     26  C   UNL     1       2.351   2.068  18.969  0.00  0.00    +0.000 A 
ATOM     27  C   UNL     1       0.997   2.366  18.797  0.00  0.00    +0.000 A 
ATOM     28  C   UNL     1       0.340   3.185  19.714  0.00  0.00    +0.000 A 
ATOM     29  C   UNL     1       1.034   3.703  20.807  0.00  0.00    +0.000 A 
ATOM     30  C   UNL     1       2.386   3.406  20.981  0.00  0.00    +0.000 A 
ENDBRANCH  24  25
ENDBRANCH  23  24
ENDBRANCH  20  23
ENDBRANCH  18  19
BRANCH  18  31
ATOM     31  C   UNL     1       4.955   6.504  16.348  0.00  0.00    +0.000 C 
BRANCH  31  32
ATOM     32  C   UNL     1       6.455   6.405  15.974  0.00  0.00    +0.000 C 
ATOM     33  C   UNL     1       7.317   6.804  17.179  0.00  0.00    +0.000 C 
ATOM     34  C   UNL     1       6.885   5.014  15.506  0.00  0.00    +0.000 C 
ENDBRANCH  31  32
ENDBRANCH  18  31
ENDBRANCH   2  18
TORSDOF 16
ENDMDL
MODEL 4
REMARK VINA RESULT:      -6.7      2.156      4.449
REMARK  Name = 
REMARK  21 active torsions:
REMARK  status: ('A' for Active; 'I' for Inactive)
REMARK    1  A    between atoms: C_1  and  C_2
REMARK    2  A    between atoms: C_2  and  C_3
REMARK    3  A    between atoms: C_3  and  O_4
REMARK    4  A    between atoms: O_4  and  C_5
REMARK    5  A    between atoms: C_5  and  C_6
REMARK    6  A    between atoms: C_6  and  O_7
REMARK    7  A    between atoms: C_6  and  C_8
REMARK    8  A    between atoms: C_8  and  C_9
REMARK    9  A    between atoms: C_8  and  N_13
REMARK   10  A    between atoms: C_9  and  C_10
REMARK   11  A    between atoms: C_10  and  C_11
REMARK   12  A    between atoms: C_10  and  C_12
REMARK   13  A    between atoms: C_14  and  C_16
REMARK   14  A    between atoms: C_16  and  C_17
REMARK   15  A    between atoms: C_16  and  N_21
REMARK   16  A    between atoms: C_17  and  C_18
REMARK   17  A    between atoms: C_18  and  C_19
REMARK   18  A    between atoms: C_18  and  C_20
REMARK   19  A    between atoms: C_22  and  O_24
REMARK   20  A    between atoms: O_24  and  C_25
REMARK   21  A    between atoms: C_25  and  C_26
REMARK                            x       y       z     vdW  Elec       q    Type
REMARK                         _______ _______ _______ _____ _____    ______ ____
ROOT
ATOM      1  N   UNL     1       5.266   5.621  17.497  0.00  0.00    +0.000 N 
ATOM      2  C   UNL     1       5.122   4.882  18.645  0.00  0.00    +0.000 C 
ATOM      3  O   UNL     1       6.069   4.665  19.406  0.00  0.00    +0.000 OA
ATOM      4  H   UNL     1       4.475   5.704  16.868  0.00  0.00    +0.000 HD
ENDROOT
BRANCH   1   5
ATOM      5  C   UNL     1       6.572   6.097  16.991  0.00  0.00    +0.000 C 
BRANCH   5   6
ATOM      6  C   UNL     1       7.381   6.792  18.115  0.00  0.00    +0.000 C 
BRANCH   6   7
ATOM      7  C   UNL     1       7.999   8.158  17.741  0.00  0.00    +0.000 C 
ATOM      8  C   UNL     1       6.944   9.175  17.304  0.00  0.00    +0.000 C 
ATOM      9  C   UNL     1       8.806   8.717  18.916  0.00  0.00    +0.000 C 
ENDBRANCH   6   7
ENDBRANCH   5   6
BRANCH   5  10
ATOM     10  C   UNL     1       7.389   5.002  16.230  0.00  0.00    +0.000 C 
BRANCH  10  11
ATOM     11  O   UNL     1       8.064   4.081  17.090  0.00  0.00    +0.000 OA
ATOM     12  H   UNL     1       7.400   3.689  17.699  0.00  0.00    +0.000 HD
ENDBRANCH  10  11
BRANCH  10  13
ATOM     13  C   UNL     1       6.558   4.211  15.216  0.00  0.00    +0.000 C 
BRANCH  13  14
ATOM     14  O   UNL     1       6.634   4.812  13.921  0.00  0.00    +0.000 OA
BRANCH  14  15
ATOM     15  C   UNL     1       6.768   3.809  12.915  0.00  0.00    +0.000 C 
BRANCH  15  17
ATOM     16  C   UNL     1       5.481   2.214  11.477  0.00  0.00    +0.000 C 
ATOM     17  C   UNL     1       5.388   3.405  12.415  0.00  0.00    +0.000 C 
ENDBRANCH  15  17
ENDBRANCH  14  15
ENDBRANCH  13  14
ENDBRANCH  10  13
ENDBRANCH   5  10
ENDBRANCH   1   5
BRANCH   2  18
ATOM     18  C   UNL     1       3.747   4.258  18.913  0.00  0.00    +0.000 C 
BRANCH  18  19
ATOM     19  N   UNL     1       2.976   5.332  19.510  0.00  0.00    +0.000 N 
ATOM     20  C   UNL     1       2.250   5.269  20.644  0.00  0.00    +0.000 C 
ATOM     21  O   UNL     1       2.131   4.277  21.349  0.00  0.00    +0.000 OA
ATOM     22  H   UNL     1       3.040   6.253  19.079  0.00  0.00    +0.000 HD
BRANCH  20  23
ATOM     23  O   UNL     1       1.702   6.481  20.860  0.00  0.00    +0.000 OA
BRANCH  23  24
ATOM     24  C   UNL     1       2.063   7.534  19.961  0.00  0.00    +0.000 C 
BRANCH  24  25
ATOM     25  C   UNL     1       1.285   8.758  20.368  0.00  0.00    +0.000 A 
ATOM     26  C   UNL     1       0.959   8.992  21.711  0.00  0.00    +0.000 A 
ATOM     27  C   UNL     1       0.179  10.094  22.068  0.00  0.00    +0.000 A 
ATOM     28  C   UNL     1      -0.288  10.966  21.086  0.00  0.00    +0.000 A 
ATOM     29  C   UNL     1       0.029  10.742  19.747  0.00  0.00    +0.000 A 
ATOM     30  C   UNL     1       0.809   9.643  19.389  0.00  0.00    +0.000 A 
ENDBRANCH  24  25
ENDBRANCH  23  24
ENDBRANCH  20  23
ENDBRANCH  18  19
BRANCH  18  31
ATOM     31  C   UNL     1       3.099   3.659  17.657  0.00  0.00    +0.000 C 
BRANCH  31  32
ATOM     32  C   UNL     1       2.483   2.243  17.791  0.00  0.00    +0.000 C 
ATOM     33  C   UNL     1       3.516   1.284  18.396  0.00  0.00    +0.000 C 
ATOM     34  C   UNL     1       1.217   2.199  18.647  0.00  0.00    +0.000 C 
ENDBRANCH  31  32
ENDBRANCH  18  31
ENDBRANCH   2  18
TORSDOF 16
ENDMDL
MODEL 5
REMARK VINA RESULT:      -6.6      1.488      2.082
REMARK  Name = 
REMARK  21 active torsions:
REMARK  status: ('A' for Active; 'I' for Inactive)
REMARK    1  A    between atoms: C_1  and  C_2
REMARK    2  A    between atoms: C_2  and  C_3
REMARK    3  A    between atoms: C_3  and  O_4
REMARK    4  A    between atoms: O_4  and  C_5
REMARK    5  A    between atoms: C_5  and  C_6
REMARK    6  A    between atoms: C_6  and  O_7
REMARK    7  A    between atoms: C_6  and  C_8
REMARK    8  A    between atoms: C_8  and  C_9
REMARK    9  A    between atoms: C_8  and  N_13
REMARK   10  A    between atoms: C_9  and  C_10
REMARK   11  A    between atoms: C_10  and  C_11
REMARK   12  A    between atoms: C_10  and  C_12
REMARK   13  A    between atoms: C_14  and  C_16
REMARK   14  A    between atoms: C_16  and  C_17
REMARK   15  A    between atoms: C_16  and  N_21
REMARK   16  A    between atoms: C_17  and  C_18
REMARK   17  A    between atoms: C_18  and  C_19
REMARK   18  A    between atoms: C_18  and  C_20
REMARK   19  A    between atoms: C_22  and  O_24
REMARK   20  A    between atoms: O_24  and  C_25
REMARK   21  A    between atoms: C_25  and  C_26
REMARK                            x       y       z     vdW  Elec       q    Type
REMARK                         _______ _______ _______ _____ _____    ______ ____
ROOT
ATOM      1  N   UNL     1       4.874   6.170  18.357  0.00  0.00    +0.000 N 
ATOM      2  C   UNL     1       4.184   5.206  19.047  0.00  0.00    +0.000 C 
ATOM      3  O   UNL     1       4.711   4.145  19.393  0.00  0.00    +0.000 OA
ATOM      4  H   UNL     1       4.373   6.989  18.029  0.00  0.00    +0.000 HD
ENDROOT
BRANCH   1   5
ATOM      5  C   UNL     1       6.248   5.980  17.841  0.00  0.00    +0.000 C 
BRANCH   5   6
ATOM      6  C   UNL     1       6.262   5.983  16.292  0.00  0.00    +0.000 C 
BRANCH   6   7
ATOM      7  C   UNL     1       6.644   4.641  15.628  0.00  0.00    +0.000 C 
ATOM      8  C   UNL     1       5.589   3.558  15.854  0.00  0.00    +0.000 C 
ATOM      9  C   UNL     1       6.877   4.837  14.127  0.00  0.00    +0.000 C 
ENDBRANCH   6   7
ENDBRANCH   5   6
BRANCH   5  10
ATOM     10  C   UNL     1       7.296   6.956  18.469  0.00  0.00    +0.000 C 
BRANCH  10  11
ATOM     11  O   UNL     1       8.327   6.299  19.210  0.00  0.00    +0.000 OA
ATOM     12  H   UNL     1       8.035   6.230  20.144  0.00  0.00    +0.000 HD
ENDBRANCH  10  11
BRANCH  10  13
ATOM     13  C   UNL     1       7.945   7.897  17.450  0.00  0.00    +0.000 C 
BRANCH  13  14
ATOM     14  O   UNL     1       7.778   9.261  17.843  0.00  0.00    +0.000 OA
BRANCH  14  15
ATOM     15  C   UNL     1       8.867   9.676  18.667  0.00  0.00    +0.000 C 
BRANCH  15  17
ATOM     16  C   UNL     1       9.472  12.021  19.302  0.00  0.00    +0.000 C 
ATOM     17  C   UNL     1       9.399  11.013  18.169  0.00  0.00    +0.000 C 
ENDBRANCH  15  17
ENDBRANCH  14  15
ENDBRANCH  13  14
ENDBRANCH  10  13
ENDBRANCH   5  10
ENDBRANCH   1   5
BRANCH   2  18
ATOM     18  C   UNL     1       2.693   5.456  19.307  0.00  0.00    +0.000 C 
BRANCH  18  19
ATOM     19  N   UNL     1       2.468   6.808  18.833  0.00  0.00    +0.000 N 
ATOM     20  C   UNL     1       1.915   7.824  19.525  0.00  0.00    +0.000 C 
ATOM     21  O   UNL     1       1.514   7.753  20.678  0.00  0.00    +0.000 OA
ATOM     22  H   UNL     1       2.826   7.048  17.909  0.00  0.00    +0.000 HD
BRANCH  20  23
ATOM     23  O   UNL     1       1.902   8.914  18.733  0.00  0.00    +0.000 OA
BRANCH  23  24
ATOM     24  C   UNL     1       1.467  10.145  19.319  0.00  0.00    +0.000 C 
BRANCH  24  25
ATOM     25  C   UNL     1       0.069  10.409  18.823  0.00  0.00    +0.000 A 
ATOM     26  C   UNL     1      -0.795  11.262  19.521  0.00  0.00    +0.000 A 
ATOM     27  C   UNL     1      -2.111  11.445  19.089  0.00  0.00    +0.000 A 
ATOM     28  C   UNL     1      -2.574  10.771  17.960  0.00  0.00    +0.000 A 
ATOM     29  C   UNL     1      -1.723   9.919  17.258  0.00  0.00    +0.000 A 
ATOM     30  C   UNL     1      -0.408   9.736  17.688  0.00  0.00    +0.000 A 
ENDBRANCH  24  25
ENDBRANCH  23  24
ENDBRANCH  20  23
ENDBRANCH  18  19
BRANCH  18  31
ATOM     31  C   UNL     1       1.780   4.412  18.648  0.00  0.00    +0.000 C 
BRANCH  31  32
ATOM     32  C   UNL     1       0.927   3.529  19.593  0.00  0.00    +0.000 C 
ATOM     33  C   UNL     1       0.758   2.131  18.983  0.00  0.00    +0.000 C 
ATOM     34  C   UNL     1       1.514   3.380  20.997  0.00  0.00    +0.000 C 
ENDBRANCH  31  32
ENDBRANCH  18  31
ENDBRANCH   2  18
TORSDOF 16
ENDMDL
MODEL 6
REMARK VINA RESULT:      -6.6      1.525      2.084
REMARK  Name = 
REMARK  21 active torsions:
REMARK  status: ('A' for Active; 'I' for Inactive)
REMARK    1  A    between atoms: C_1  and  C_2
REMARK    2  A    between atoms: C_2  and  C_3
REMARK    3  A    between atoms: C_3  and  O_4
REMARK    4  A    between atoms: O_4  and  C_5
REMARK    5  A    between atoms: C_5  and  C_6
REMARK    6  A    between atoms: C_6  and  O_7
REMARK    7  A    between atoms: C_6  and  C_8
REMARK    8  A    between atoms: C_8  and  C_9
REMARK    9  A    between atoms: C_8  and  N_13
REMARK   10  A    between atoms: C_9  and  C_10
REMARK   11  A    between atoms: C_10  and  C_11
REMARK   12  A    between atoms: C_10  and  C_12
REMARK   13  A    between atoms: C_14  and  C_16
REMARK   14  A    between atoms: C_16  and  C_17
REMARK   15  A    between atoms: C_16  and  N_21
REMARK   16  A    between atoms: C_17  and  C_18
REMARK   17  A    between atoms: C_18  and  C_19
REMARK   18  A    between atoms: C_18  and  C_20
REMARK   19  A    between atoms: C_22  and  O_24
REMARK   20  A    between atoms: O_24  and  C_25
REMARK   21  A    between atoms: C_25  and  C_26
REMARK                            x       y       z     vdW  Elec       q    Type
REMARK                         _______ _______ _______ _____ _____    ______ ____
ROOT
ATOM      1  N   UNL     1       4.450   4.577  17.130  0.00  0.00    +0.000 N 
ATOM      2  C   UNL     1       3.884   5.801  17.380  0.00  0.00    +0.000 C 
ATOM      3  O   UNL     1       4.376   6.849  16.952  0.00  0.00    +0.000 OA
ATOM      4  H   UNL     1       4.050   3.755  17.570  0.00  0.00    +0.000 HD
ENDROOT
BRANCH   1   5
ATOM      5  C   UNL     1       5.760   4.403  16.462  0.00  0.00    +0.000 C 
BRANCH   5   6
ATOM      6  C   UNL     1       5.719   4.951  15.014  0.00  0.00    +0.000 C 
BRANCH   6   7
ATOM      7  C   UNL     1       6.604   4.199  13.995  0.00  0.00    +0.000 C 
ATOM      8  C   UNL     1       5.787   3.565  12.868  0.00  0.00    +0.000 C 
ATOM      9  C   UNL     1       7.657   5.143  13.406  0.00  0.00    +0.000 C 
ENDBRANCH   6   7
ENDBRANCH   5   6
BRANCH   5  10
ATOM     10  C   UNL     1       6.967   4.949  17.294  0.00  0.00    +0.000 C 
BRANCH  10  11
ATOM     11  O   UNL     1       8.110   4.091  17.288  0.00  0.00    +0.000 OA
ATOM     12  H   UNL     1       7.800   3.169  17.420  0.00  0.00    +0.000 HD
ENDBRANCH  10  11
BRANCH  10  13
ATOM     13  C   UNL     1       7.405   6.358  16.884  0.00  0.00    +0.000 C 
BRANCH  13  14
ATOM     14  O   UNL     1       7.822   7.111  18.026  0.00  0.00    +0.000 OA
BRANCH  14  15
ATOM     15  C   UNL     1       8.084   8.465  17.659  0.00  0.00    +0.000 C 
BRANCH  15  17
ATOM     16  C   UNL     1       9.112  10.610  18.439  0.00  0.00    +0.000 C 
ATOM     17  C   UNL     1       8.747   9.187  18.823  0.00  0.00    +0.000 C 
ENDBRANCH  15  17
ENDBRANCH  14  15
ENDBRANCH  13  14
ENDBRANCH  10  13
ENDBRANCH   5  10
ENDBRANCH   1   5
BRANCH   2  18
ATOM     18  C   UNL     1       2.648   5.834  18.287  0.00  0.00    +0.000 C 
BRANCH  18  19
ATOM     19  N   UNL     1       2.049   7.130  18.032  0.00  0.00    +0.000 N 
ATOM     20  C   UNL     1       1.749   8.073  18.947  0.00  0.00    +0.000 C 
ATOM     21  O   UNL     1       1.941   7.972  20.151  0.00  0.00    +0.000 OA
ATOM     22  H   UNL     1       1.903   7.397  17.060  0.00  0.00    +0.000 HD
BRANCH  20  23
ATOM     23  O   UNL     1       1.224   9.133  18.301  0.00  0.00    +0.000 OA
BRANCH  23  24
ATOM     24  C   UNL     1       1.820  10.411  18.544  0.00  0.00    +0.000 C 
BRANCH  24  25
ATOM     25  C   UNL     1       0.730  11.329  19.032  0.00  0.00    +0.000 A 
ATOM     26  C   UNL     1      -0.398  10.823  19.691  0.00  0.00    +0.000 A 
ATOM     27  C   UNL     1      -1.434  11.677  20.077  0.00  0.00    +0.000 A 
ATOM     28  C   UNL     1      -1.354  13.041  19.802  0.00  0.00    +0.000 A 
ATOM     29  C   UNL     1      -0.236  13.555  19.146  0.00  0.00    +0.000 A 
ATOM     30  C   UNL     1       0.800  12.704  18.760  0.00  0.00    +0.000 A 
ENDBRANCH  24  25
ENDBRANCH  23  24
ENDBRANCH  20  23
ENDBRANCH  18  19
BRANCH  18  31
ATOM     31  C   UNL     1       1.692   4.656  18.050  0.00  0.00    +0.000 C 
BRANCH  31  32
ATOM     32  C   UNL     1       1.600   3.589  19.169  0.00  0.00    +0.000 C 
ATOM     33  C   UNL     1       1.045   4.227  20.449  0.00  0.00    +0.000 C 
ATOM     34  C   UNL     1       0.727   2.387  18.805  0.00  0.00    +0.000 C 
ENDBRANCH  31  32
ENDBRANCH  18  31
ENDBRANCH   2  18
TORSDOF 16
ENDMDL
MODEL 7
REMARK VINA RESULT:      -6.6      1.812      4.066
REMARK  Name = 
REMARK  21 active torsions:
REMARK  status: ('A' for Active; 'I' for Inactive)
REMARK    1  A    between atoms: C_1  and  C_2
REMARK    2  A    between atoms: C_2  and  C_3
REMARK    3  A    between atoms: C_3  and  O_4
REMARK    4  A    between atoms: O_4  and  C_5
REMARK    5  A    between atoms: C_5  and  C_6
REMARK    6  A    between atoms: C_6  and  O_7
REMARK    7  A    between atoms: C_6  and  C_8
REMARK    8  A    between atoms: C_8  and  C_9
REMARK    9  A    between atoms: C_8  and  N_13
REMARK   10  A    between atoms: C_9  and  C_10
REMARK   11  A    between atoms: C_10  and  C_11
REMARK   12  A    between atoms: C_10  and  C_12
REMARK   13  A    between atoms: C_14  and  C_16
REMARK   14  A    between atoms: C_16  and  C_17
REMARK   15  A    between atoms: C_16  and  N_21
REMARK   16  A    between atoms: C_17  and  C_18
REMARK   17  A    between atoms: C_18  and  C_19
REMARK   18  A    between atoms: C_18  and  C_20
REMARK   19  A    between atoms: C_22  and  O_24
REMARK   20  A    between atoms: O_24  and  C_25
REMARK   21  A    between atoms: C_25  and  C_26
REMARK                            x       y       z     vdW  Elec       q    Type
REMARK                         _______ _______ _______ _____ _____    ______ ____
ROOT
ATOM      1  N   UNL     1       5.459   6.112  17.988  0.00  0.00    +0.000 N 
ATOM      2  C   UNL     1       5.292   5.272  19.060  0.00  0.00    +0.000 C 
ATOM      3  O   UNL     1       6.240   4.676  19.578  0.00  0.00    +0.000 OA
ATOM      4  H   UNL     1       4.638   6.516  17.551  0.00  0.00    +0.000 HD
ENDROOT
BRANCH   1   5
ATOM      5  C   UNL     1       6.742   6.270  17.266  0.00  0.00    +0.000 C 
BRANCH   5   6
ATOM      6  C   UNL     1       7.828   6.868  18.195  0.00  0.00    +0.000 C 
BRANCH   6   7
ATOM      7  C   UNL     1       8.271   8.310  17.856  0.00  0.00    +0.000 C 
ATOM      8  C   UNL     1       7.115   9.170  17.343  0.00  0.00    +0.000 C 
ATOM      9  C   UNL     1       8.910   8.972  19.080  0.00  0.00    +0.000 C 
ENDBRANCH   6   7
ENDBRANCH   5   6
BRANCH   5  10
ATOM     10  C   UNL     1       7.210   4.976  16.525  0.00  0.00    +0.000 C 
BRANCH  10  11
ATOM     11  O   UNL     1       8.082   4.148  17.297  0.00  0.00    +0.000 OA
ATOM     12  H   UNL     1       8.671   3.664  16.679  0.00  0.00    +0.000 HD
ENDBRANCH  10  11
BRANCH  10  13
ATOM     13  C   UNL     1       6.055   4.119  15.999  0.00  0.00    +0.000 C 
BRANCH  13  14
ATOM     14  O   UNL     1       6.339   3.637  14.684  0.00  0.00    +0.000 OA
BRANCH  14  15
ATOM     15  C   UNL     1       7.017   4.637  13.925  0.00  0.00    +0.000 C 
BRANCH  15  17
ATOM     16  C   UNL     1       5.878   3.205  12.216  0.00  0.00    +0.000 C 
ATOM     17  C   UNL     1       6.861   4.341  12.440  0.00  0.00    +0.000 C 
ENDBRANCH  15  17
ENDBRANCH  14  15
ENDBRANCH  13  14
ENDBRANCH  10  13
ENDBRANCH   5  10
ENDBRANCH   1   5
BRANCH   2  18
ATOM     18  C   UNL     1       3.858   5.032  19.550  0.00  0.00    +0.000 C 
BRANCH  18  19
ATOM     19  N   UNL     1       3.058   5.977  18.795  0.00  0.00    +0.000 N 
ATOM     20  C   UNL     1       2.276   6.953  19.298  0.00  0.00    +0.000 C 
ATOM     21  O   UNL     1       2.124   7.190  20.488  0.00  0.00    +0.000 OA
ATOM     22  H   UNL     1       3.143   5.960  17.780  0.00  0.00    +0.000 HD
BRANCH  20  23
ATOM     23  O   UNL     1       1.718   7.617  18.267  0.00  0.00    +0.000 OA
BRANCH  23  24
ATOM     24  C   UNL     1       2.362   8.820  17.835  0.00  0.00    +0.000 C 
BRANCH  24  25
ATOM     25  C   UNL     1       1.423   9.961  18.130  0.00  0.00    +0.000 A 
ATOM     26  C   UNL     1       1.913  11.235  18.449  0.00  0.00    +0.000 A 
ATOM     27  C   UNL     1       1.034  12.266  18.787  0.00  0.00    +0.000 A 
ATOM     28  C   UNL     1      -0.339  12.033  18.816  0.00  0.00    +0.000 A 
ATOM     29  C   UNL     1      -0.837  10.769  18.502  0.00  0.00    +0.000 A 
ATOM     30  C   UNL     1       0.038   9.737  18.163  0.00  0.00    +0.000 A 
ENDBRANCH  24  25
ENDBRANCH  23  24
ENDBRANCH  20  23
ENDBRANCH  18  19
BRANCH  18  31
ATOM     31  C   UNL     1       3.402   3.575  19.393  0.00  0.00    +0.000 C 
BRANCH  31  32
ATOM     32  C   UNL     1       2.257   3.093  20.320  0.00  0.00    +0.000 C 
ATOM     33  C   UNL     1       2.346   3.815  21.671  0.00  0.00    +0.000 C 
ATOM     34  C   UNL     1       0.860   3.313  19.741  0.00  0.00    +0.000 C 
ENDBRANCH  31  32
ENDBRANCH  18  31
ENDBRANCH   2  18
TORSDOF 16
ENDMDL
MODEL 8
REMARK VINA RESULT:      -6.6      2.169      4.269
REMARK  Name = 
REMARK  21 active torsions:
REMARK  status: ('A' for Active; 'I' for Inactive)
REMARK    1  A    between atoms: C_1  and  C_2
REMARK    2  A    between atoms: C_2  and  C_3
REMARK    3  A    between atoms: C_3  and  O_4
REMARK    4  A    between atoms: O_4  and  C_5
REMARK    5  A    between atoms: C_5  and  C_6
REMARK    6  A    between atoms: C_6  and  O_7
REMARK    7  A    between atoms: C_6  and  C_8
REMARK    8  A    between atoms: C_8  and  C_9
REMARK    9  A    between atoms: C_8  and  N_13
REMARK   10  A    between atoms: C_9  and  C_10
REMARK   11  A    between atoms: C_10  and  C_11
REMARK   12  A    between atoms: C_10  and  C_12
REMARK   13  A    between atoms: C_14  and  C_16
REMARK   14  A    between atoms: C_16  and  C_17
REMARK   15  A    between atoms: C_16  and  N_21
REMARK   16  A    between atoms: C_17  and  C_18
REMARK   17  A    between atoms: C_18  and  C_19
REMARK   18  A    between atoms: C_18  and  C_20
REMARK   19  A    between atoms: C_22  and  O_24
REMARK   20  A    between atoms: O_24  and  C_25
REMARK   21  A    between atoms: C_25  and  C_26
REMARK                            x       y       z     vdW  Elec       q    Type
REMARK                         _______ _______ _______ _____ _____    ______ ____
ROOT
ATOM      1  N   UNL     1       4.051   5.772  17.733  0.00  0.00    +0.000 N 
ATOM      2  C   UNL     1       4.027   5.581  19.092  0.00  0.00    +0.000 C 
ATOM      3  O   UNL     1       5.049   5.644  19.780  0.00  0.00    +0.000 OA
ATOM      4  H   UNL     1       3.196   5.633  17.205  0.00  0.00    +0.000 HD
ENDROOT
BRANCH   1   5
ATOM      5  C   UNL     1       5.299   5.924  16.952  0.00  0.00    +0.000 C 
BRANCH   5   6
ATOM      6  C   UNL     1       6.032   7.236  17.330  0.00  0.00    +0.000 C 
BRANCH   6   7
ATOM      7  C   UNL     1       7.554   7.103  17.560  0.00  0.00    +0.000 C 
ATOM      8  C   UNL     1       8.246   8.461  17.680  0.00  0.00    +0.000 C 
ATOM      9  C   UNL     1       7.831   6.265  18.812  0.00  0.00    +0.000 C 
ENDBRANCH   6   7
ENDBRANCH   5   6
BRANCH   5  10
ATOM     10  C   UNL     1       6.226   4.665  16.996  0.00  0.00    +0.000 C 
BRANCH  10  11
ATOM     11  O   UNL     1       5.584   3.491  17.497  0.00  0.00    +0.000 OA
ATOM     12  H   UNL     1       5.989   3.267  18.363  0.00  0.00    +0.000 HD
ENDBRANCH  10  11
BRANCH  10  13
ATOM     13  C   UNL     1       6.876   4.336  15.649  0.00  0.00    +0.000 C 
BRANCH  13  14
ATOM     14  O   UNL     1       6.201   5.006  14.583  0.00  0.00    +0.000 OA
BRANCH  14  15
ATOM     15  C   UNL     1       5.510   4.065  13.763  0.00  0.00    +0.000 C 
BRANCH  15  17
ATOM     16  C   UNL     1       5.927   2.496  11.857  0.00  0.00    +0.000 C 
ATOM     17  C   UNL     1       6.301   3.827  12.485  0.00  0.00    +0.000 C 
ENDBRANCH  15  17
ENDBRANCH  14  15
ENDBRANCH  13  14
ENDBRANCH  10  13
ENDBRANCH   5  10
ENDBRANCH   1   5
BRANCH   2  18
ATOM     18  C   UNL     1       2.683   5.201  19.726  0.00  0.00    +0.000 C 
BRANCH  18  19
ATOM     19  N   UNL     1       2.172   6.449  20.260  0.00  0.00    +0.000 N 
ATOM     20  C   UNL     1       1.966   7.593  19.578  0.00  0.00    +0.000 C 
ATOM     21  O   UNL     1       2.182   7.749  18.384  0.00  0.00    +0.000 OA
ATOM     22  H   UNL     1       1.866   6.455  21.232  0.00  0.00    +0.000 HD
BRANCH  20  23
ATOM     23  O   UNL     1       1.470   8.509  20.433  0.00  0.00    +0.000 OA
BRANCH  23  24
ATOM     24  C   UNL     1       0.847   9.666  19.867  0.00  0.00    +0.000 C 
BRANCH  24  25
ATOM     25  C   UNL     1      -0.029  10.270  20.934  0.00  0.00    +0.000 A 
ATOM     26  C   UNL     1      -0.708  11.475  20.712  0.00  0.00    +0.000 A 
ATOM     27  C   UNL     1      -1.462  12.060  21.732  0.00  0.00    +0.000 A 
ATOM     28  C   UNL     1      -1.537  11.450  22.983  0.00  0.00    +0.000 A 
ATOM     29  C   UNL     1      -0.864  10.251  23.214  0.00  0.00    +0.000 A 
ATOM     30  C   UNL     1      -0.111   9.665  22.197  0.00  0.00    +0.000 A 
ENDBRANCH  24  25
ENDBRANCH  23  24
ENDBRANCH  20  23
ENDBRANCH  18  19
BRANCH  18  31
ATOM     31  C   UNL     1       1.724   4.513  18.744  0.00  0.00    +0.000 C 
BRANCH  31  32
ATOM     32  C   UNL     1       1.115   3.159  19.188  0.00  0.00    +0.000 C 
ATOM     33  C   UNL     1       1.881   2.005  18.528  0.00  0.00    +0.000 C 
ATOM     34  C   UNL     1       1.122   2.946  20.702  0.00  0.00    +0.000 C 
ENDBRANCH  31  32
ENDBRANCH  18  31
ENDBRANCH   2  18
TORSDOF 16
ENDMDL
MODEL 9
REMARK VINA RESULT:      -6.6      2.640      7.937
REMARK  Name = 
REMARK  21 active torsions:
REMARK  status: ('A' for Active; 'I' for Inactive)
REMARK    1  A    between atoms: C_1  and  C_2
REMARK    2  A    between atoms: C_2  and  C_3
REMARK    3  A    between atoms: C_3  and  O_4
REMARK    4  A    between atoms: O_4  and  C_5
REMARK    5  A    between atoms: C_5  and  C_6
REMARK    6  A    between atoms: C_6  and  O_7
REMARK    7  A    between atoms: C_6  and  C_8
REMARK    8  A    between atoms: C_8  and  C_9
REMARK    9  A    between atoms: C_8  and  N_13
REMARK   10  A    between atoms: C_9  and  C_10
REMARK   11  A    between atoms: C_10  and  C_11
REMARK   12  A    between atoms: C_10  and  C_12
REMARK   13  A    between atoms: C_14  and  C_16
REMARK   14  A    between atoms: C_16  and  C_17
REMARK   15  A    between atoms: C_16  and  N_21
REMARK   16  A    between atoms: C_17  and  C_18
REMARK   17  A    between atoms: C_18  and  C_19
REMARK   18  A    between atoms: C_18  and  C_20
REMARK   19  A    between atoms: C_22  and  O_24
REMARK   20  A    between atoms: O_24  and  C_25
REMARK   21  A    between atoms: C_25  and  C_26
REMARK                            x       y       z     vdW  Elec       q    Type
REMARK                         _______ _______ _______ _____ _____    ______ ____
ROOT
ATOM      1  N   UNL     1       2.929   7.898  18.318  0.00  0.00    +0.000 N 
ATOM      2  C   UNL     1       3.148   6.607  17.906  0.00  0.00    +0.000 C 
ATOM      3  O   UNL     1       2.249   5.761  17.898  0.00  0.00    +0.000 OA
ATOM      4  H   UNL     1       3.718   8.531  18.379  0.00  0.00    +0.000 HD
ENDROOT
BRANCH   1   5
ATOM      5  C   UNL     1       1.658   8.358  18.921  0.00  0.00    +0.000 C 
BRANCH   5   6
ATOM      6  C   UNL     1       1.637   8.083  20.445  0.00  0.00    +0.000 C 
BRANCH   6   7
ATOM      7  C   UNL     1       0.767   9.047  21.282  0.00  0.00    +0.000 C 
ATOM      8  C   UNL     1      -0.619   8.473  21.579  0.00  0.00    +0.000 C 
ATOM      9  C   UNL     1       1.475   9.401  22.593  0.00  0.00    +0.000 C 
ENDBRANCH   6   7
ENDBRANCH   5   6
BRANCH   5  10
ATOM     10  C   UNL     1       1.287   9.832  18.556  0.00  0.00    +0.000 C 
BRANCH  10  11
ATOM     11  O   UNL     1       2.071  10.382  17.495  0.00  0.00    +0.000 OA
ATOM     12  H   UNL     1       2.692  11.036  17.881  0.00  0.00    +0.000 HD
ENDBRANCH  10  11
BRANCH  10  13
ATOM     13  C   UNL     1      -0.196  10.027  18.225  0.00  0.00    +0.000 C 
BRANCH  13  14
ATOM     14  O   UNL     1      -0.598  11.376  18.475  0.00  0.00    +0.000 OA
BRANCH  14  15
ATOM     15  C   UNL     1      -2.008  11.512  18.307  0.00  0.00    +0.000 C 
BRANCH  15  17
ATOM     16  C   UNL     1      -3.812  10.619  16.818  0.00  0.00    +0.000 C 
ATOM     17  C   UNL     1      -2.388  11.142  16.880  0.00  0.00    +0.000 C 
ENDBRANCH  15  17
ENDBRANCH  14  15
ENDBRANCH  13  14
ENDBRANCH  10  13
ENDBRANCH   5  10
ENDBRANCH   1   5
BRANCH   2  18
ATOM     18  C   UNL     1       4.583   6.223  17.526  0.00  0.00    +0.000 C 
BRANCH  18  19
ATOM     19  N   UNL     1       4.713   4.845  17.959  0.00  0.00    +0.000 N 
ATOM     20  C   UNL     1       5.428   4.392  19.007  0.00  0.00    +0.000 C 
ATOM     21  O   UNL     1       6.088   5.093  19.763  0.00  0.00    +0.000 OA
ATOM     22  H   UNL     1       4.152   4.145  17.474  0.00  0.00    +0.000 HD
BRANCH  20  23
ATOM     23  O   UNL     1       5.273   3.056  19.077  0.00  0.00    +0.000 OA
BRANCH  23  24
ATOM     24  C   UNL     1       4.555   2.536  20.201  0.00  0.00    +0.000 C 
BRANCH  24  25
ATOM     25  C   UNL     1       3.096   2.840  19.979  0.00  0.00    +0.000 A 
ATOM     26  C   UNL     1       2.424   3.775  20.776  0.00  0.00    +0.000 A 
ATOM     27  C   UNL     1       1.056   3.997  20.606  0.00  0.00    +0.000 A 
ATOM     28  C   UNL     1       0.347   3.281  19.642  0.00  0.00    +0.000 A 
ATOM     29  C   UNL     1       1.006   2.348  18.844  0.00  0.00    +0.000 A 
ATOM     30  C   UNL     1       2.373   2.125  19.012  0.00  0.00    +0.000 A 
ENDBRANCH  24  25
ENDBRANCH  23  24
ENDBRANCH  20  23
ENDBRANCH  18  19
BRANCH  18  31
ATOM     31  C   UNL     1       4.892   6.433  16.037  0.00  0.00    +0.000 C 
BRANCH  31  32
ATOM     32  C   UNL     1       5.989   5.534  15.413  0.00  0.00    +0.000 C 
ATOM     33  C   UNL     1       7.264   5.607  16.263  0.00  0.00    +0.000 C 
ATOM     34  C   UNL     1       5.579   4.068  15.272  0.00  0.00    +0.000 C 
ENDBRANCH  31  32
ENDBRANCH  18  31
ENDBRANCH   2  18
TORSDOF 16
ENDMDL
