MODEL 1
REMARK VINA RESULT:      -7.6      0.000      0.000
REMARK  Name = 
REMARK  4 active torsions:
REMARK  status: ('A' for Active; 'I' for Inactive)
REMARK    1  A    between atoms: C_1  and  C_2
REMARK    2  A    between atoms: C_8  and  S_9
REMARK    3  A    between atoms: S_9  and  C_10
REMARK    4  A    between atoms: C_10  and  C_11
REMARK                            x       y       z     vdW  Elec       q    Type
REMARK                         _______ _______ _______ _____ _____    ______ ____
ROOT
ATOM      1  C   UNL     1       9.015   9.743  18.916  0.00  0.00    +0.000 C 
ATOM      2  C   UNL     1       8.276   8.638  18.202  0.00  0.00    +0.000 C 
ATOM      3  O   UNL     1       7.627   8.872  17.189  0.00  0.00    +0.000 OA
ATOM      4  N   UNL     1       8.425   7.426  18.827  0.00  0.00    +0.000 N 
ATOM      5  C   UNL     1       7.879   6.254  18.388  0.00  0.00    +0.000 A 
ATOM      6  N   UNL     1       7.807   5.197  19.205  0.00  0.00    +0.000 NA
ATOM      7  N   UNL     1       7.153   4.312  18.433  0.00  0.00    +0.000 N 
ATOM      8  C   UNL     1       6.958   4.805  17.184  0.00  0.00    +0.000 A 
ATOM      9  N   UNL     1       7.398   6.037  17.123  0.00  0.00    +0.000 NA
ATOM     10  H   UNL     1       8.824   7.365  19.752  0.00  0.00    +0.000 HD
ATOM     11  H   UNL     1       6.879   3.411  18.804  0.00  0.00    +0.000 HD
ENDROOT
BRANCH   8  12
ATOM     12  S   UNL     1       6.197   3.846  15.974  0.00  0.00    +0.000 S 
BRANCH  12  13
ATOM     13  C   UNL     1       4.502   4.502  16.005  0.00  0.00    +0.000 C 
BRANCH  13  14
ATOM     14  C   UNL     1       3.778   4.107  17.276  0.00  0.00    +0.000 A 
ATOM     15  C   UNL     1       3.167   5.084  18.078  0.00  0.00    +0.000 A 
ATOM     16  C   UNL     1       2.489   4.729  19.248  0.00  0.00    +0.000 A 
ATOM     17  C   UNL     1       2.420   3.389  19.627  0.00  0.00    +0.000 A 
ATOM     18 BR   UNL     1       1.483   2.909  21.199  0.00  0.00    +0.000 Br
ATOM     19  C   UNL     1       3.030   2.409  18.855  0.00  0.00    +0.000 A 
ATOM     20  C   UNL     1       3.712   2.764  17.684  0.00  0.00    +0.000 A 
ENDBRANCH  13  14
ENDBRANCH  12  13
ENDBRANCH   8  12
TORSDOF 3
ENDMDL
MODEL 2
REMARK VINA RESULT:      -7.5      0.227      1.137
REMARK  Name = 
REMARK  4 active torsions:
REMARK  status: ('A' for Active; 'I' for Inactive)
REMARK    1  A    between atoms: C_1  and  C_2
REMARK    2  A    between atoms: C_8  and  S_9
REMARK    3  A    between atoms: S_9  and  C_10
REMARK    4  A    between atoms: C_10  and  C_11
REMARK                            x       y       z     vdW  Elec       q    Type
REMARK                         _______ _______ _______ _____ _____    ______ ____
ROOT
ATOM      1  C   UNL     1       8.999   9.799  18.889  0.00  0.00    +0.000 C 
ATOM      2  C   UNL     1       8.247   8.685  18.203  0.00  0.00    +0.000 C 
ATOM      3  O   UNL     1       7.541   8.915  17.227  0.00  0.00    +0.000 OA
ATOM      4  N   UNL     1       8.452   7.471  18.807  0.00  0.00    +0.000 N 
ATOM      5  C   UNL     1       7.908   6.292  18.385  0.00  0.00    +0.000 A 
ATOM      6  N   UNL     1       7.900   5.226  19.195  0.00  0.00    +0.000 NA
ATOM      7  N   UNL     1       7.224   4.335  18.449  0.00  0.00    +0.000 N 
ATOM      8  C   UNL     1       6.954   4.836  17.216  0.00  0.00    +0.000 A 
ATOM      9  N   UNL     1       7.365   6.076  17.145  0.00  0.00    +0.000 NA
ATOM     10  H   UNL     1       8.900   7.410  19.710  0.00  0.00    +0.000 HD
ATOM     11  H   UNL     1       6.988   3.425  18.825  0.00  0.00    +0.000 HD
ENDROOT
BRANCH   8  12
ATOM     12  S   UNL     1       6.150   3.872  16.039  0.00  0.00    +0.000 S 
BRANCH  12  13
ATOM     13  C   UNL     1       4.455   4.519  16.138  0.00  0.00    +0.000 C 
BRANCH  13  14
ATOM     14  C   UNL     1       3.782   4.114  17.433  0.00  0.00    +0.000 A 
ATOM     15  C   UNL     1       3.433   2.773  17.663  0.00  0.00    +0.000 A 
ATOM     16  C   UNL     1       2.819   2.387  18.859  0.00  0.00    +0.000 A 
ATOM     17  C   UNL     1       2.546   3.345  19.835  0.00  0.00    +0.000 A 
ATOM     18 BR   UNL     1       1.735   2.817  21.461  0.00  0.00    +0.000 Br
ATOM     19  C   UNL     1       2.870   4.679  19.621  0.00  0.00    +0.000 A 
ATOM     20  C   UNL     1       3.482   5.065  18.422  0.00  0.00    +0.000 A 
ENDBRANCH  13  14
ENDBRANCH  12  13
ENDBRANCH   8  12
TORSDOF 3
ENDMDL
MODEL 3
REMARK VINA RESULT:      -7.1      3.332      4.898
REMARK  Name = 
REMARK  4 active torsions:
REMARK  status: ('A' for Active; 'I' for Inactive)
REMARK    1  A    between atoms: C_1  and  C_2
REMARK    2  A    between atoms: C_8  and  S_9
REMARK    3  A    between atoms: S_9  and  C_10
REMARK    4  A    between atoms: C_10  and  C_11
REMARK                            x       y       z     vdW  Elec       q    Type
REMARK                         _______ _______ _______ _____ _____    ______ ____
ROOT
ATOM      1  C   UNL     1       5.858   1.919  11.232  0.00  0.00    +0.000 C 
ATOM      2  C   UNL     1       5.489   2.987  12.232  0.00  0.00    +0.000 C 
ATOM      3  O   UNL     1       4.364   3.476  12.239  0.00  0.00    +0.000 OA
ATOM      4  N   UNL     1       6.535   3.308  13.059  0.00  0.00    +0.000 N 
ATOM      5  C   UNL     1       6.476   4.229  14.065  0.00  0.00    +0.000 A 
ATOM      6  N   UNL     1       7.602   4.705  14.609  0.00  0.00    +0.000 NA
ATOM      7  N   UNL     1       7.113   5.612  15.472  0.00  0.00    +0.000 N 
ATOM      8  C   UNL     1       5.756   5.577  15.501  0.00  0.00    +0.000 A 
ATOM      9  N   UNL     1       5.320   4.718  14.615  0.00  0.00    +0.000 NA
ATOM     10  H   UNL     1       7.471   2.986  12.859  0.00  0.00    +0.000 HD
ATOM     11  H   UNL     1       7.739   6.207  16.002  0.00  0.00    +0.000 HD
ENDROOT
BRANCH   8  12
ATOM     12  S   UNL     1       4.878   6.599  16.572  0.00  0.00    +0.000 S 
BRANCH  12  13
ATOM     13  C   UNL     1       5.556   6.103  18.183  0.00  0.00    +0.000 C 
BRANCH  13  14
ATOM     14  C   UNL     1       4.568   5.262  18.966  0.00  0.00    +0.000 A 
ATOM     15  C   UNL     1       3.455   5.861  19.577  0.00  0.00    +0.000 A 
ATOM     16  C   UNL     1       2.533   5.094  20.295  0.00  0.00    +0.000 A 
ATOM     17  C   UNL     1       2.720   3.717  20.409  0.00  0.00    +0.000 A 
ATOM     18 BR   UNL     1       1.460   2.677  21.362  0.00  0.00    +0.000 Br
ATOM     19  C   UNL     1       3.823   3.107  19.824  0.00  0.00    +0.000 A 
ATOM     20  C   UNL     1       4.749   3.877  19.107  0.00  0.00    +0.000 A 
ENDBRANCH  13  14
ENDBRANCH  12  13
ENDBRANCH   8  12
TORSDOF 3
ENDMDL
MODEL 4
REMARK VINA RESULT:      -7.0      3.361      5.025
REMARK  Name = 
REMARK  4 active torsions:
REMARK  status: ('A' for Active; 'I' for Inactive)
REMARK    1  A    between atoms: C_1  and  C_2
REMARK    2  A    between atoms: C_8  and  S_9
REMARK    3  A    between atoms: S_9  and  C_10
REMARK    4  A    between atoms: C_10  and  C_11
REMARK                            x       y       z     vdW  Elec       q    Type
REMARK                         _______ _______ _______ _____ _____    ______ ____
ROOT
ATOM      1  C   UNL     1       6.124   1.866  11.136  0.00  0.00    +0.000 C 
ATOM      2  C   UNL     1       5.689   2.903  12.142  0.00  0.00    +0.000 C 
ATOM      3  O   UNL     1       4.560   3.380  12.101  0.00  0.00    +0.000 OA
ATOM      4  N   UNL     1       6.686   3.212  13.032  0.00  0.00    +0.000 N 
ATOM      5  C   UNL     1       6.561   4.106  14.057  0.00  0.00    +0.000 A 
ATOM      6  N   UNL     1       7.650   4.578  14.675  0.00  0.00    +0.000 NA
ATOM      7  N   UNL     1       7.105   5.457  15.533  0.00  0.00    +0.000 N 
ATOM      8  C   UNL     1       5.749   5.408  15.487  0.00  0.00    +0.000 A 
ATOM      9  N   UNL     1       5.371   4.568  14.556  0.00  0.00    +0.000 NA
ATOM     10  H   UNL     1       7.634   2.906  12.875  0.00  0.00    +0.000 HD
ATOM     11  H   UNL     1       7.694   6.043  16.111  0.00  0.00    +0.000 HD
ENDROOT
BRANCH   8  12
ATOM     12  S   UNL     1       4.802   6.391  16.535  0.00  0.00    +0.000 S 
BRANCH  12  13
ATOM     13  C   UNL     1       5.482   5.946  18.160  0.00  0.00    +0.000 C 
BRANCH  13  14
ATOM     14  C   UNL     1       4.488   5.144  18.976  0.00  0.00    +0.000 A 
ATOM     15  C   UNL     1       4.579   3.744  19.027  0.00  0.00    +0.000 A 
ATOM     16  C   UNL     1       3.672   2.994  19.784  0.00  0.00    +0.000 A 
ATOM     17  C   UNL     1       2.663   3.644  20.494  0.00  0.00    +0.000 A 
ATOM     18 BR   UNL     1       1.451   2.630  21.534  0.00  0.00    +0.000 Br
ATOM     19  C   UNL     1       2.548   5.027  20.444  0.00  0.00    +0.000 A 
ATOM     20  C   UNL     1       3.454   5.778  19.685  0.00  0.00    +0.000 A 
ENDBRANCH  13  14
ENDBRANCH  12  13
ENDBRANCH   8  12
TORSDOF 3
ENDMDL
MODEL 5
REMARK VINA RESULT:      -6.7      1.066      1.093
REMARK  Name = 
REMARK  4 active torsions:
REMARK  status: ('A' for Active; 'I' for Inactive)
REMARK    1  A    between atoms: C_1  and  C_2
REMARK    2  A    between atoms: C_8  and  S_9
REMARK    3  A    between atoms: S_9  and  C_10
REMARK    4  A    between atoms: C_10  and  C_11
REMARK                            x       y       z     vdW  Elec       q    Type
REMARK                         _______ _______ _______ _____ _____    ______ ____
ROOT
ATOM      1  C   UNL     1       9.594  10.402  19.327  0.00  0.00    +0.000 C 
ATOM      2  C   UNL     1       8.612   9.569  18.541  0.00  0.00    +0.000 C 
ATOM      3  O   UNL     1       7.826  10.097  17.761  0.00  0.00    +0.000 OA
ATOM      4  N   UNL     1       8.719   8.232  18.828  0.00  0.00    +0.000 N 
ATOM      5  C   UNL     1       7.965   7.251  18.250  0.00  0.00    +0.000 A 
ATOM      6  N   UNL     1       7.911   6.032  18.800  0.00  0.00    +0.000 NA
ATOM      7  N   UNL     1       7.027   5.420  17.993  0.00  0.00    +0.000 N 
ATOM      8  C   UNL     1       6.675   6.222  16.956  0.00  0.00    +0.000 A 
ATOM      9  N   UNL     1       7.244   7.393  17.093  0.00  0.00    +0.000 NA
ATOM     10  H   UNL     1       9.266   7.913  19.614  0.00  0.00    +0.000 HD
ATOM     11  H   UNL     1       6.715   4.477  18.194  0.00  0.00    +0.000 HD
ENDROOT
BRANCH   8  12
ATOM     12  S   UNL     1       5.600   5.655  15.738  0.00  0.00    +0.000 S 
BRANCH  12  13
ATOM     13  C   UNL     1       5.357   3.927  16.245  0.00  0.00    +0.000 C 
BRANCH  13  14
ATOM     14  C   UNL     1       4.319   3.812  17.342  0.00  0.00    +0.000 A 
ATOM     15  C   UNL     1       3.178   4.631  17.329  0.00  0.00    +0.000 A 
ATOM     16  C   UNL     1       2.210   4.528  18.332  0.00  0.00    +0.000 A 
ATOM     17  C   UNL     1       2.379   3.602  19.362  0.00  0.00    +0.000 A 
ATOM     18 BR   UNL     1       1.057   3.449  20.706  0.00  0.00    +0.000 Br
ATOM     19  C   UNL     1       3.507   2.793  19.401  0.00  0.00    +0.000 A 
ATOM     20  C   UNL     1       4.479   2.899  18.398  0.00  0.00    +0.000 A 
ENDBRANCH  13  14
ENDBRANCH  12  13
ENDBRANCH   8  12
TORSDOF 3
ENDMDL
MODEL 6
REMARK VINA RESULT:      -6.6      3.354      4.537
REMARK  Name = 
REMARK  4 active torsions:
REMARK  status: ('A' for Active; 'I' for Inactive)
REMARK    1  A    between atoms: C_1  and  C_2
REMARK    2  A    between atoms: C_8  and  S_9
REMARK    3  A    between atoms: S_9  and  C_10
REMARK    4  A    between atoms: C_10  and  C_11
REMARK                            x       y       z     vdW  Elec       q    Type
REMARK                         _______ _______ _______ _____ _____    ______ ____
ROOT
ATOM      1  C   UNL     1       7.622   4.867  12.516  0.00  0.00    +0.000 C 
ATOM      2  C   UNL     1       6.919   4.767  13.847  0.00  0.00    +0.000 C 
ATOM      3  O   UNL     1       5.932   4.053  13.982  0.00  0.00    +0.000 OA
ATOM      4  N   UNL     1       7.508   5.554  14.805  0.00  0.00    +0.000 N 
ATOM      5  C   UNL     1       7.089   5.642  16.101  0.00  0.00    +0.000 A 
ATOM      6  N   UNL     1       7.510   6.648  16.877  0.00  0.00    +0.000 NA
ATOM      7  N   UNL     1       6.822   6.414  18.008  0.00  0.00    +0.000 N 
ATOM      8  C   UNL     1       6.121   5.255  17.920  0.00  0.00    +0.000 A 
ATOM      9  N   UNL     1       6.261   4.745  16.723  0.00  0.00    +0.000 NA
ATOM     10  H   UNL     1       8.201   6.244  14.555  0.00  0.00    +0.000 HD
ATOM     11  H   UNL     1       6.875   7.061  18.785  0.00  0.00    +0.000 HD
ENDROOT
BRANCH   8  12
ATOM     12  S   UNL     1       5.200   4.687  19.259  0.00  0.00    +0.000 S 
BRANCH  12  13
ATOM     13  C   UNL     1       3.513   4.743  18.588  0.00  0.00    +0.000 C 
BRANCH  13  14
ATOM     14  C   UNL     1       2.898   6.118  18.748  0.00  0.00    +0.000 A 
ATOM     15  C   UNL     1       2.932   7.039  17.688  0.00  0.00    +0.000 A 
ATOM     16  C   UNL     1       2.360   8.307  17.822  0.00  0.00    +0.000 A 
ATOM     17  C   UNL     1       1.750   8.666  19.024  0.00  0.00    +0.000 A 
ATOM     18 BR   UNL     1       0.958  10.376  19.196  0.00  0.00    +0.000 Br
ATOM     19  C   UNL     1       1.719   7.776  20.089  0.00  0.00    +0.000 A 
ATOM     20  C   UNL     1       2.295   6.506  19.956  0.00  0.00    +0.000 A 
ENDBRANCH  13  14
ENDBRANCH  12  13
ENDBRANCH   8  12
TORSDOF 3
ENDMDL
MODEL 7
REMARK VINA RESULT:      -6.5      3.160      4.066
REMARK  Name = 
REMARK  4 active torsions:
REMARK  status: ('A' for Active; 'I' for Inactive)
REMARK    1  A    between atoms: C_1  and  C_2
REMARK    2  A    between atoms: C_8  and  S_9
REMARK    3  A    between atoms: S_9  and  C_10
REMARK    4  A    between atoms: C_10  and  C_11
REMARK                            x       y       z     vdW  Elec       q    Type
REMARK                         _______ _______ _______ _____ _____    ______ ____
ROOT
ATOM      1  C   UNL     1       8.153   5.324  12.811  0.00  0.00    +0.000 C 
ATOM      2  C   UNL     1       7.143   4.851  13.828  0.00  0.00    +0.000 C 
ATOM      3  O   UNL     1       6.198   4.147  13.489  0.00  0.00    +0.000 OA
ATOM      4  N   UNL     1       7.423   5.309  15.090  0.00  0.00    +0.000 N 
ATOM      5  C   UNL     1       6.685   5.021  16.202  0.00  0.00    +0.000 A 
ATOM      6  N   UNL     1       6.836   5.746  17.317  0.00  0.00    +0.000 NA
ATOM      7  N   UNL     1       5.899   5.202  18.112  0.00  0.00    +0.000 N 
ATOM      8  C   UNL     1       5.312   4.133  17.515  0.00  0.00    +0.000 A 
ATOM      9  N   UNL     1       5.780   3.996  16.300  0.00  0.00    +0.000 NA
ATOM     10  H   UNL     1       8.115   6.029  15.238  0.00  0.00    +0.000 HD
ATOM     11  H   UNL     1       5.715   5.591  19.029  0.00  0.00    +0.000 HD
ENDROOT
BRANCH   8  12
ATOM     12  S   UNL     1       4.118   3.214  18.346  0.00  0.00    +0.000 S 
BRANCH  12  13
ATOM     13  C   UNL     1       2.592   4.062  17.841  0.00  0.00    +0.000 C 
BRANCH  13  14
ATOM     14  C   UNL     1       2.277   5.228  18.755  0.00  0.00    +0.000 A 
ATOM     15  C   UNL     1       2.486   6.547  18.321  0.00  0.00    +0.000 A 
ATOM     16  C   UNL     1       2.191   7.631  19.154  0.00  0.00    +0.000 A 
ATOM     17  C   UNL     1       1.684   7.400  20.433  0.00  0.00    +0.000 A 
ATOM     18 BR   UNL     1       1.265   8.869  21.550  0.00  0.00    +0.000 Br
ATOM     19  C   UNL     1       1.484   6.103  20.886  0.00  0.00    +0.000 A 
ATOM     20  C   UNL     1       1.783   5.017  20.053  0.00  0.00    +0.000 A 
ENDBRANCH  13  14
ENDBRANCH  12  13
ENDBRANCH   8  12
TORSDOF 3
ENDMDL
MODEL 8
REMARK VINA RESULT:      -6.5      3.240      4.286
REMARK  Name = 
REMARK  4 active torsions:
REMARK  status: ('A' for Active; 'I' for Inactive)
REMARK    1  A    between atoms: C_1  and  C_2
REMARK    2  A    between atoms: C_8  and  S_9
REMARK    3  A    between atoms: S_9  and  C_10
REMARK    4  A    between atoms: C_10  and  C_11
REMARK                            x       y       z     vdW  Elec       q    Type
REMARK                         _______ _______ _______ _____ _____    ______ ____
ROOT
ATOM      1  C   UNL     1       7.708   5.018  13.543  0.00  0.00    +0.000 C 
ATOM      2  C   UNL     1       6.788   4.861  14.729  0.00  0.00    +0.000 C 
ATOM      3  O   UNL     1       5.572   4.825  14.578  0.00  0.00    +0.000 OA
ATOM      4  N   UNL     1       7.477   4.785  15.913  0.00  0.00    +0.000 N 
ATOM      5  C   UNL     1       6.897   4.624  17.139  0.00  0.00    +0.000 A 
ATOM      6  N   UNL     1       7.598   4.872  18.253  0.00  0.00    +0.000 NA
ATOM      7  N   UNL     1       6.663   4.676  19.199  0.00  0.00    +0.000 N 
ATOM      8  C   UNL     1       5.504   4.226  18.655  0.00  0.00    +0.000 A 
ATOM      9  N   UNL     1       5.615   4.190  17.351  0.00  0.00    +0.000 NA
ATOM     10  H   UNL     1       8.460   5.008  15.956  0.00  0.00    +0.000 HD
ATOM     11  H   UNL     1       6.873   4.858  20.173  0.00  0.00    +0.000 HD
ENDROOT
BRANCH   8  12
ATOM     12  S   UNL     1       4.161   3.835  19.658  0.00  0.00    +0.000 S 
BRANCH  12  13
ATOM     13  C   UNL     1       2.776   4.486  18.679  0.00  0.00    +0.000 C 
BRANCH  13  14
ATOM     14  C   UNL     1       2.319   5.836  19.194  0.00  0.00    +0.000 A 
ATOM     15  C   UNL     1       1.698   5.943  20.449  0.00  0.00    +0.000 A 
ATOM     16  C   UNL     1       1.280   7.185  20.938  0.00  0.00    +0.000 A 
ATOM     17  C   UNL     1       1.478   8.331  20.169  0.00  0.00    +0.000 A 
ATOM     18 BR   UNL     1       0.930  10.012  20.842  0.00  0.00    +0.000 Br
ATOM     19  C   UNL     1       2.076   8.244  18.919  0.00  0.00    +0.000 A 
ATOM     20  C   UNL     1       2.493   7.000  18.428  0.00  0.00    +0.000 A 
ENDBRANCH  13  14
ENDBRANCH  12  13
ENDBRANCH   8  12
TORSDOF 3
ENDMDL
MODEL 9
REMARK VINA RESULT:      -6.5      5.000      8.768
REMARK  Name = 
REMARK  4 active torsions:
REMARK  status: ('A' for Active; 'I' for Inactive)
REMARK    1  A    between atoms: C_1  and  C_2
REMARK    2  A    between atoms: C_8  and  S_9
REMARK    3  A    between atoms: S_9  and  C_10
REMARK    4  A    between atoms: C_10  and  C_11
REMARK                            x       y       z     vdW  Elec       q    Type
REMARK                         _______ _______ _______ _____ _____    ______ ____
ROOT
ATOM      1  C   UNL     1       5.634   3.695  15.597  0.00  0.00    +0.000 C 
ATOM      2  C   UNL     1       6.281   5.031  15.866  0.00  0.00    +0.000 C 
ATOM      3  O   UNL     1       6.388   5.866  14.974  0.00  0.00    +0.000 OA
ATOM      4  N   UNL     1       6.711   5.148  17.163  0.00  0.00    +0.000 N 
ATOM      5  C   UNL     1       7.316   6.257  17.683  0.00  0.00    +0.000 A 
ATOM      6  N   UNL     1       7.977   6.180  18.845  0.00  0.00    +0.000 NA
ATOM      7  N   UNL     1       8.471   7.426  18.948  0.00  0.00    +0.000 N 
ATOM      8  C   UNL     1       8.017   8.216  17.942  0.00  0.00    +0.000 A 
ATOM      9  N   UNL     1       7.290   7.505  17.118  0.00  0.00    +0.000 NA
ATOM     10  H   UNL     1       6.745   4.345  17.773  0.00  0.00    +0.000 HD
ATOM     11  H   UNL     1       9.092   7.670  19.710  0.00  0.00    +0.000 HD
ENDROOT
BRANCH   8  12
ATOM     12  S   UNL     1       8.450   9.880  17.875  0.00  0.00    +0.000 S 
BRANCH  12  13
ATOM     13  C   UNL     1       9.332  10.089  19.449  0.00  0.00    +0.000 C 
BRANCH  13  14
ATOM     14  C   UNL     1      10.059  11.417  19.506  0.00  0.00    +0.000 A 
ATOM     15  C   UNL     1       9.814  12.316  20.557  0.00  0.00    +0.000 A 
ATOM     16  C   UNL     1      10.485  13.541  20.623  0.00  0.00    +0.000 A 
ATOM     17  C   UNL     1      11.407  13.877  19.632  0.00  0.00    +0.000 A 
ATOM     18 BR   UNL     1      12.330  15.525  19.736  0.00  0.00    +0.000 Br
ATOM     19  C   UNL     1      11.652  13.009  18.577  0.00  0.00    +0.000 A 
ATOM     20  C   UNL     1      10.978  11.783  18.509  0.00  0.00    +0.000 A 
ENDBRANCH  13  14
ENDBRANCH  12  13
ENDBRANCH   8  12
TORSDOF 3
ENDMDL
