MODEL 1
REMARK VINA RESULT:      -6.3      0.000      0.000
REMARK  Name = 
REMARK  1 active torsions:
REMARK  status: ('A' for Active; 'I' for Inactive)
REMARK    1  A    between atoms: C_8  and  O_9
REMARK                            x       y       z     vdW  Elec       q    Type
REMARK                         _______ _______ _______ _____ _____    ______ ____
ROOT
ATOM      1  O   UNL     1       0.899   4.092  17.277  0.00  0.00    +0.000 OA
ATOM      2  C   UNL     1       1.569   3.616  18.185  0.00  0.00    +0.000 C 
ATOM      3  C   UNL     1       0.980   2.708  19.235  0.00  0.00    +0.000 C 
ATOM      4  C   UNL     1       1.605   3.011  20.588  0.00  0.00    +0.000 C 
ATOM      5  C   UNL     1       3.113   2.779  20.543  0.00  0.00    +0.000 C 
ATOM      6  C   UNL     1       3.769   3.451  19.365  0.00  0.00    +0.000 A 
ATOM      7  N   UNL     1       5.118   3.599  19.435  0.00  0.00    +0.000 NA
ATOM      8  C   UNL     1       5.712   4.175  18.375  0.00  0.00    +0.000 A 
ATOM      9  C   UNL     1       5.070   4.625  17.242  0.00  0.00    +0.000 A 
ATOM     10  C   UNL     1       3.691   4.463  17.180  0.00  0.00    +0.000 A 
ATOM     11  C   UNL     1       3.029   3.856  18.250  0.00  0.00    +0.000 A 
ENDROOT
BRANCH   8  12
ATOM     12  O   UNL     1       7.059   4.282  18.486  0.00  0.00    +0.000 OA
ATOM     13  H   UNL     1       7.273   4.664  17.616  0.00  0.00    +0.000 HD
ENDBRANCH   8  12
TORSDOF 1
ENDMDL
MODEL 2
REMARK VINA RESULT:      -6.1      2.632      3.667
REMARK  Name = 
REMARK  1 active torsions:
REMARK  status: ('A' for Active; 'I' for Inactive)
REMARK    1  A    between atoms: C_8  and  O_9
REMARK                            x       y       z     vdW  Elec       q    Type
REMARK                         _______ _______ _______ _____ _____    ______ ____
ROOT
ATOM      1  O   UNL     1       5.480   6.178  15.202  0.00  0.00    +0.000 OA
ATOM      2  C   UNL     1       5.257   5.397  16.119  0.00  0.00    +0.000 C 
ATOM      3  C   UNL     1       4.267   4.266  15.998  0.00  0.00    +0.000 C 
ATOM      4  C   UNL     1       3.517   4.096  17.309  0.00  0.00    +0.000 C 
ATOM      5  C   UNL     1       4.487   3.765  18.439  0.00  0.00    +0.000 C 
ATOM      6  C   UNL     1       5.663   4.705  18.488  0.00  0.00    +0.000 A 
ATOM      7  N   UNL     1       6.376   4.713  19.646  0.00  0.00    +0.000 NA
ATOM      8  C   UNL     1       7.442   5.531  19.686  0.00  0.00    +0.000 A 
ATOM      9  C   UNL     1       7.861   6.352  18.662  0.00  0.00    +0.000 A 
ATOM     10  C   UNL     1       7.129   6.330  17.482  0.00  0.00    +0.000 A 
ATOM     11  C   UNL     1       6.020   5.485  17.385  0.00  0.00    +0.000 A 
ENDROOT
BRANCH   8  12
ATOM     12  O   UNL     1       8.128   5.489  20.854  0.00  0.00    +0.000 OA
ATOM     13  H   UNL     1       8.961   5.912  20.579  0.00  0.00    +0.000 HD
ENDBRANCH   8  12
TORSDOF 1
ENDMDL
MODEL 3
REMARK VINA RESULT:      -5.9      2.348      4.436
REMARK  Name = 
REMARK  1 active torsions:
REMARK  status: ('A' for Active; 'I' for Inactive)
REMARK    1  A    between atoms: C_8  and  O_9
REMARK                            x       y       z     vdW  Elec       q    Type
REMARK                         _______ _______ _______ _____ _____    ______ ____
ROOT
ATOM      1  O   UNL     1       5.930   6.183  15.360  0.00  0.00    +0.000 OA
ATOM      2  C   UNL     1       6.113   6.051  16.564  0.00  0.00    +0.000 C 
ATOM      3  C   UNL     1       6.943   7.022  17.368  0.00  0.00    +0.000 C 
ATOM      4  C   UNL     1       7.751   6.267  18.410  0.00  0.00    +0.000 C 
ATOM      5  C   UNL     1       6.825   5.521  19.367  0.00  0.00    +0.000 C 
ATOM      6  C   UNL     1       5.782   4.706  18.647  0.00  0.00    +0.000 A 
ATOM      7  N   UNL     1       5.156   3.750  19.383  0.00  0.00    +0.000 NA
ATOM      8  C   UNL     1       4.206   3.037  18.753  0.00  0.00    +0.000 A 
ATOM      9  C   UNL     1       3.826   3.193  17.438  0.00  0.00    +0.000 A 
ATOM     10  C   UNL     1       4.469   4.178  16.698  0.00  0.00    +0.000 A 
ATOM     11  C   UNL     1       5.453   4.956  17.312  0.00  0.00    +0.000 A 
ENDROOT
BRANCH   8  12
ATOM     12  O   UNL     1       3.599   2.111  19.535  0.00  0.00    +0.000 OA
ATOM     13  H   UNL     1       2.829   2.622  19.841  0.00  0.00    +0.000 HD
ENDBRANCH   8  12
TORSDOF 1
ENDMDL
MODEL 4
REMARK VINA RESULT:      -5.9      2.896      4.018
REMARK  Name = 
REMARK  1 active torsions:
REMARK  status: ('A' for Active; 'I' for Inactive)
REMARK    1  A    between atoms: C_8  and  O_9
REMARK                            x       y       z     vdW  Elec       q    Type
REMARK                         _______ _______ _______ _____ _____    ______ ____
ROOT
ATOM      1  O   UNL     1       3.442   3.360  17.239  0.00  0.00    +0.000 OA
ATOM      2  C   UNL     1       4.522   3.859  17.529  0.00  0.00    +0.000 C 
ATOM      3  C   UNL     1       5.017   3.947  18.952  0.00  0.00    +0.000 C 
ATOM      4  C   UNL     1       5.741   5.267  19.164  0.00  0.00    +0.000 C 
ATOM      5  C   UNL     1       6.944   5.371  18.230  0.00  0.00    +0.000 C 
ATOM      6  C   UNL     1       6.597   5.050  16.799  0.00  0.00    +0.000 A 
ATOM      7  N   UNL     1       7.494   5.453  15.861  0.00  0.00    +0.000 NA
ATOM      8  C   UNL     1       7.202   5.146  14.585  0.00  0.00    +0.000 A 
ATOM      9  C   UNL     1       6.080   4.468  14.159  0.00  0.00    +0.000 A 
ATOM     10  C   UNL     1       5.175   4.056  15.129  0.00  0.00    +0.000 A 
ATOM     11  C   UNL     1       5.440   4.338  16.471  0.00  0.00    +0.000 A 
ENDROOT
BRANCH   8  12
ATOM     12  O   UNL     1       8.136   5.553  13.690  0.00  0.00    +0.000 OA
ATOM     13  H   UNL     1       7.984   6.515  13.709  0.00  0.00    +0.000 HD
ENDBRANCH   8  12
TORSDOF 1
ENDMDL
MODEL 5
REMARK VINA RESULT:      -5.8      2.271      2.749
REMARK  Name = 
REMARK  1 active torsions:
REMARK  status: ('A' for Active; 'I' for Inactive)
REMARK    1  A    between atoms: C_8  and  O_9
REMARK                            x       y       z     vdW  Elec       q    Type
REMARK                         _______ _______ _______ _____ _____    ______ ____
ROOT
ATOM      1  O   UNL     1       3.297   7.811  17.490  0.00  0.00    +0.000 OA
ATOM      2  C   UNL     1       3.473   6.708  17.993  0.00  0.00    +0.000 C 
ATOM      3  C   UNL     1       2.353   5.919  18.626  0.00  0.00    +0.000 C 
ATOM      4  C   UNL     1       2.864   5.203  19.865  0.00  0.00    +0.000 C 
ATOM      5  C   UNL     1       3.985   4.235  19.498  0.00  0.00    +0.000 C 
ATOM      6  C   UNL     1       5.046   4.874  18.640  0.00  0.00    +0.000 A 
ATOM      7  N   UNL     1       6.232   4.214  18.562  0.00  0.00    +0.000 NA
ATOM      8  C   UNL     1       7.173   4.766  17.777  0.00  0.00    +0.000 A 
ATOM      9  C   UNL     1       7.035   5.934  17.060  0.00  0.00    +0.000 A 
ATOM     10  C   UNL     1       5.817   6.596  17.143  0.00  0.00    +0.000 A 
ATOM     11  C   UNL     1       4.801   6.054  17.933  0.00  0.00    +0.000 A 
ENDROOT
BRANCH   8  12
ATOM     12  O   UNL     1       8.329   4.060  17.719  0.00  0.00    +0.000 OA
ATOM     13  H   UNL     1       8.486   4.066  16.758  0.00  0.00    +0.000 HD
ENDBRANCH   8  12
TORSDOF 1
ENDMDL
MODEL 6
REMARK VINA RESULT:      -5.8      1.734      4.831
REMARK  Name = 
REMARK  1 active torsions:
REMARK  status: ('A' for Active; 'I' for Inactive)
REMARK    1  A    between atoms: C_8  and  O_9
REMARK                            x       y       z     vdW  Elec       q    Type
REMARK                         _______ _______ _______ _____ _____    ______ ____
ROOT
ATOM      1  O   UNL     1       6.874   5.489  19.753  0.00  0.00    +0.000 OA
ATOM      2  C   UNL     1       6.543   4.977  18.690  0.00  0.00    +0.000 C 
ATOM      3  C   UNL     1       7.549   4.534  17.657  0.00  0.00    +0.000 C 
ATOM      4  C   UNL     1       7.021   4.833  16.263  0.00  0.00    +0.000 C 
ATOM      5  C   UNL     1       5.716   4.082  16.015  0.00  0.00    +0.000 C 
ATOM      6  C   UNL     1       4.721   4.262  17.132  0.00  0.00    +0.000 A 
ATOM      7  N   UNL     1       3.433   3.936  16.846  0.00  0.00    +0.000 NA
ATOM      8  C   UNL     1       2.546   4.070  17.847  0.00  0.00    +0.000 A 
ATOM      9  C   UNL     1       2.834   4.510  19.121  0.00  0.00    +0.000 A 
ATOM     10  C   UNL     1       4.155   4.833  19.403  0.00  0.00    +0.000 A 
ATOM     11  C   UNL     1       5.118   4.696  18.400  0.00  0.00    +0.000 A 
ENDROOT
BRANCH   8  12
ATOM     12  O   UNL     1       1.280   3.716  17.516  0.00  0.00    +0.000 OA
ATOM     13  H   UNL     1       0.847   3.796  18.384  0.00  0.00    +0.000 HD
ENDBRANCH   8  12
TORSDOF 1
ENDMDL
MODEL 7
REMARK VINA RESULT:      -5.8      2.344      4.339
REMARK  Name = 
REMARK  1 active torsions:
REMARK  status: ('A' for Active; 'I' for Inactive)
REMARK    1  A    between atoms: C_8  and  O_9
REMARK                            x       y       z     vdW  Elec       q    Type
REMARK                         _______ _______ _______ _____ _____    ______ ____
ROOT
ATOM      1  O   UNL     1       3.424   7.632  17.758  0.00  0.00    +0.000 OA
ATOM      2  C   UNL     1       3.976   6.587  17.435  0.00  0.00    +0.000 C 
ATOM      3  C   UNL     1       5.368   6.553  16.854  0.00  0.00    +0.000 C 
ATOM      4  C   UNL     1       5.447   5.493  15.768  0.00  0.00    +0.000 C 
ATOM      5  C   UNL     1       5.134   4.115  16.344  0.00  0.00    +0.000 C 
ATOM      6  C   UNL     1       3.870   4.102  17.165  0.00  0.00    +0.000 A 
ATOM      7  N   UNL     1       3.329   2.880  17.414  0.00  0.00    +0.000 NA
ATOM      8  C   UNL     1       2.217   2.862  18.167  0.00  0.00    +0.000 A 
ATOM      9  C   UNL     1       1.587   3.967  18.696  0.00  0.00    +0.000 A 
ATOM     10  C   UNL     1       2.153   5.210  18.439  0.00  0.00    +0.000 A 
ATOM     11  C   UNL     1       3.319   5.281  17.674  0.00  0.00    +0.000 A 
ENDROOT
BRANCH   8  12
ATOM     12  O   UNL     1       1.728   1.619  18.402  0.00  0.00    +0.000 OA
ATOM     13  H   UNL     1       2.559   1.129  18.532  0.00  0.00    +0.000 HD
ENDBRANCH   8  12
TORSDOF 1
ENDMDL
MODEL 8
REMARK VINA RESULT:      -5.7      1.860      4.755
REMARK  Name = 
REMARK  1 active torsions:
REMARK  status: ('A' for Active; 'I' for Inactive)
REMARK    1  A    between atoms: C_8  and  O_9
REMARK                            x       y       z     vdW  Elec       q    Type
REMARK                         _______ _______ _______ _____ _____    ______ ____
ROOT
ATOM      1  O   UNL     1       6.904   5.314  19.941  0.00  0.00    +0.000 OA
ATOM      2  C   UNL     1       6.403   5.317  18.824  0.00  0.00    +0.000 C 
ATOM      3  C   UNL     1       6.962   6.138  17.688  0.00  0.00    +0.000 C 
ATOM      4  C   UNL     1       5.826   6.708  16.856  0.00  0.00    +0.000 C 
ATOM      5  C   UNL     1       4.981   5.583  16.264  0.00  0.00    +0.000 C 
ATOM      6  C   UNL     1       4.576   4.559  17.293  0.00  0.00    +0.000 A 
ATOM      7  N   UNL     1       3.552   3.734  16.946  0.00  0.00    +0.000 NA
ATOM      8  C   UNL     1       3.203   2.802  17.850  0.00  0.00    +0.000 A 
ATOM      9  C   UNL     1       3.790   2.622  19.084  0.00  0.00    +0.000 A 
ATOM     10  C   UNL     1       4.839   3.467  19.424  0.00  0.00    +0.000 A 
ATOM     11  C   UNL     1       5.249   4.443  18.512  0.00  0.00    +0.000 A 
ENDROOT
BRANCH   8  12
ATOM     12  O   UNL     1       2.192   1.994  17.450  0.00  0.00    +0.000 OA
ATOM     13  H   UNL     1       2.690   1.341  16.926  0.00  0.00    +0.000 HD
ENDBRANCH   8  12
TORSDOF 1
ENDMDL
MODEL 9
REMARK VINA RESULT:      -5.7      2.230      2.980
REMARK  Name = 
REMARK  1 active torsions:
REMARK  status: ('A' for Active; 'I' for Inactive)
REMARK    1  A    between atoms: C_8  and  O_9
REMARK                            x       y       z     vdW  Elec       q    Type
REMARK                         _______ _______ _______ _____ _____    ______ ____
ROOT
ATOM      1  O   UNL     1       4.966   4.103  15.316  0.00  0.00    +0.000 OA
ATOM      2  C   UNL     1       4.635   4.146  16.495  0.00  0.00    +0.000 C 
ATOM      3  C   UNL     1       3.278   3.692  16.972  0.00  0.00    +0.000 C 
ATOM      4  C   UNL     1       2.785   4.615  18.075  0.00  0.00    +0.000 C 
ATOM      5  C   UNL     1       3.745   4.588  19.262  0.00  0.00    +0.000 C 
ATOM      6  C   UNL     1       5.181   4.786  18.851  0.00  0.00    +0.000 A 
ATOM      7  N   UNL     1       6.046   5.127  19.842  0.00  0.00    +0.000 NA
ATOM      8  C   UNL     1       7.333   5.280  19.486  0.00  0.00    +0.000 A 
ATOM      9  C   UNL     1       7.837   5.123  18.213  0.00  0.00    +0.000 A 
ATOM     10  C   UNL     1       6.944   4.768  17.210  0.00  0.00    +0.000 A 
ATOM     11  C   UNL     1       5.598   4.583  17.533  0.00  0.00    +0.000 A 
ENDROOT
BRANCH   8  12
ATOM     12  O   UNL     1       8.157   5.602  20.513  0.00  0.00    +0.000 OA
ATOM     13  H   UNL     1       8.705   6.284  20.086  0.00  0.00    +0.000 HD
ENDBRANCH   8  12
TORSDOF 1
ENDMDL
