MODEL 1
REMARK VINA RESULT:      -6.7      0.000      0.000
REMARK  Name = 
REMARK  5 active torsions:
REMARK  status: ('A' for Active; 'I' for Inactive)
REMARK    1  A    between atoms: N_1  and  C_2
REMARK    2  A    between atoms: C_2  and  C_3
REMARK    3  A    between atoms: C_2  and  C_5
REMARK    4  A    between atoms: C_3  and  S_4
REMARK    5  A    between atoms: C_5  and  C_6
REMARK                            x       y       z     vdW  Elec       q    Type
REMARK                         _______ _______ _______ _____ _____    ______ ____
ROOT
ATOM      1  C   UNL     1       4.280   5.410  17.027  0.00  0.00    +0.000 A 
ATOM      2  C   UNL     1       3.823   6.359  17.945  0.00  0.00    +0.000 A 
ATOM      3  C   UNL     1       2.852   6.018  18.890  0.00  0.00    +0.000 A 
ATOM      4  C   UNL     1       2.305   4.725  18.925  0.00  0.00    +0.000 A 
ATOM      5  C   UNL     1       1.327   4.368  19.867  0.00  0.00    +0.000 A 
ATOM      6  C   UNL     1       0.787   3.079  19.879  0.00  0.00    +0.000 A 
ATOM      7  C   UNL     1       1.216   2.135  18.953  0.00  0.00    +0.000 A 
ATOM      8  C   UNL     1       2.189   2.475  18.011  0.00  0.00    +0.000 A 
ATOM      9  C   UNL     1       2.746   3.761  17.988  0.00  0.00    +0.000 A 
ATOM     10  C   UNL     1       3.736   4.116  17.058  0.00  0.00    +0.000 A 
ENDROOT
BRANCH   1  11
ATOM     11  C   UNL     1       5.328   5.772  16.000  0.00  0.00    +0.000 C 
BRANCH  11  12
ATOM     12  C   UNL     1       6.609   4.913  16.073  0.00  0.00    +0.000 C 
BRANCH  12  13
ATOM     13  N   UNL     1       7.515   5.327  14.980  0.00  0.00    +0.000 NA
ATOM     14  H   UNL     1       7.857   6.268  15.190  0.00  0.00    +0.000 HD
ATOM     15  H   UNL     1       6.988   5.433  14.113  0.00  0.00    +0.000 HD
ENDBRANCH  12  13
BRANCH  12  16
ATOM     16  C   UNL     1       7.308   5.010  17.447  0.00  0.00    +0.000 C 
BRANCH  16  17
ATOM     17  S   UNL     1       7.633   6.736  17.943  0.00  0.00    +0.000 S 
ATOM     18  H   UNL     1       6.615   7.275  17.254  0.00  0.00    +0.000 HD
ENDBRANCH  16  17
ENDBRANCH  12  16
ENDBRANCH  11  12
ENDBRANCH   1  11
TORSDOF 5
ENDMDL
MODEL 2
REMARK VINA RESULT:      -6.5      0.881      1.967
REMARK  Name = 
REMARK  5 active torsions:
REMARK  status: ('A' for Active; 'I' for Inactive)
REMARK    1  A    between atoms: N_1  and  C_2
REMARK    2  A    between atoms: C_2  and  C_3
REMARK    3  A    between atoms: C_2  and  C_5
REMARK    4  A    between atoms: C_3  and  S_4
REMARK    5  A    between atoms: C_5  and  C_6
REMARK                            x       y       z     vdW  Elec       q    Type
REMARK                         _______ _______ _______ _____ _____    ______ ____
ROOT
ATOM      1  C   UNL     1       4.334   5.055  16.947  0.00  0.00    +0.000 A 
ATOM      2  C   UNL     1       4.135   3.703  16.655  0.00  0.00    +0.000 A 
ATOM      3  C   UNL     1       3.248   2.940  17.419  0.00  0.00    +0.000 A 
ATOM      4  C   UNL     1       2.557   3.507  18.501  0.00  0.00    +0.000 A 
ATOM      5  C   UNL     1       1.665   2.753  19.279  0.00  0.00    +0.000 A 
ATOM      6  C   UNL     1       0.993   3.332  20.358  0.00  0.00    +0.000 A 
ATOM      7  C   UNL     1       1.206   4.670  20.673  0.00  0.00    +0.000 A 
ATOM      8  C   UNL     1       2.089   5.435  19.907  0.00  0.00    +0.000 A 
ATOM      9  C   UNL     1       2.765   4.870  18.817  0.00  0.00    +0.000 A 
ATOM     10  C   UNL     1       3.645   5.628  18.027  0.00  0.00    +0.000 A 
ENDROOT
BRANCH   1  11
ATOM     11  C   UNL     1       5.293   5.887  16.127  0.00  0.00    +0.000 C 
BRANCH  11  12
ATOM     12  C   UNL     1       6.783   5.599  16.409  0.00  0.00    +0.000 C 
BRANCH  12  13
ATOM     13  N   UNL     1       7.515   5.605  15.124  0.00  0.00    +0.000 NA
ATOM     14  H   UNL     1       8.517   5.555  15.327  0.00  0.00    +0.000 HD
ATOM     15  H   UNL     1       7.392   6.504  14.658  0.00  0.00    +0.000 HD
ENDBRANCH  12  13
BRANCH  12  16
ATOM     16  C   UNL     1       7.400   6.604  17.408  0.00  0.00    +0.000 C 
BRANCH  16  17
ATOM     17  S   UNL     1       7.702   5.859  19.047  0.00  0.00    +0.000 S 
ATOM     18  H   UNL     1       8.583   4.940  18.624  0.00  0.00    +0.000 HD
ENDBRANCH  16  17
ENDBRANCH  12  16
ENDBRANCH  11  12
ENDBRANCH   1  11
TORSDOF 5
ENDMDL
MODEL 3
REMARK VINA RESULT:      -6.4      1.841      2.084
REMARK  Name = 
REMARK  5 active torsions:
REMARK  status: ('A' for Active; 'I' for Inactive)
REMARK    1  A    between atoms: N_1  and  C_2
REMARK    2  A    between atoms: C_2  and  C_3
REMARK    3  A    between atoms: C_2  and  C_5
REMARK    4  A    between atoms: C_3  and  S_4
REMARK    5  A    between atoms: C_5  and  C_6
REMARK                            x       y       z     vdW  Elec       q    Type
REMARK                         _______ _______ _______ _____ _____    ______ ____
ROOT
ATOM      1  C   UNL     1       4.516   4.296  16.836  0.00  0.00    +0.000 A 
ATOM      2  C   UNL     1       4.451   5.612  17.301  0.00  0.00    +0.000 A 
ATOM      3  C   UNL     1       3.591   5.948  18.350  0.00  0.00    +0.000 A 
ATOM      4  C   UNL     1       2.766   4.979  18.944  0.00  0.00    +0.000 A 
ATOM      5  C   UNL     1       1.897   5.302  19.997  0.00  0.00    +0.000 A 
ATOM      6  C   UNL     1       1.076   4.327  20.569  0.00  0.00    +0.000 A 
ATOM      7  C   UNL     1       1.115   3.019  20.095  0.00  0.00    +0.000 A 
ATOM      8  C   UNL     1       1.977   2.682  19.049  0.00  0.00    +0.000 A 
ATOM      9  C   UNL     1       2.811   3.647  18.469  0.00  0.00    +0.000 A 
ATOM     10  C   UNL     1       3.694   3.323  17.427  0.00  0.00    +0.000 A 
ENDROOT
BRANCH   1  11
ATOM     11  C   UNL     1       5.442   3.924  15.701  0.00  0.00    +0.000 C 
BRANCH  11  12
ATOM     12  C   UNL     1       6.639   4.883  15.519  0.00  0.00    +0.000 C 
BRANCH  12  13
ATOM     13  N   UNL     1       7.712   4.477  16.451  0.00  0.00    +0.000 NA
ATOM     14  H   UNL     1       8.552   5.015  16.223  0.00  0.00    +0.000 HD
ATOM     15  H   UNL     1       7.974   3.507  16.277  0.00  0.00    +0.000 HD
ENDBRANCH  12  13
BRANCH  12  16
ATOM     16  C   UNL     1       7.149   4.922  14.061  0.00  0.00    +0.000 C 
BRANCH  16  17
ATOM     17  S   UNL     1       6.280   3.728  12.988  0.00  0.00    +0.000 S 
ATOM     18  H   UNL     1       6.111   2.788  13.930  0.00  0.00    +0.000 HD
ENDBRANCH  16  17
ENDBRANCH  12  16
ENDBRANCH  11  12
ENDBRANCH   1  11
TORSDOF 5
ENDMDL
MODEL 4
REMARK VINA RESULT:      -6.3      3.276      5.752
REMARK  Name = 
REMARK  5 active torsions:
REMARK  status: ('A' for Active; 'I' for Inactive)
REMARK    1  A    between atoms: N_1  and  C_2
REMARK    2  A    between atoms: C_2  and  C_3
REMARK    3  A    between atoms: C_2  and  C_5
REMARK    4  A    between atoms: C_3  and  S_4
REMARK    5  A    between atoms: C_5  and  C_6
REMARK                            x       y       z     vdW  Elec       q    Type
REMARK                         _______ _______ _______ _____ _____    ______ ____
ROOT
ATOM      1  C   UNL     1       3.957   3.950  18.514  0.00  0.00    +0.000 A 
ATOM      2  C   UNL     1       3.535   4.752  17.452  0.00  0.00    +0.000 A 
ATOM      3  C   UNL     1       4.345   5.790  16.985  0.00  0.00    +0.000 A 
ATOM      4  C   UNL     1       5.587   6.059  17.584  0.00  0.00    +0.000 A 
ATOM      5  C   UNL     1       6.410   7.100  17.127  0.00  0.00    +0.000 A 
ATOM      6  C   UNL     1       7.638   7.360  17.742  0.00  0.00    +0.000 A 
ATOM      7  C   UNL     1       8.055   6.583  18.818  0.00  0.00    +0.000 A 
ATOM      8  C   UNL     1       7.247   5.543  19.282  0.00  0.00    +0.000 A 
ATOM      9  C   UNL     1       6.016   5.265  18.672  0.00  0.00    +0.000 A 
ATOM     10  C   UNL     1       5.198   4.214  19.116  0.00  0.00    +0.000 A 
ENDROOT
BRANCH   1  11
ATOM     11  C   UNL     1       3.086   2.826  19.026  0.00  0.00    +0.000 C 
BRANCH  11  12
ATOM     12  C   UNL     1       1.570   3.099  18.917  0.00  0.00    +0.000 C 
BRANCH  12  13
ATOM     13  N   UNL     1       0.916   1.900  18.351  0.00  0.00    +0.000 NA
ATOM     14  H   UNL     1       0.463   1.393  19.116  0.00  0.00    +0.000 HD
ATOM     15  H   UNL     1       1.622   1.254  17.997  0.00  0.00    +0.000 HD
ENDBRANCH  12  13
BRANCH  12  16
ATOM     16  C   UNL     1       0.941   3.492  20.273  0.00  0.00    +0.000 C 
BRANCH  16  17
ATOM     17  S   UNL     1       2.056   3.158  21.679  0.00  0.00    +0.000 S 
ATOM     18  H   UNL     1       1.414   2.062  22.111  0.00  0.00    +0.000 HD
ENDBRANCH  16  17
ENDBRANCH  12  16
ENDBRANCH  11  12
ENDBRANCH   1  11
TORSDOF 5
ENDMDL
MODEL 5
REMARK VINA RESULT:      -6.3      1.437      2.227
REMARK  Name = 
REMARK  5 active torsions:
REMARK  status: ('A' for Active; 'I' for Inactive)
REMARK    1  A    between atoms: N_1  and  C_2
REMARK    2  A    between atoms: C_2  and  C_3
REMARK    3  A    between atoms: C_2  and  C_5
REMARK    4  A    between atoms: C_3  and  S_4
REMARK    5  A    between atoms: C_5  and  C_6
REMARK                            x       y       z     vdW  Elec       q    Type
REMARK                         _______ _______ _______ _____ _____    ______ ____
ROOT
ATOM      1  C   UNL     1       4.741   5.120  17.851  0.00  0.00    +0.000 A 
ATOM      2  C   UNL     1       4.267   4.248  16.869  0.00  0.00    +0.000 A 
ATOM      3  C   UNL     1       3.122   3.481  17.098  0.00  0.00    +0.000 A 
ATOM      4  C   UNL     1       2.437   3.557  18.322  0.00  0.00    +0.000 A 
ATOM      5  C   UNL     1       1.287   2.791  18.568  0.00  0.00    +0.000 A 
ATOM      6  C   UNL     1       0.626   2.872  19.796  0.00  0.00    +0.000 A 
ATOM      7  C   UNL     1       1.105   3.718  20.790  0.00  0.00    +0.000 A 
ATOM      8  C   UNL     1       2.247   4.488  20.560  0.00  0.00    +0.000 A 
ATOM      9  C   UNL     1       2.919   4.423  19.331  0.00  0.00    +0.000 A 
ATOM     10  C   UNL     1       4.060   5.200  19.077  0.00  0.00    +0.000 A 
ENDROOT
BRANCH   1  11
ATOM     11  C   UNL     1       5.980   5.952  17.612  0.00  0.00    +0.000 C 
BRANCH  11  12
ATOM     12  C   UNL     1       7.163   5.608  18.542  0.00  0.00    +0.000 C 
BRANCH  12  13
ATOM     13  N   UNL     1       7.825   4.388  18.029  0.00  0.00    +0.000 NA
ATOM     14  H   UNL     1       8.326   3.948  18.805  0.00  0.00    +0.000 HD
ATOM     15  H   UNL     1       8.554   4.643  17.364  0.00  0.00    +0.000 HD
ENDBRANCH  12  13
BRANCH  12  16
ATOM     16  C   UNL     1       8.167   6.774  18.677  0.00  0.00    +0.000 C 
BRANCH  16  17
ATOM     17  S   UNL     1       7.712   8.208  17.644  0.00  0.00    +0.000 S 
ATOM     18  H   UNL     1       8.200   9.142  18.474  0.00  0.00    +0.000 HD
ENDBRANCH  16  17
ENDBRANCH  12  16
ENDBRANCH  11  12
ENDBRANCH   1  11
TORSDOF 5
ENDMDL
MODEL 6
REMARK VINA RESULT:      -6.3      1.519      1.953
REMARK  Name = 
REMARK  5 active torsions:
REMARK  status: ('A' for Active; 'I' for Inactive)
REMARK    1  A    between atoms: N_1  and  C_2
REMARK    2  A    between atoms: C_2  and  C_3
REMARK    3  A    between atoms: C_2  and  C_5
REMARK    4  A    between atoms: C_3  and  S_4
REMARK    5  A    between atoms: C_5  and  C_6
REMARK                            x       y       z     vdW  Elec       q    Type
REMARK                         _______ _______ _______ _____ _____    ______ ____
ROOT
ATOM      1  C   UNL     1       4.224   3.756  17.356  0.00  0.00    +0.000 A 
ATOM      2  C   UNL     1       2.939   4.070  16.909  0.00  0.00    +0.000 A 
ATOM      3  C   UNL     1       1.843   3.950  17.769  0.00  0.00    +0.000 A 
ATOM      4  C   UNL     1       2.009   3.497  19.087  0.00  0.00    +0.000 A 
ATOM      5  C   UNL     1       0.918   3.369  19.961  0.00  0.00    +0.000 A 
ATOM      6  C   UNL     1       1.101   2.906  21.267  0.00  0.00    +0.000 A 
ATOM      7  C   UNL     1       2.374   2.567  21.713  0.00  0.00    +0.000 A 
ATOM      8  C   UNL     1       3.469   2.690  20.856  0.00  0.00    +0.000 A 
ATOM      9  C   UNL     1       3.304   3.159  19.545  0.00  0.00    +0.000 A 
ATOM     10  C   UNL     1       4.396   3.303  18.674  0.00  0.00    +0.000 A 
ENDROOT
BRANCH   1  11
ATOM     11  C   UNL     1       5.414   3.881  16.433  0.00  0.00    +0.000 C 
BRANCH  11  12
ATOM     12  C   UNL     1       6.543   4.786  16.973  0.00  0.00    +0.000 C 
BRANCH  12  13
ATOM     13  N   UNL     1       7.737   4.608  16.118  0.00  0.00    +0.000 NA
ATOM     14  H   UNL     1       7.817   5.427  15.509  0.00  0.00    +0.000 HD
ATOM     15  H   UNL     1       7.593   3.826  15.480  0.00  0.00    +0.000 HD
ENDBRANCH  12  13
BRANCH  12  16
ATOM     16  C   UNL     1       6.124   6.272  17.047  0.00  0.00    +0.000 C 
BRANCH  16  17
ATOM     17  S   UNL     1       7.500   7.358  17.554  0.00  0.00    +0.000 S 
ATOM     18  H   UNL     1       7.585   8.029  16.395  0.00  0.00    +0.000 HD
ENDBRANCH  16  17
ENDBRANCH  12  16
ENDBRANCH  11  12
ENDBRANCH   1  11
TORSDOF 5
ENDMDL
MODEL 7
REMARK VINA RESULT:      -6.3      1.965      2.214
REMARK  Name = 
REMARK  5 active torsions:
REMARK  status: ('A' for Active; 'I' for Inactive)
REMARK    1  A    between atoms: N_1  and  C_2
REMARK    2  A    between atoms: C_2  and  C_3
REMARK    3  A    between atoms: C_2  and  C_5
REMARK    4  A    between atoms: C_3  and  S_4
REMARK    5  A    between atoms: C_5  and  C_6
REMARK                            x       y       z     vdW  Elec       q    Type
REMARK                         _______ _______ _______ _____ _____    ______ ____
ROOT
ATOM      1  C   UNL     1       5.085   4.517  18.049  0.00  0.00    +0.000 A 
ATOM      2  C   UNL     1       4.012   5.107  17.378  0.00  0.00    +0.000 A 
ATOM      3  C   UNL     1       2.706   4.935  17.845  0.00  0.00    +0.000 A 
ATOM      4  C   UNL     1       2.446   4.154  18.983  0.00  0.00    +0.000 A 
ATOM      5  C   UNL     1       1.139   3.971  19.463  0.00  0.00    +0.000 A 
ATOM      6  C   UNL     1       0.899   3.181  20.590  0.00  0.00    +0.000 A 
ATOM      7  C   UNL     1       1.958   2.567  21.249  0.00  0.00    +0.000 A 
ATOM      8  C   UNL     1       3.264   2.742  20.785  0.00  0.00    +0.000 A 
ATOM      9  C   UNL     1       3.523   3.536  19.659  0.00  0.00    +0.000 A 
ATOM     10  C   UNL     1       4.830   3.735  19.187  0.00  0.00    +0.000 A 
ENDROOT
BRANCH   1  11
ATOM     11  C   UNL     1       6.500   4.696  17.549  0.00  0.00    +0.000 C 
BRANCH  11  12
ATOM     12  C   UNL     1       6.616   5.552  16.269  0.00  0.00    +0.000 C 
BRANCH  12  13
ATOM     13  N   UNL     1       7.490   6.711  16.556  0.00  0.00    +0.000 NA
ATOM     14  H   UNL     1       8.425   6.357  16.774  0.00  0.00    +0.000 HD
ATOM     15  H   UNL     1       7.183   7.172  17.412  0.00  0.00    +0.000 HD
ENDBRANCH  12  13
BRANCH  12  16
ATOM     16  C   UNL     1       7.140   4.742  15.062  0.00  0.00    +0.000 C 
BRANCH  16  17
ATOM     17  S   UNL     1       5.788   4.060  14.042  0.00  0.00    +0.000 S 
ATOM     18  H   UNL     1       6.428   4.168  12.868  0.00  0.00    +0.000 HD
ENDBRANCH  16  17
ENDBRANCH  12  16
ENDBRANCH  11  12
ENDBRANCH   1  11
TORSDOF 5
ENDMDL
MODEL 8
REMARK VINA RESULT:      -6.2      2.039      2.196
REMARK  Name = 
REMARK  5 active torsions:
REMARK  status: ('A' for Active; 'I' for Inactive)
REMARK    1  A    between atoms: N_1  and  C_2
REMARK    2  A    between atoms: C_2  and  C_3
REMARK    3  A    between atoms: C_2  and  C_5
REMARK    4  A    between atoms: C_3  and  S_4
REMARK    5  A    between atoms: C_5  and  C_6
REMARK                            x       y       z     vdW  Elec       q    Type
REMARK                         _______ _______ _______ _____ _____    ______ ____
ROOT
ATOM      1  C   UNL     1       5.059   4.475  17.567  0.00  0.00    +0.000 A 
ATOM      2  C   UNL     1       5.095   5.383  18.627  0.00  0.00    +0.000 A 
ATOM      3  C   UNL     1       4.065   5.410  19.571  0.00  0.00    +0.000 A 
ATOM      4  C   UNL     1       2.968   4.540  19.464  0.00  0.00    +0.000 A 
ATOM      5  C   UNL     1       1.925   4.556  20.403  0.00  0.00    +0.000 A 
ATOM      6  C   UNL     1       0.836   3.690  20.274  0.00  0.00    +0.000 A 
ATOM      7  C   UNL     1       0.778   2.799  19.207  0.00  0.00    +0.000 A 
ATOM      8  C   UNL     1       1.809   2.770  18.266  0.00  0.00    +0.000 A 
ATOM      9  C   UNL     1       2.911   3.628  18.384  0.00  0.00    +0.000 A 
ATOM     10  C   UNL     1       3.964   3.602  17.456  0.00  0.00    +0.000 A 
ENDROOT
BRANCH   1  11
ATOM     11  C   UNL     1       6.168   4.441  16.541  0.00  0.00    +0.000 C 
BRANCH  11  12
ATOM     12  C   UNL     1       5.738   4.896  15.129  0.00  0.00    +0.000 C 
BRANCH  12  13
ATOM     13  N   UNL     1       5.441   6.344  15.173  0.00  0.00    +0.000 NA
ATOM     14  H   UNL     1       5.521   6.656  16.144  0.00  0.00    +0.000 HD
ATOM     15  H   UNL     1       4.463   6.505  14.932  0.00  0.00    +0.000 HD
ENDBRANCH  12  13
BRANCH  12  16
ATOM     16  C   UNL     1       6.803   4.576  14.056  0.00  0.00    +0.000 C 
BRANCH  16  17
ATOM     17  S   UNL     1       6.137   3.553  12.699  0.00  0.00    +0.000 S 
ATOM     18  H   UNL     1       5.356   2.784  13.472  0.00  0.00    +0.000 HD
ENDBRANCH  16  17
ENDBRANCH  12  16
ENDBRANCH  11  12
ENDBRANCH   1  11
TORSDOF 5
ENDMDL
MODEL 9
REMARK VINA RESULT:      -6.2      1.960      2.124
REMARK  Name = 
REMARK  5 active torsions:
REMARK  status: ('A' for Active; 'I' for Inactive)
REMARK    1  A    between atoms: N_1  and  C_2
REMARK    2  A    between atoms: C_2  and  C_3
REMARK    3  A    between atoms: C_2  and  C_5
REMARK    4  A    between atoms: C_3  and  S_4
REMARK    5  A    between atoms: C_5  and  C_6
REMARK                            x       y       z     vdW  Elec       q    Type
REMARK                         _______ _______ _______ _____ _____    ______ ____
ROOT
ATOM      1  C   UNL     1       4.966   5.436  18.218  0.00  0.00    +0.000 A 
ATOM      2  C   UNL     1       3.805   5.966  17.650  0.00  0.00    +0.000 A 
ATOM      3  C   UNL     1       2.548   5.529  18.074  0.00  0.00    +0.000 A 
ATOM      4  C   UNL     1       2.425   4.539  19.063  0.00  0.00    +0.000 A 
ATOM      5  C   UNL     1       1.169   4.089  19.497  0.00  0.00    +0.000 A 
ATOM      6  C   UNL     1       1.067   3.095  20.475  0.00  0.00    +0.000 A 
ATOM      7  C   UNL     1       2.217   2.542  21.028  0.00  0.00    +0.000 A 
ATOM      8  C   UNL     1       3.474   2.982  20.607  0.00  0.00    +0.000 A 
ATOM      9  C   UNL     1       3.594   3.982  19.632  0.00  0.00    +0.000 A 
ATOM     10  C   UNL     1       4.849   4.446  19.208  0.00  0.00    +0.000 A 
ENDROOT
BRANCH   1  11
ATOM     11  C   UNL     1       6.330   5.901  17.764  0.00  0.00    +0.000 C 
BRANCH  11  12
ATOM     12  C   UNL     1       7.049   4.922  16.811  0.00  0.00    +0.000 C 
BRANCH  12  13
ATOM     13  N   UNL     1       8.026   4.136  17.596  0.00  0.00    +0.000 NA
ATOM     14  H   UNL     1       7.550   3.774  18.427  0.00  0.00    +0.000 HD
ATOM     15  H   UNL     1       8.751   4.752  17.964  0.00  0.00    +0.000 HD
ENDBRANCH  12  13
BRANCH  12  16
ATOM     16  C   UNL     1       6.064   3.999  16.059  0.00  0.00    +0.000 C 
BRANCH  16  17
ATOM     17  S   UNL     1       6.212   4.154  14.246  0.00  0.00    +0.000 S 
ATOM     18  H   UNL     1       4.907   3.983  13.983  0.00  0.00    +0.000 HD
ENDBRANCH  16  17
ENDBRANCH  12  16
ENDBRANCH  11  12
ENDBRANCH   1  11
TORSDOF 5
ENDMDL
