MODEL 1
REMARK VINA RESULT:      -6.9      0.000      0.000
REMARK  Name = 
REMARK  1 active torsions:
REMARK  status: ('A' for Active; 'I' for Inactive)
REMARK    1  A    between atoms: C_6  and  C_7
REMARK                            x       y       z     vdW  Elec       q    Type
REMARK                         _______ _______ _______ _____ _____    ______ ____
ROOT
ATOM      1  O   UNL     1       8.203   5.442  13.651  0.00  0.00    +0.000 OA
ATOM      2  C   UNL     1       7.322   5.224  14.471  0.00  0.00    +0.000 C 
ATOM      3  C   UNL     1       6.187   4.169  14.270  0.00  0.00    +0.000 C 
ATOM      4  N   UNL     1       5.321   4.612  15.333  0.00  0.00    +0.000 N 
ATOM      5  N   UNL     1       4.453   3.858  16.045  0.00  0.00    +0.000 NA
ATOM      6  C   UNL     1       4.572   4.391  17.234  0.00  0.00    +0.000 C 
ATOM      7  O   UNL     1       5.526   5.371  17.376  0.00  0.00    +0.000 OA
ATOM      8  C   UNL     1       6.081   5.383  16.145  0.00  0.00    +0.000 C 
ATOM      9  N   UNL     1       7.220   5.824  15.735  0.00  0.00    +0.000 NA
ENDROOT
BRANCH   6  10
ATOM     10  C   UNL     1       3.831   3.986  18.435  0.00  0.00    +0.000 A 
ATOM     11  C   UNL     1       2.513   4.444  18.572  0.00  0.00    +0.000 A 
ATOM     12  C   UNL     1       1.723   4.009  19.635  0.00  0.00    +0.000 A 
ATOM     13  C   UNL     1       2.253   3.118  20.565  0.00  0.00    +0.000 A 
ATOM     14 CL   UNL     1       1.261   2.539  21.846  0.00  0.00    +0.000 Cl
ATOM     15  C   UNL     1       3.574   2.679  20.454  0.00  0.00    +0.000 A 
ATOM     16  C   UNL     1       4.371   3.116  19.389  0.00  0.00    +0.000 A 
ENDBRANCH   6  10
TORSDOF 1
ENDMDL
MODEL 2
REMARK VINA RESULT:      -6.7      1.076      1.086
REMARK  Name = 
REMARK  1 active torsions:
REMARK  status: ('A' for Active; 'I' for Inactive)
REMARK    1  A    between atoms: C_6  and  C_7
REMARK                            x       y       z     vdW  Elec       q    Type
REMARK                         _______ _______ _______ _____ _____    ______ ____
ROOT
ATOM      1  O   UNL     1       7.843   5.273  14.052  0.00  0.00    +0.000 OA
ATOM      2  C   UNL     1       7.110   5.163  15.025  0.00  0.00    +0.000 C 
ATOM      3  C   UNL     1       5.591   5.526  15.016  0.00  0.00    +0.000 C 
ATOM      4  N   UNL     1       5.385   5.531  16.443  0.00  0.00    +0.000 N 
ATOM      5  N   UNL     1       4.237   5.252  17.101  0.00  0.00    +0.000 NA
ATOM      6  C   UNL     1       4.695   4.616  18.149  0.00  0.00    +0.000 C 
ATOM      7  O   UNL     1       6.047   4.369  18.175  0.00  0.00    +0.000 OA
ATOM      8  C   UNL     1       6.433   4.862  16.978  0.00  0.00    +0.000 C 
ATOM      9  N   UNL     1       7.486   4.639  16.271  0.00  0.00    +0.000 NA
ENDROOT
BRANCH   6  10
ATOM     10  C   UNL     1       3.886   4.085  19.253  0.00  0.00    +0.000 A 
ATOM     11  C   UNL     1       2.771   4.831  19.660  0.00  0.00    +0.000 A 
ATOM     12  C   UNL     1       1.905   4.330  20.630  0.00  0.00    +0.000 A 
ATOM     13  C   UNL     1       2.155   3.083  21.197  0.00  0.00    +0.000 A 
ATOM     14 CL   UNL     1       1.056   2.441  22.354  0.00  0.00    +0.000 Cl
ATOM     15  C   UNL     1       3.280   2.346  20.820  0.00  0.00    +0.000 A 
ATOM     16  C   UNL     1       4.153   2.848  19.848  0.00  0.00    +0.000 A 
ENDBRANCH   6  10
TORSDOF 1
ENDMDL
MODEL 3
REMARK VINA RESULT:      -6.7      0.706      1.007
REMARK  Name = 
REMARK  1 active torsions:
REMARK  status: ('A' for Active; 'I' for Inactive)
REMARK    1  A    between atoms: C_6  and  C_7
REMARK                            x       y       z     vdW  Elec       q    Type
REMARK                         _______ _______ _______ _____ _____    ______ ____
ROOT
ATOM      1  O   UNL     1       8.303   5.487  13.782  0.00  0.00    +0.000 OA
ATOM      2  C   UNL     1       7.369   5.282  14.546  0.00  0.00    +0.000 C 
ATOM      3  C   UNL     1       6.229   4.250  14.272  0.00  0.00    +0.000 C 
ATOM      4  N   UNL     1       5.309   4.706  15.283  0.00  0.00    +0.000 N 
ATOM      5  N   UNL     1       4.386   3.965  15.936  0.00  0.00    +0.000 NA
ATOM      6  C   UNL     1       4.442   4.491  17.134  0.00  0.00    +0.000 C 
ATOM      7  O   UNL     1       5.404   5.452  17.338  0.00  0.00    +0.000 OA
ATOM      8  C   UNL     1       6.033   5.459  16.143  0.00  0.00    +0.000 C 
ATOM      9  N   UNL     1       7.203   5.879  15.805  0.00  0.00    +0.000 NA
ENDROOT
BRANCH   6  10
ATOM     10  C   UNL     1       3.622   4.095  18.285  0.00  0.00    +0.000 A 
ATOM     11  C   UNL     1       3.215   2.756  18.365  0.00  0.00    +0.000 A 
ATOM     12  C   UNL     1       2.525   2.296  19.486  0.00  0.00    +0.000 A 
ATOM     13  C   UNL     1       2.238   3.176  20.526  0.00  0.00    +0.000 A 
ATOM     14 CL   UNL     1       1.435   2.594  21.931  0.00  0.00    +0.000 Cl
ATOM     15  C   UNL     1       2.613   4.518  20.442  0.00  0.00    +0.000 A 
ATOM     16  C   UNL     1       3.304   4.985  19.317  0.00  0.00    +0.000 A 
ENDBRANCH   6  10
TORSDOF 1
ENDMDL
MODEL 4
REMARK VINA RESULT:      -6.6      1.001      1.571
REMARK  Name = 
REMARK  1 active torsions:
REMARK  status: ('A' for Active; 'I' for Inactive)
REMARK    1  A    between atoms: C_6  and  C_7
REMARK                            x       y       z     vdW  Elec       q    Type
REMARK                         _______ _______ _______ _____ _____    ______ ____
ROOT
ATOM      1  O   UNL     1       7.978   5.297  14.221  0.00  0.00    +0.000 OA
ATOM      2  C   UNL     1       7.154   5.160  15.115  0.00  0.00    +0.000 C 
ATOM      3  C   UNL     1       5.647   5.546  14.976  0.00  0.00    +0.000 C 
ATOM      4  N   UNL     1       5.306   5.497  16.376  0.00  0.00    +0.000 N 
ATOM      5  N   UNL     1       4.098   5.211  16.910  0.00  0.00    +0.000 NA
ATOM      6  C   UNL     1       4.446   4.526  17.970  0.00  0.00    +0.000 C 
ATOM      7  O   UNL     1       5.787   4.258  18.115  0.00  0.00    +0.000 OA
ATOM      8  C   UNL     1       6.290   4.792  16.981  0.00  0.00    +0.000 C 
ATOM      9  N   UNL     1       7.403   4.581  16.368  0.00  0.00    +0.000 NA
ENDROOT
BRANCH   6  10
ATOM     10  C   UNL     1       3.529   3.965  18.969  0.00  0.00    +0.000 A 
ATOM     11  C   UNL     1       4.026   2.968  19.821  0.00  0.00    +0.000 A 
ATOM     12  C   UNL     1       3.237   2.470  20.858  0.00  0.00    +0.000 A 
ATOM     13  C   UNL     1       1.950   2.968  21.042  0.00  0.00    +0.000 A 
ATOM     14 CL   UNL     1       0.998   2.394  22.354  0.00  0.00    +0.000 Cl
ATOM     15  C   UNL     1       1.436   3.941  20.181  0.00  0.00    +0.000 A 
ATOM     16  C   UNL     1       2.224   4.440  19.137  0.00  0.00    +0.000 A 
ENDBRANCH   6  10
TORSDOF 1
ENDMDL
MODEL 5
REMARK VINA RESULT:      -6.6      4.319      5.843
REMARK  Name = 
REMARK  1 active torsions:
REMARK  status: ('A' for Active; 'I' for Inactive)
REMARK    1  A    between atoms: C_6  and  C_7
REMARK                            x       y       z     vdW  Elec       q    Type
REMARK                         _______ _______ _______ _____ _____    ______ ____
ROOT
ATOM      1  O   UNL     1       5.156   1.561  20.250  0.00  0.00    +0.000 OA
ATOM      2  C   UNL     1       4.549   2.590  19.986  0.00  0.00    +0.000 C 
ATOM      3  C   UNL     1       3.064   2.855  20.393  0.00  0.00    +0.000 C 
ATOM      4  N   UNL     1       2.830   3.993  19.541  0.00  0.00    +0.000 N 
ATOM      5  N   UNL     1       1.969   5.012  19.762  0.00  0.00    +0.000 NA
ATOM      6  C   UNL     1       2.649   6.025  19.287  0.00  0.00    +0.000 C 
ATOM      7  O   UNL     1       3.930   5.760  18.864  0.00  0.00    +0.000 OA
ATOM      8  C   UNL     1       4.050   4.451  19.177  0.00  0.00    +0.000 C 
ATOM      9  N   UNL     1       5.093   3.714  19.344  0.00  0.00    +0.000 NA
ENDROOT
BRANCH   6  10
ATOM     10  C   UNL     1       2.191   7.418  19.234  0.00  0.00    +0.000 A 
ATOM     11  C   UNL     1       2.301   8.094  18.011  0.00  0.00    +0.000 A 
ATOM     12  C   UNL     1       1.788   9.382  17.869  0.00  0.00    +0.000 A 
ATOM     13  C   UNL     1       1.167   9.998  18.954  0.00  0.00    +0.000 A 
ATOM     14 CL   UNL     1       0.485  11.565  18.763  0.00  0.00    +0.000 Cl
ATOM     15  C   UNL     1       1.079   9.344  20.185  0.00  0.00    +0.000 A 
ATOM     16  C   UNL     1       1.596   8.051  20.331  0.00  0.00    +0.000 A 
ENDBRANCH   6  10
TORSDOF 1
ENDMDL
MODEL 6
REMARK VINA RESULT:      -6.6      3.817      6.461
REMARK  Name = 
REMARK  1 active torsions:
REMARK  status: ('A' for Active; 'I' for Inactive)
REMARK    1  A    between atoms: C_6  and  C_7
REMARK                            x       y       z     vdW  Elec       q    Type
REMARK                         _______ _______ _______ _____ _____    ______ ____
ROOT
ATOM      1  O   UNL     1       1.938   3.062  22.284  0.00  0.00    +0.000 OA
ATOM      2  C   UNL     1       2.456   3.321  21.207  0.00  0.00    +0.000 C 
ATOM      3  C   UNL     1       2.537   4.760  20.603  0.00  0.00    +0.000 C 
ATOM      4  N   UNL     1       2.900   4.385  19.259  0.00  0.00    +0.000 N 
ATOM      5  N   UNL     1       3.622   5.112  18.378  0.00  0.00    +0.000 NA
ATOM      6  C   UNL     1       4.318   4.174  17.787  0.00  0.00    +0.000 C 
ATOM      7  O   UNL     1       4.178   2.900  18.284  0.00  0.00    +0.000 OA
ATOM      8  C   UNL     1       3.350   3.111  19.330  0.00  0.00    +0.000 C 
ATOM      9  N   UNL     1       3.112   2.399  20.377  0.00  0.00    +0.000 NA
ENDROOT
BRANCH   6  10
ATOM     10  C   UNL     1       5.279   4.376  16.696  0.00  0.00    +0.000 A 
ATOM     11  C   UNL     1       4.862   4.062  15.394  0.00  0.00    +0.000 A 
ATOM     12  C   UNL     1       5.690   4.330  14.306  0.00  0.00    +0.000 A 
ATOM     13  C   UNL     1       6.939   4.910  14.518  0.00  0.00    +0.000 A 
ATOM     14 CL   UNL     1       7.937   5.290  13.170  0.00  0.00    +0.000 Cl
ATOM     15  C   UNL     1       7.375   5.198  15.813  0.00  0.00    +0.000 A 
ATOM     16  C   UNL     1       6.547   4.927  16.909  0.00  0.00    +0.000 A 
ENDBRANCH   6  10
TORSDOF 1
ENDMDL
MODEL 7
REMARK VINA RESULT:      -6.5      3.796      6.453
REMARK  Name = 
REMARK  1 active torsions:
REMARK  status: ('A' for Active; 'I' for Inactive)
REMARK    1  A    between atoms: C_6  and  C_7
REMARK                            x       y       z     vdW  Elec       q    Type
REMARK                         _______ _______ _______ _____ _____    ______ ____
ROOT
ATOM      1  O   UNL     1       1.015   2.612  21.295  0.00  0.00    +0.000 OA
ATOM      2  C   UNL     1       1.877   2.998  20.518  0.00  0.00    +0.000 C 
ATOM      3  C   UNL     1       3.402   2.712  20.697  0.00  0.00    +0.000 C 
ATOM      4  N   UNL     1       3.892   3.667  19.735  0.00  0.00    +0.000 N 
ATOM      5  N   UNL     1       5.034   3.587  19.017  0.00  0.00    +0.000 NA
ATOM      6  C   UNL     1       4.651   4.096  17.874  0.00  0.00    +0.000 C 
ATOM      7  O   UNL     1       3.317   4.410  17.758  0.00  0.00    +0.000 OA
ATOM      8  C   UNL     1       2.838   3.985  18.947  0.00  0.00    +0.000 C 
ATOM      9  N   UNL     1       1.641   3.690  19.320  0.00  0.00    +0.000 NA
ENDROOT
BRANCH   6  10
ATOM     10  C   UNL     1       5.499   4.291  16.692  0.00  0.00    +0.000 A 
ATOM     11  C   UNL     1       4.922   4.075  15.433  0.00  0.00    +0.000 A 
ATOM     12  C   UNL     1       5.645   4.344  14.271  0.00  0.00    +0.000 A 
ATOM     13  C   UNL     1       6.947   4.828  14.369  0.00  0.00    +0.000 A 
ATOM     14 CL   UNL     1       7.818   5.212  12.936  0.00  0.00    +0.000 Cl
ATOM     15  C   UNL     1       7.541   5.018  15.618  0.00  0.00    +0.000 A 
ATOM     16  C   UNL     1       6.819   4.745  16.786  0.00  0.00    +0.000 A 
ENDBRANCH   6  10
TORSDOF 1
ENDMDL
MODEL 8
REMARK VINA RESULT:      -6.5      3.853      6.527
REMARK  Name = 
REMARK  1 active torsions:
REMARK  status: ('A' for Active; 'I' for Inactive)
REMARK    1  A    between atoms: C_6  and  C_7
REMARK                            x       y       z     vdW  Elec       q    Type
REMARK                         _______ _______ _______ _____ _____    ______ ____
ROOT
ATOM      1  O   UNL     1       1.364   2.581  22.061  0.00  0.00    +0.000 OA
ATOM      2  C   UNL     1       2.163   2.963  21.217  0.00  0.00    +0.000 C 
ATOM      3  C   UNL     1       3.556   2.300  20.975  0.00  0.00    +0.000 C 
ATOM      4  N   UNL     1       4.132   3.349  20.172  0.00  0.00    +0.000 N 
ATOM      5  N   UNL     1       5.076   3.216  19.213  0.00  0.00    +0.000 NA
ATOM      6  C   UNL     1       4.672   4.099  18.335  0.00  0.00    +0.000 C 
ATOM      7  O   UNL     1       3.479   4.728  18.602  0.00  0.00    +0.000 OA
ATOM      8  C   UNL     1       3.097   4.106  19.739  0.00  0.00    +0.000 C 
ATOM      9  N   UNL     1       1.941   3.999  20.297  0.00  0.00    +0.000 NA
ENDROOT
BRANCH   6  10
ATOM     10  C   UNL     1       5.341   4.419  17.069  0.00  0.00    +0.000 A 
ATOM     11  C   UNL     1       6.628   4.972  17.134  0.00  0.00    +0.000 A 
ATOM     12  C   UNL     1       7.355   5.200  15.967  0.00  0.00    +0.000 A 
ATOM     13  C   UNL     1       6.795   4.879  14.733  0.00  0.00    +0.000 A 
ATOM     14 CL   UNL     1       7.715   5.109  13.298  0.00  0.00    +0.000 Cl
ATOM     15  C   UNL     1       5.502   4.356  14.656  0.00  0.00    +0.000 A 
ATOM     16  C   UNL     1       4.768   4.128  15.826  0.00  0.00    +0.000 A 
ENDBRANCH   6  10
TORSDOF 1
ENDMDL
MODEL 9
REMARK VINA RESULT:      -6.4      3.886      6.484
REMARK  Name = 
REMARK  1 active torsions:
REMARK  status: ('A' for Active; 'I' for Inactive)
REMARK    1  A    between atoms: C_6  and  C_7
REMARK                            x       y       z     vdW  Elec       q    Type
REMARK                         _______ _______ _______ _____ _____    ______ ____
ROOT
ATOM      1  O   UNL     1       1.201   2.582  22.453  0.00  0.00    +0.000 OA
ATOM      2  C   UNL     1       1.865   2.723  21.436  0.00  0.00    +0.000 C 
ATOM      3  C   UNL     1       1.284   3.236  20.080  0.00  0.00    +0.000 C 
ATOM      4  N   UNL     1       2.392   2.860  19.239  0.00  0.00    +0.000 N 
ATOM      5  N   UNL     1       2.781   3.456  18.090  0.00  0.00    +0.000 NA
ATOM      6  C   UNL     1       4.084   3.362  18.186  0.00  0.00    +0.000 C 
ATOM      7  O   UNL     1       4.577   2.839  19.358  0.00  0.00    +0.000 OA
ATOM      8  C   UNL     1       3.443   2.655  20.067  0.00  0.00    +0.000 C 
ATOM      9  N   UNL     1       3.250   2.518  21.333  0.00  0.00    +0.000 NA
ENDROOT
BRANCH   6  10
ATOM     10  C   UNL     1       5.054   3.828  17.188  0.00  0.00    +0.000 A 
ATOM     11  C   UNL     1       4.719   3.679  15.835  0.00  0.00    +0.000 A 
ATOM     12  C   UNL     1       5.551   4.197  14.843  0.00  0.00    +0.000 A 
ATOM     13  C   UNL     1       6.720   4.861  15.203  0.00  0.00    +0.000 A 
ATOM     14 CL   UNL     1       7.717   5.547  13.982  0.00  0.00    +0.000 Cl
ATOM     15  C   UNL     1       7.077   4.988  16.548  0.00  0.00    +0.000 A 
ATOM     16  C   UNL     1       6.246   4.466  17.546  0.00  0.00    +0.000 A 
ENDBRANCH   6  10
TORSDOF 1
ENDMDL
