MODEL 1
REMARK VINA RESULT:      -7.9      0.000      0.000
REMARK  Name = 
REMARK  7 active torsions:
REMARK  status: ('A' for Active; 'I' for Inactive)
REMARK    1  A    between atoms: C_1  and  C_2
REMARK    2  A    between atoms: C_2  and  N_3
REMARK    3  A    between atoms: C_6  and  N_7
REMARK    4  A    between atoms: N_10  and  C_11
REMARK    5  A    between atoms: N_10  and  C_12
REMARK    6  A    between atoms: C_12  and  C_13
REMARK    7  A    between atoms: C_20  and  C_21
REMARK                            x       y       z     vdW  Elec       q    Type
REMARK                         _______ _______ _______ _____ _____    ______ ____
ROOT
ATOM      1  N   UNL     1       2.379   6.853  19.989  0.00  0.00    +0.000 N 
ATOM      2  C   UNL     1       2.175   7.899  19.119  0.00  0.00    +0.000 C 
ATOM      3  O   UNL     1       2.632   7.929  17.978  0.00  0.00    +0.000 OA
ATOM      4  N   UNL     1       1.403   8.955  19.614  0.00  0.00    +0.000 N 
ATOM      5  C   UNL     1       0.780   9.042  20.933  0.00  0.00    +0.000 C 
ATOM      6  H   UNL     1       1.914   6.868  20.878  0.00  0.00    +0.000 HD
ENDROOT
BRANCH   1  10
ATOM      7  N   UNL     1       3.734   3.613  19.544  0.00  0.00    +0.000 N 
ATOM      8  N   UNL     1       4.839   4.298  19.192  0.00  0.00    +0.000 NA
ATOM      9  C   UNL     1       4.479   5.581  19.305  0.00  0.00    +0.000 A 
ATOM     10  C   UNL     1       3.146   5.724  19.738  0.00  0.00    +0.000 A 
ATOM     11  C   UNL     1       2.688   4.427  19.899  0.00  0.00    +0.000 A 
BRANCH  11  12
ATOM     12  C   UNL     1       1.379   3.944  20.366  0.00  0.00    +0.000 C 
ATOM     13  F   UNL     1       0.713   3.158  19.491  0.00  0.00    +0.000 F 
ATOM     14  F   UNL     1       1.506   3.227  21.514  0.00  0.00    +0.000 F 
ATOM     15  F   UNL     1       0.554   4.981  20.668  0.00  0.00    +0.000 F 
ENDBRANCH  11  12
BRANCH   7  17
ATOM     16  C   UNL     1       3.448   1.595  18.160  0.00  0.00    +0.000 C 
ATOM     17  C   UNL     1       3.807   2.160  19.523  0.00  0.00    +0.000 C 
ENDBRANCH   7  17
ENDBRANCH   1  10
BRANCH   4  18
ATOM     18  C   UNL     1       1.209  10.124  18.747  0.00  0.00    +0.000 C 
BRANCH  18  19
ATOM     19  C   UNL     1      -0.252  10.427  18.493  0.00  0.00    +0.000 A 
ATOM     20  C   UNL     1      -0.968  11.278  19.251  0.00  0.00    +0.000 A 
ATOM     21  C   UNL     1      -2.330  11.611  18.899  0.00  0.00    +0.000 A 
ATOM     22  C   UNL     1      -2.905  11.081  17.811  0.00  0.00    +0.000 A 
ATOM     23  C   UNL     1      -2.133  10.136  16.963  0.00  0.00    +0.000 A 
ATOM     24  O   UNL     1      -2.635   9.644  15.959  0.00  0.00    +0.000 OA
ATOM     25  N   UNL     1      -0.846   9.874  17.373  0.00  0.00    +0.000 N 
ATOM     26  H   UNL     1      -0.300   9.259  16.775  0.00  0.00    +0.000 HD
ENDBRANCH  18  19
ENDBRANCH   4  18
TORSDOF 5
ENDMDL
MODEL 2
REMARK VINA RESULT:      -7.7      1.147      1.393
REMARK  Name = 
REMARK  7 active torsions:
REMARK  status: ('A' for Active; 'I' for Inactive)
REMARK    1  A    between atoms: C_1  and  C_2
REMARK    2  A    between atoms: C_2  and  N_3
REMARK    3  A    between atoms: C_6  and  N_7
REMARK    4  A    between atoms: N_10  and  C_11
REMARK    5  A    between atoms: N_10  and  C_12
REMARK    6  A    between atoms: C_12  and  C_13
REMARK    7  A    between atoms: C_20  and  C_21
REMARK                            x       y       z     vdW  Elec       q    Type
REMARK                         _______ _______ _______ _____ _____    ______ ____
ROOT
ATOM      1  N   UNL     1       2.377   6.856  19.975  0.00  0.00    +0.000 N 
ATOM      2  C   UNL     1       2.182   7.900  19.100  0.00  0.00    +0.000 C 
ATOM      3  O   UNL     1       2.655   7.929  17.965  0.00  0.00    +0.000 OA
ATOM      4  N   UNL     1       1.401   8.955  19.582  0.00  0.00    +0.000 N 
ATOM      5  C   UNL     1       0.759   9.044  20.892  0.00  0.00    +0.000 C 
ATOM      6  H   UNL     1       1.900   6.872  20.857  0.00  0.00    +0.000 HD
ENDROOT
BRANCH   1  10
ATOM      7  N   UNL     1       3.747   3.619  19.558  0.00  0.00    +0.000 N 
ATOM      8  N   UNL     1       4.854   4.307  19.214  0.00  0.00    +0.000 NA
ATOM      9  C   UNL     1       4.488   5.589  19.318  0.00  0.00    +0.000 A 
ATOM     10  C   UNL     1       3.151   5.730  19.737  0.00  0.00    +0.000 A 
ATOM     11  C   UNL     1       2.696   4.431  19.899  0.00  0.00    +0.000 A 
BRANCH  11  12
ATOM     12  C   UNL     1       1.383   3.946  20.355  0.00  0.00    +0.000 C 
ATOM     13  F   UNL     1       0.722   3.167  19.470  0.00  0.00    +0.000 F 
ATOM     14  F   UNL     1       1.503   3.220  21.498  0.00  0.00    +0.000 F 
ATOM     15  F   UNL     1       0.558   4.981  20.660  0.00  0.00    +0.000 F 
ENDBRANCH  11  12
BRANCH   7  17
ATOM     16  C   UNL     1       3.437   1.591  18.194  0.00  0.00    +0.000 C 
ATOM     17  C   UNL     1       3.825   2.167  19.544  0.00  0.00    +0.000 C 
ENDBRANCH   7  17
ENDBRANCH   1  10
BRANCH   4  18
ATOM     18  C   UNL     1       1.215  10.121  18.710  0.00  0.00    +0.000 C 
BRANCH  18  19
ATOM     19  C   UNL     1      -0.244  10.422  18.438  0.00  0.00    +0.000 A 
ATOM     20  C   UNL     1      -0.995   9.700  17.586  0.00  0.00    +0.000 A 
ATOM     21  C   UNL     1      -2.409   9.966  17.445  0.00  0.00    +0.000 A 
ATOM     22  C   UNL     1      -2.999  10.933  18.161  0.00  0.00    +0.000 A 
ATOM     23  C   UNL     1      -2.187  11.743  19.105  0.00  0.00    +0.000 A 
ATOM     24  O   UNL     1      -2.705  12.627  19.776  0.00  0.00    +0.000 OA
ATOM     25  N   UNL     1      -0.850  11.424  19.174  0.00  0.00    +0.000 N 
ATOM     26  H   UNL     1      -0.296  11.948  19.846  0.00  0.00    +0.000 HD
ENDBRANCH  18  19
ENDBRANCH   4  18
TORSDOF 5
ENDMDL
MODEL 3
REMARK VINA RESULT:      -7.7      1.119      1.139
REMARK  Name = 
REMARK  7 active torsions:
REMARK  status: ('A' for Active; 'I' for Inactive)
REMARK    1  A    between atoms: C_1  and  C_2
REMARK    2  A    between atoms: C_2  and  N_3
REMARK    3  A    between atoms: C_6  and  N_7
REMARK    4  A    between atoms: N_10  and  C_11
REMARK    5  A    between atoms: N_10  and  C_12
REMARK    6  A    between atoms: C_12  and  C_13
REMARK    7  A    between atoms: C_20  and  C_21
REMARK                            x       y       z     vdW  Elec       q    Type
REMARK                         _______ _______ _______ _____ _____    ______ ____
ROOT
ATOM      1  N   UNL     1       2.117   7.717  19.385  0.00  0.00    +0.000 N 
ATOM      2  C   UNL     1       1.663   8.810  18.684  0.00  0.00    +0.000 C 
ATOM      3  O   UNL     1       1.765   8.921  17.463  0.00  0.00    +0.000 OA
ATOM      4  N   UNL     1       1.068   9.816  19.451  0.00  0.00    +0.000 N 
ATOM      5  C   UNL     1       0.860   9.807  20.898  0.00  0.00    +0.000 C 
ATOM      6  H   UNL     1       1.934   7.666  20.369  0.00  0.00    +0.000 HD
ENDROOT
BRANCH   1  10
ATOM      7  N   UNL     1       3.412   4.546  18.489  0.00  0.00    +0.000 N 
ATOM      8  N   UNL     1       4.138   5.268  17.614  0.00  0.00    +0.000 NA
ATOM      9  C   UNL     1       3.750   6.530  17.828  0.00  0.00    +0.000 A 
ATOM     10  C   UNL     1       2.780   6.623  18.846  0.00  0.00    +0.000 A 
ATOM     11  C   UNL     1       2.588   5.318  19.268  0.00  0.00    +0.000 A 
BRANCH  11  12
ATOM     12  C   UNL     1       1.717   4.794  20.332  0.00  0.00    +0.000 C 
ATOM     13  F   UNL     1       0.773   3.918  19.921  0.00  0.00    +0.000 F 
ATOM     14  F   UNL     1       2.446   4.159  21.288  0.00  0.00    +0.000 F 
ATOM     15  F   UNL     1       1.066   5.800  20.972  0.00  0.00    +0.000 F 
ENDBRANCH  11  12
BRANCH   7  17
ATOM     16  C   UNL     1       2.588   2.383  17.643  0.00  0.00    +0.000 C 
ATOM     17  C   UNL     1       3.610   3.105  18.502  0.00  0.00    +0.000 C 
ENDBRANCH   7  17
ENDBRANCH   1  10
BRANCH   4  18
ATOM     18  C   UNL     1       0.624  11.032  18.759  0.00  0.00    +0.000 C 
BRANCH  18  19
ATOM     19  C   UNL     1      -0.839  10.985  18.375  0.00  0.00    +0.000 A 
ATOM     20  C   UNL     1      -1.794  11.662  19.040  0.00  0.00    +0.000 A 
ATOM     21  C   UNL     1      -3.160  11.666  18.566  0.00  0.00    +0.000 A 
ATOM     22  C   UNL     1      -3.501  10.998  17.455  0.00  0.00    +0.000 A 
ATOM     23  C   UNL     1      -2.462  10.241  16.708  0.00  0.00    +0.000 A 
ATOM     24  O   UNL     1      -2.748   9.629  15.686  0.00  0.00    +0.000 OA
ATOM     25  N   UNL     1      -1.191  10.291  17.232  0.00  0.00    +0.000 N 
ATOM     26  H   UNL     1      -0.468   9.808  16.704  0.00  0.00    +0.000 HD
ENDBRANCH  18  19
ENDBRANCH   4  18
TORSDOF 5
ENDMDL
MODEL 4
REMARK VINA RESULT:      -7.6      1.750      2.085
REMARK  Name = 
REMARK  7 active torsions:
REMARK  status: ('A' for Active; 'I' for Inactive)
REMARK    1  A    between atoms: C_1  and  C_2
REMARK    2  A    between atoms: C_2  and  N_3
REMARK    3  A    between atoms: C_6  and  N_7
REMARK    4  A    between atoms: N_10  and  C_11
REMARK    5  A    between atoms: N_10  and  C_12
REMARK    6  A    between atoms: C_12  and  C_13
REMARK    7  A    between atoms: C_20  and  C_21
REMARK                            x       y       z     vdW  Elec       q    Type
REMARK                         _______ _______ _______ _____ _____    ______ ____
ROOT
ATOM      1  N   UNL     1       2.273   7.737  18.842  0.00  0.00    +0.000 N 
ATOM      2  C   UNL     1       1.769   8.954  18.446  0.00  0.00    +0.000 C 
ATOM      3  O   UNL     1       2.005   9.460  17.350  0.00  0.00    +0.000 OA
ATOM      4  N   UNL     1       0.956   9.605  19.379  0.00  0.00    +0.000 N 
ATOM      5  C   UNL     1       0.573   9.114  20.702  0.00  0.00    +0.000 C 
ATOM      6  H   UNL     1       1.978   7.357  19.722  0.00  0.00    +0.000 HD
ENDROOT
BRANCH   1  10
ATOM      7  N   UNL     1       4.053   5.149  17.210  0.00  0.00    +0.000 N 
ATOM      8  N   UNL     1       4.822   6.168  16.779  0.00  0.00    +0.000 NA
ATOM      9  C   UNL     1       4.260   7.254  17.321  0.00  0.00    +0.000 A 
ATOM     10  C   UNL     1       3.136   6.936  18.108  0.00  0.00    +0.000 A 
ATOM     11  C   UNL     1       3.031   5.557  18.029  0.00  0.00    +0.000 A 
BRANCH  11  12
ATOM     12  C   UNL     1       2.069   4.649  18.674  0.00  0.00    +0.000 C 
ATOM     13  F   UNL     1       1.393   5.179  19.718  0.00  0.00    +0.000 F 
ATOM     14  F   UNL     1       1.136   4.218  17.785  0.00  0.00    +0.000 F 
ATOM     15  F   UNL     1       2.685   3.529  19.134  0.00  0.00    +0.000 F 
ENDBRANCH  11  12
BRANCH   7  17
ATOM     16  C   UNL     1       5.611   3.810  15.850  0.00  0.00    +0.000 C 
ATOM     17  C   UNL     1       4.413   3.806  16.783  0.00  0.00    +0.000 C 
ENDBRANCH   7  17
ENDBRANCH   1  10
BRANCH   4  18
ATOM     18  C   UNL     1       0.444  10.936  19.030  0.00  0.00    +0.000 C 
BRANCH  18  19
ATOM     19  C   UNL     1      -0.974  10.897  18.502  0.00  0.00    +0.000 A 
ATOM     20  C   UNL     1      -1.993  11.555  19.088  0.00  0.00    +0.000 A 
ATOM     21  C   UNL     1      -3.305  11.569  18.482  0.00  0.00    +0.000 A 
ATOM     22  C   UNL     1      -3.532  10.931  17.325  0.00  0.00    +0.000 A 
ATOM     23  C   UNL     1      -2.422  10.196  16.665  0.00  0.00    +0.000 A 
ATOM     24  O   UNL     1      -2.604   9.611  15.604  0.00  0.00    +0.000 OA
ATOM     25  N   UNL     1      -1.209  10.233  17.313  0.00  0.00    +0.000 N 
ATOM     26  H   UNL     1      -0.436   9.765  16.846  0.00  0.00    +0.000 HD
ENDBRANCH  18  19
ENDBRANCH   4  18
TORSDOF 5
ENDMDL
MODEL 5
REMARK VINA RESULT:      -7.5      1.468      1.837
REMARK  Name = 
REMARK  7 active torsions:
REMARK  status: ('A' for Active; 'I' for Inactive)
REMARK    1  A    between atoms: C_1  and  C_2
REMARK    2  A    between atoms: C_2  and  N_3
REMARK    3  A    between atoms: C_6  and  N_7
REMARK    4  A    between atoms: N_10  and  C_11
REMARK    5  A    between atoms: N_10  and  C_12
REMARK    6  A    between atoms: C_12  and  C_13
REMARK    7  A    between atoms: C_20  and  C_21
REMARK                            x       y       z     vdW  Elec       q    Type
REMARK                         _______ _______ _______ _____ _____    ______ ____
ROOT
ATOM      1  N   UNL     1       2.158   7.578  19.426  0.00  0.00    +0.000 N 
ATOM      2  C   UNL     1       1.731   8.648  18.673  0.00  0.00    +0.000 C 
ATOM      3  O   UNL     1       1.903   8.731  17.458  0.00  0.00    +0.000 OA
ATOM      4  N   UNL     1       1.079   9.662  19.380  0.00  0.00    +0.000 N 
ATOM      5  C   UNL     1       0.786   9.684  20.812  0.00  0.00    +0.000 C 
ATOM      6  H   UNL     1       1.918   7.547  20.399  0.00  0.00    +0.000 HD
ENDROOT
BRANCH   1  10
ATOM      7  N   UNL     1       3.543   4.406  18.682  0.00  0.00    +0.000 N 
ATOM      8  N   UNL     1       4.315   5.119  17.839  0.00  0.00    +0.000 NA
ATOM      9  C   UNL     1       3.899   6.380  18.001  0.00  0.00    +0.000 A 
ATOM     10  C   UNL     1       2.866   6.482  18.953  0.00  0.00    +0.000 A 
ATOM     11  C   UNL     1       2.663   5.183  19.391  0.00  0.00    +0.000 A 
BRANCH  11  12
ATOM     12  C   UNL     1       1.733   4.670  20.410  0.00  0.00    +0.000 C 
ATOM     13  F   UNL     1       2.315   4.002  21.431  0.00  0.00    +0.000 F 
ATOM     14  F   UNL     1       1.014   5.680  20.966  0.00  0.00    +0.000 F 
ATOM     15  F   UNL     1       0.821   3.826  19.860  0.00  0.00    +0.000 F 
ENDBRANCH  11  12
BRANCH   7  17
ATOM     16  C   UNL     1       2.834   2.220  17.795  0.00  0.00    +0.000 C 
ATOM     17  C   UNL     1       3.757   2.969  18.739  0.00  0.00    +0.000 C 
ENDBRANCH   7  17
ENDBRANCH   1  10
BRANCH   4  18
ATOM     18  C   UNL     1       0.660  10.854  18.634  0.00  0.00    +0.000 C 
BRANCH  18  19
ATOM     19  C   UNL     1      -0.820  10.856  18.317  0.00  0.00    +0.000 A 
ATOM     20  C   UNL     1      -1.384  10.003  17.440  0.00  0.00    +0.000 A 
ATOM     21  C   UNL     1      -2.818   9.979  17.255  0.00  0.00    +0.000 A 
ATOM     22  C   UNL     1      -3.613  10.801  17.953  0.00  0.00    +0.000 A 
ATOM     23  C   UNL     1      -3.010  11.752  18.923  0.00  0.00    +0.000 A 
ATOM     24  O   UNL     1      -3.716  12.508  19.579  0.00  0.00    +0.000 OA
ATOM     25  N   UNL     1      -1.639  11.709  19.033  0.00  0.00    +0.000 N 
ATOM     26  H   UNL     1      -1.224  12.330  19.724  0.00  0.00    +0.000 HD
ENDBRANCH  18  19
ENDBRANCH   4  18
TORSDOF 5
ENDMDL
MODEL 6
REMARK VINA RESULT:      -7.4      4.648      7.413
REMARK  Name = 
REMARK  7 active torsions:
REMARK  status: ('A' for Active; 'I' for Inactive)
REMARK    1  A    between atoms: C_1  and  C_2
REMARK    2  A    between atoms: C_2  and  N_3
REMARK    3  A    between atoms: C_6  and  N_7
REMARK    4  A    between atoms: N_10  and  C_11
REMARK    5  A    between atoms: N_10  and  C_12
REMARK    6  A    between atoms: C_12  and  C_13
REMARK    7  A    between atoms: C_20  and  C_21
REMARK                            x       y       z     vdW  Elec       q    Type
REMARK                         _______ _______ _______ _____ _____    ______ ____
ROOT
ATOM      1  N   UNL     1       3.789   5.609  17.667  0.00  0.00    +0.000 N 
ATOM      2  C   UNL     1       4.957   4.998  17.273  0.00  0.00    +0.000 C 
ATOM      3  O   UNL     1       5.455   4.043  17.869  0.00  0.00    +0.000 OA
ATOM      4  N   UNL     1       5.565   5.533  16.134  0.00  0.00    +0.000 N 
ATOM      5  C   UNL     1       5.075   6.643  15.319  0.00  0.00    +0.000 C 
ATOM      6  H   UNL     1       3.407   6.335  17.090  0.00  0.00    +0.000 HD
ENDROOT
BRANCH   1  10
ATOM      7  N   UNL     1       1.751   4.154  20.170  0.00  0.00    +0.000 N 
ATOM      8  N   UNL     1       1.987   5.315  20.811  0.00  0.00    +0.000 NA
ATOM      9  C   UNL     1       2.774   5.998  19.973  0.00  0.00    +0.000 A 
ATOM     10  C   UNL     1       3.039   5.283  18.788  0.00  0.00    +0.000 A 
ATOM     11  C   UNL     1       2.349   4.091  18.937  0.00  0.00    +0.000 A 
BRANCH  11  12
ATOM     12  C   UNL     1       2.222   2.957  18.007  0.00  0.00    +0.000 C 
ATOM     13  F   UNL     1       2.361   3.271  16.700  0.00  0.00    +0.000 F 
ATOM     14  F   UNL     1       3.147   1.999  18.278  0.00  0.00    +0.000 F 
ATOM     15  F   UNL     1       1.013   2.350  18.138  0.00  0.00    +0.000 F 
ENDBRANCH  11  12
BRANCH   7  17
ATOM     16  C   UNL     1       1.671   2.392  21.890  0.00  0.00    +0.000 C 
ATOM     17  C   UNL     1       0.908   3.175  20.837  0.00  0.00    +0.000 C 
ENDBRANCH   7  17
ENDBRANCH   1  10
BRANCH   4  18
ATOM     18  C   UNL     1       6.846   4.958  15.709  0.00  0.00    +0.000 C 
BRANCH  18  19
ATOM     19  C   UNL     1       6.913   4.718  14.216  0.00  0.00    +0.000 A 
ATOM     20  C   UNL     1       7.723   5.415  13.396  0.00  0.00    +0.000 A 
ATOM     21  C   UNL     1       7.824   5.072  11.995  0.00  0.00    +0.000 A 
ATOM     22  C   UNL     1       7.117   4.054  11.486  0.00  0.00    +0.000 A 
ATOM     23  C   UNL     1       6.215   3.275  12.374  0.00  0.00    +0.000 A 
ATOM     24  O   UNL     1       5.564   2.335  11.933  0.00  0.00    +0.000 OA
ATOM     25  N   UNL     1       6.178   3.671  13.691  0.00  0.00    +0.000 N 
ATOM     26  H   UNL     1       5.593   3.117  14.311  0.00  0.00    +0.000 HD
ENDBRANCH  18  19
ENDBRANCH   4  18
TORSDOF 5
ENDMDL
MODEL 7
REMARK VINA RESULT:      -7.4      0.965      1.177
REMARK  Name = 
REMARK  7 active torsions:
REMARK  status: ('A' for Active; 'I' for Inactive)
REMARK    1  A    between atoms: C_1  and  C_2
REMARK    2  A    between atoms: C_2  and  N_3
REMARK    3  A    between atoms: C_6  and  N_7
REMARK    4  A    between atoms: N_10  and  C_11
REMARK    5  A    between atoms: N_10  and  C_12
REMARK    6  A    between atoms: C_12  and  C_13
REMARK    7  A    between atoms: C_20  and  C_21
REMARK                            x       y       z     vdW  Elec       q    Type
REMARK                         _______ _______ _______ _____ _____    ______ ____
ROOT
ATOM      1  N   UNL     1       2.603   6.668  19.549  0.00  0.00    +0.000 N 
ATOM      2  C   UNL     1       2.375   7.807  18.812  0.00  0.00    +0.000 C 
ATOM      3  O   UNL     1       2.812   7.975  17.674  0.00  0.00    +0.000 OA
ATOM      4  N   UNL     1       1.605   8.790  19.440  0.00  0.00    +0.000 N 
ATOM      5  C   UNL     1       1.005   8.716  20.771  0.00  0.00    +0.000 C 
ATOM      6  H   UNL     1       2.154   6.574  20.441  0.00  0.00    +0.000 HD
ENDROOT
BRANCH   1  10
ATOM      7  N   UNL     1       3.929   3.614  18.346  0.00  0.00    +0.000 N 
ATOM      8  N   UNL     1       5.103   4.163  18.717  0.00  0.00    +0.000 NA
ATOM      9  C   UNL     1       4.764   5.362  19.203  0.00  0.00    +0.000 A 
ATOM     10  C   UNL     1       3.374   5.584  19.154  0.00  0.00    +0.000 A 
ATOM     11  C   UNL     1       2.853   4.425  18.603  0.00  0.00    +0.000 A 
BRANCH  11  12
ATOM     12  C   UNL     1       1.453   4.058  18.338  0.00  0.00    +0.000 C 
ATOM     13  F   UNL     1       1.257   2.770  17.977  0.00  0.00    +0.000 F 
ATOM     14  F   UNL     1       0.676   4.277  19.431  0.00  0.00    +0.000 F 
ATOM     15  F   UNL     1       0.924   4.827  17.350  0.00  0.00    +0.000 F 
ENDBRANCH  11  12
BRANCH   7  17
ATOM     16  C   UNL     1       3.876   1.199  18.829  0.00  0.00    +0.000 C 
ATOM     17  C   UNL     1       3.962   2.280  17.767  0.00  0.00    +0.000 C 
ENDBRANCH   7  17
ENDBRANCH   1  10
BRANCH   4  18
ATOM     18  C   UNL     1       1.387  10.051  18.720  0.00  0.00    +0.000 C 
BRANCH  18  19
ATOM     19  C   UNL     1      -0.081  10.370  18.532  0.00  0.00    +0.000 A 
ATOM     20  C   UNL     1      -0.758  11.212  19.335  0.00  0.00    +0.000 A 
ATOM     21  C   UNL     1      -2.130  11.562  19.046  0.00  0.00    +0.000 A 
ATOM     22  C   UNL     1      -2.754  11.058  17.972  0.00  0.00    +0.000 A 
ATOM     23  C   UNL     1      -2.026  10.124  17.075  0.00  0.00    +0.000 A 
ATOM     24  O   UNL     1      -2.572   9.655  16.084  0.00  0.00    +0.000 OA
ATOM     25  N   UNL     1      -0.725   9.844  17.428  0.00  0.00    +0.000 N 
ATOM     26  H   UNL     1      -0.209   9.236  16.796  0.00  0.00    +0.000 HD
ENDBRANCH  18  19
ENDBRANCH   4  18
TORSDOF 5
ENDMDL
MODEL 8
REMARK VINA RESULT:      -7.4      4.685      7.413
REMARK  Name = 
REMARK  7 active torsions:
REMARK  status: ('A' for Active; 'I' for Inactive)
REMARK    1  A    between atoms: C_1  and  C_2
REMARK    2  A    between atoms: C_2  and  N_3
REMARK    3  A    between atoms: C_6  and  N_7
REMARK    4  A    between atoms: N_10  and  C_11
REMARK    5  A    between atoms: N_10  and  C_12
REMARK    6  A    between atoms: C_12  and  C_13
REMARK    7  A    between atoms: C_20  and  C_21
REMARK                            x       y       z     vdW  Elec       q    Type
REMARK                         _______ _______ _______ _____ _____    ______ ____
ROOT
ATOM      1  N   UNL     1       3.716   5.519  17.930  0.00  0.00    +0.000 N 
ATOM      2  C   UNL     1       4.925   4.953  17.598  0.00  0.00    +0.000 C 
ATOM      3  O   UNL     1       5.435   4.028  18.229  0.00  0.00    +0.000 OA
ATOM      4  N   UNL     1       5.562   5.500  16.480  0.00  0.00    +0.000 N 
ATOM      5  C   UNL     1       5.064   6.578  15.628  0.00  0.00    +0.000 C 
ATOM      6  H   UNL     1       3.330   6.221  17.326  0.00  0.00    +0.000 HD
ENDROOT
BRANCH   1  10
ATOM      7  N   UNL     1       1.610   4.017  20.348  0.00  0.00    +0.000 N 
ATOM      8  N   UNL     1       1.800   5.180  21.001  0.00  0.00    +0.000 NA
ATOM      9  C   UNL     1       2.606   5.881  20.196  0.00  0.00    +0.000 A 
ATOM     10  C   UNL     1       2.929   5.175  19.021  0.00  0.00    +0.000 A 
ATOM     11  C   UNL     1       2.257   3.970  19.139  0.00  0.00    +0.000 A 
BRANCH  11  12
ATOM     12  C   UNL     1       2.187   2.837  18.202  0.00  0.00    +0.000 C 
ATOM     13  F   UNL     1       1.032   2.136  18.237  0.00  0.00    +0.000 F 
ATOM     14  F   UNL     1       2.348   3.256  16.919  0.00  0.00    +0.000 F 
ATOM     15  F   UNL     1       3.191   1.951  18.430  0.00  0.00    +0.000 F 
ENDBRANCH  11  12
BRANCH   7  17
ATOM     16  C   UNL     1       1.496   2.254  22.065  0.00  0.00    +0.000 C 
ATOM     17  C   UNL     1       0.761   3.020  20.980  0.00  0.00    +0.000 C 
ENDBRANCH   7  17
ENDBRANCH   1  10
BRANCH   4  18
ATOM     18  C   UNL     1       6.885   4.974  16.122  0.00  0.00    +0.000 C 
BRANCH  18  19
ATOM     19  C   UNL     1       7.037   4.739  14.634  0.00  0.00    +0.000 A 
ATOM     20  C   UNL     1       6.371   3.774  13.972  0.00  0.00    +0.000 A 
ATOM     21  C   UNL     1       6.474   3.662  12.534  0.00  0.00    +0.000 A 
ATOM     22  C   UNL     1       7.231   4.518  11.834  0.00  0.00    +0.000 A 
ATOM     23  C   UNL     1       7.977   5.588  12.546  0.00  0.00    +0.000 A 
ATOM     24  O   UNL     1       8.669   6.386  11.927  0.00  0.00    +0.000 OA
ATOM     25  N   UNL     1       7.823   5.618  13.913  0.00  0.00    +0.000 N 
ATOM     26  H   UNL     1       8.299   6.372  14.402  0.00  0.00    +0.000 HD
ENDBRANCH  18  19
ENDBRANCH   4  18
TORSDOF 5
ENDMDL
MODEL 9
REMARK VINA RESULT:      -7.4      1.443      1.863
REMARK  Name = 
REMARK  7 active torsions:
REMARK  status: ('A' for Active; 'I' for Inactive)
REMARK    1  A    between atoms: C_1  and  C_2
REMARK    2  A    between atoms: C_2  and  N_3
REMARK    3  A    between atoms: C_6  and  N_7
REMARK    4  A    between atoms: N_10  and  C_11
REMARK    5  A    between atoms: N_10  and  C_12
REMARK    6  A    between atoms: C_12  and  C_13
REMARK    7  A    between atoms: C_20  and  C_21
REMARK                            x       y       z     vdW  Elec       q    Type
REMARK                         _______ _______ _______ _____ _____    ______ ____
ROOT
ATOM      1  N   UNL     1       1.731   8.214  19.358  0.00  0.00    +0.000 N 
ATOM      2  C   UNL     1       1.257   9.321  18.691  0.00  0.00    +0.000 C 
ATOM      3  O   UNL     1       1.498   9.553  17.508  0.00  0.00    +0.000 OA
ATOM      4  N   UNL     1       0.468  10.191  19.450  0.00  0.00    +0.000 N 
ATOM      5  C   UNL     1       0.082  10.030  20.850  0.00  0.00    +0.000 C 
ATOM      6  H   UNL     1       1.432   8.056  20.302  0.00  0.00    +0.000 HD
ENDROOT
BRANCH   1  10
ATOM      7  N   UNL     1       3.542   5.297  18.493  0.00  0.00    +0.000 N 
ATOM      8  N   UNL     1       4.127   6.120  17.600  0.00  0.00    +0.000 NA
ATOM      9  C   UNL     1       3.530   7.300  17.801  0.00  0.00    +0.000 A 
ATOM     10  C   UNL     1       2.566   7.242  18.827  0.00  0.00    +0.000 A 
ATOM     11  C   UNL     1       2.604   5.929  19.270  0.00  0.00    +0.000 A 
BRANCH  11  12
ATOM     12  C   UNL     1       1.845   5.281  20.351  0.00  0.00    +0.000 C 
ATOM     13  F   UNL     1       2.598   4.690  21.305  0.00  0.00    +0.000 F 
ATOM     14  F   UNL     1       1.043   6.175  20.987  0.00  0.00    +0.000 F 
ATOM     15  F   UNL     1       1.013   4.325  19.859  0.00  0.00    +0.000 F 
ENDBRANCH  11  12
BRANCH   7  17
ATOM     16  C   UNL     1       4.323   3.394  17.138  0.00  0.00    +0.000 C 
ATOM     17  C   UNL     1       3.984   3.913  18.524  0.00  0.00    +0.000 C 
ENDBRANCH   7  17
ENDBRANCH   1  10
BRANCH   4  18
ATOM     18  C   UNL     1      -0.010  11.419  18.803  0.00  0.00    +0.000 C 
BRANCH  18  19
ATOM     19  C   UNL     1      -1.387  11.262  18.196  0.00  0.00    +0.000 A 
ATOM     20  C   UNL     1      -2.512  11.671  18.813  0.00  0.00    +0.000 A 
ATOM     21  C   UNL     1      -3.790  11.592  18.142  0.00  0.00    +0.000 A 
ATOM     22  C   UNL     1      -3.880  11.115  16.893  0.00  0.00    +0.000 A 
ATOM     23  C   UNL     1      -2.651  10.656  16.196  0.00  0.00    +0.000 A 
ATOM     24  O   UNL     1      -2.706  10.222  15.051  0.00  0.00    +0.000 OA
ATOM     25  N   UNL     1      -1.479  10.764  16.910  0.00  0.00    +0.000 N 
ATOM     26  H   UNL     1      -0.629  10.488  16.424  0.00  0.00    +0.000 HD
ENDBRANCH  18  19
ENDBRANCH   4  18
TORSDOF 5
ENDMDL
