MODEL 1
REMARK VINA RESULT:      -7.6      0.000      0.000
REMARK  Name = 
REMARK  11 active torsions:
REMARK  status: ('A' for Active; 'I' for Inactive)
REMARK    1  A    between atoms: C_1  and  C_2
REMARK    2  A    between atoms: C_2  and  O_4
REMARK    3  A    between atoms: O_4  and  C_5
REMARK    4  A    between atoms: C_5  and  C_6
REMARK    5  A    between atoms: C_6  and  C_7
REMARK    6  A    between atoms: C_6  and  N_14
REMARK    7  A    between atoms: C_7  and  C_8
REMARK    8  A    between atoms: C_15  and  C_17
REMARK    9  A    between atoms: C_17  and  N_18
REMARK   10  A    between atoms: C_17  and  C_19
REMARK   11  A    between atoms: C_19  and  C_20
REMARK                            x       y       z     vdW  Elec       q    Type
REMARK                         _______ _______ _______ _____ _____    ______ ____
ROOT
ATOM      1  N   UNL     1       4.064   5.000  17.814  0.00  0.00    +0.000 N 
ATOM      2  C   UNL     1       4.971   5.685  17.028  0.00  0.00    +0.000 C 
ATOM      3  O   UNL     1       4.743   6.788  16.540  0.00  0.00    +0.000 OA
ATOM      4  H   UNL     1       4.428   4.260  18.403  0.00  0.00    +0.000 HD
ENDROOT
BRANCH   1   5
ATOM      5  C   UNL     1       2.743   5.567  18.142  0.00  0.00    +0.000 C 
BRANCH   5   6
ATOM      6  C   UNL     1       1.683   4.446  18.297  0.00  0.00    +0.000 C 
BRANCH   6   7
ATOM      7  O   UNL     1       1.383   4.138  19.672  0.00  0.00    +0.000 OA
BRANCH   7   9
ATOM      8  C   UNL     1       1.557   2.651  21.494  0.00  0.00    +0.000 C 
ATOM      9  C   UNL     1       1.442   2.818  20.013  0.00  0.00    +0.000 C 
ATOM     10  O   UNL     1       1.422   1.895  19.207  0.00  0.00    +0.000 OA
ENDBRANCH   7   9
ENDBRANCH   6   7
ENDBRANCH   5   6
BRANCH   5  11
ATOM     11  C   UNL     1       2.797   6.389  19.456  0.00  0.00    +0.000 C 
BRANCH  11  12
ATOM     12  C   UNL     1       2.073   7.717  19.379  0.00  0.00    +0.000 A 
ATOM     13  C   UNL     1       1.435   8.251  20.505  0.00  0.00    +0.000 A 
ATOM     14  C   UNL     1       0.696   9.432  20.408  0.00  0.00    +0.000 A 
ATOM     15  C   UNL     1       0.596  10.097  19.188  0.00  0.00    +0.000 A 
ATOM     16  C   UNL     1       1.268   9.604  18.073  0.00  0.00    +0.000 A 
ATOM     17  C   UNL     1       2.011   8.425  18.168  0.00  0.00    +0.000 A 
ENDBRANCH  11  12
ENDBRANCH   5  11
ENDBRANCH   1   5
BRANCH   2  18
ATOM     18  C   UNL     1       6.269   4.902  16.739  0.00  0.00    +0.000 C 
BRANCH  18  19
ATOM     19  N   UNL     1       6.788   4.376  18.026  0.00  0.00    +0.000 NA
ATOM     20  H   UNL     1       6.791   5.137  18.706  0.00  0.00    +0.000 HD
ATOM     21  H   UNL     1       7.763   4.107  17.909  0.00  0.00    +0.000 HD
ENDBRANCH  18  19
BRANCH  18  22
ATOM     22  C   UNL     1       5.949   3.786  15.726  0.00  0.00    +0.000 C 
BRANCH  22  23
ATOM     23  C   UNL     1       6.430   4.057  14.322  0.00  0.00    +0.000 A 
ATOM     24  C   UNL     1       7.415   5.026  14.087  0.00  0.00    +0.000 A 
ATOM     25  C   UNL     1       7.868   5.273  12.793  0.00  0.00    +0.000 A 
ATOM     26  C   UNL     1       7.341   4.555  11.720  0.00  0.00    +0.000 A 
ATOM     27  C   UNL     1       6.361   3.591  11.943  0.00  0.00    +0.000 A 
ATOM     28  C   UNL     1       5.903   3.343  13.238  0.00  0.00    +0.000 A 
ENDBRANCH  22  23
ENDBRANCH  18  22
ENDBRANCH   2  18
TORSDOF 10
ENDMDL
MODEL 2
REMARK VINA RESULT:      -7.6      0.560      1.186
REMARK  Name = 
REMARK  11 active torsions:
REMARK  status: ('A' for Active; 'I' for Inactive)
REMARK    1  A    between atoms: C_1  and  C_2
REMARK    2  A    between atoms: C_2  and  O_4
REMARK    3  A    between atoms: O_4  and  C_5
REMARK    4  A    between atoms: C_5  and  C_6
REMARK    5  A    between atoms: C_6  and  C_7
REMARK    6  A    between atoms: C_6  and  N_14
REMARK    7  A    between atoms: C_7  and  C_8
REMARK    8  A    between atoms: C_15  and  C_17
REMARK    9  A    between atoms: C_17  and  N_18
REMARK   10  A    between atoms: C_17  and  C_19
REMARK   11  A    between atoms: C_19  and  C_20
REMARK                            x       y       z     vdW  Elec       q    Type
REMARK                         _______ _______ _______ _____ _____    ______ ____
ROOT
ATOM      1  N   UNL     1       3.983   4.896  17.813  0.00  0.00    +0.000 N 
ATOM      2  C   UNL     1       4.939   5.633  17.141  0.00  0.00    +0.000 C 
ATOM      3  O   UNL     1       4.767   6.794  16.781  0.00  0.00    +0.000 OA
ATOM      4  H   UNL     1       4.301   4.078  18.319  0.00  0.00    +0.000 HD
ENDROOT
BRANCH   1   5
ATOM      5  C   UNL     1       2.673   5.471  18.166  0.00  0.00    +0.000 C 
BRANCH   5   6
ATOM      6  C   UNL     1       1.605   4.357  18.324  0.00  0.00    +0.000 C 
BRANCH   6   7
ATOM      7  O   UNL     1       1.141   4.208  19.679  0.00  0.00    +0.000 OA
BRANCH   7   9
ATOM      8  C   UNL     1       1.721   1.971  19.206  0.00  0.00    +0.000 C 
ATOM      9  C   UNL     1       1.323   2.977  20.238  0.00  0.00    +0.000 C 
ATOM     10  O   UNL     1       1.161   2.728  21.428  0.00  0.00    +0.000 OA
ENDBRANCH   7   9
ENDBRANCH   6   7
ENDBRANCH   5   6
BRANCH   5  11
ATOM     11  C   UNL     1       2.753   6.278  19.488  0.00  0.00    +0.000 C 
BRANCH  11  12
ATOM     12  C   UNL     1       2.099   7.642  19.414  0.00  0.00    +0.000 A 
ATOM     13  C   UNL     1       1.513   8.217  20.550  0.00  0.00    +0.000 A 
ATOM     14  C   UNL     1       0.836   9.434  20.458  0.00  0.00    +0.000 A 
ATOM     15  C   UNL     1       0.746  10.096  19.235  0.00  0.00    +0.000 A 
ATOM     16  C   UNL     1       1.369   9.560  18.111  0.00  0.00    +0.000 A 
ATOM     17  C   UNL     1       2.050   8.344  18.200  0.00  0.00    +0.000 A 
ENDBRANCH  11  12
ENDBRANCH   5  11
ENDBRANCH   1   5
BRANCH   2  18
ATOM     18  C   UNL     1       6.219   4.841  16.800  0.00  0.00    +0.000 C 
BRANCH  18  19
ATOM     19  N   UNL     1       6.750   4.257  18.056  0.00  0.00    +0.000 NA
ATOM     20  H   UNL     1       7.748   4.469  18.112  0.00  0.00    +0.000 HD
ATOM     21  H   UNL     1       6.686   3.242  18.007  0.00  0.00    +0.000 HD
ENDBRANCH  18  19
BRANCH  18  22
ATOM     22  C   UNL     1       5.863   3.770  15.750  0.00  0.00    +0.000 C 
BRANCH  22  23
ATOM     23  C   UNL     1       6.386   4.051  14.364  0.00  0.00    +0.000 A 
ATOM     24  C   UNL     1       5.876   3.353  13.261  0.00  0.00    +0.000 A 
ATOM     25  C   UNL     1       6.351   3.615  11.977  0.00  0.00    +0.000 A 
ATOM     26  C   UNL     1       7.341   4.577  11.783  0.00  0.00    +0.000 A 
ATOM     27  C   UNL     1       7.856   5.275  12.873  0.00  0.00    +0.000 A 
ATOM     28  C   UNL     1       7.384   5.012  14.160  0.00  0.00    +0.000 A 
ENDBRANCH  22  23
ENDBRANCH  18  22
ENDBRANCH   2  18
TORSDOF 10
ENDMDL
MODEL 3
REMARK VINA RESULT:      -7.5      2.451      7.517
REMARK  Name = 
REMARK  11 active torsions:
REMARK  status: ('A' for Active; 'I' for Inactive)
REMARK    1  A    between atoms: C_1  and  C_2
REMARK    2  A    between atoms: C_2  and  O_4
REMARK    3  A    between atoms: O_4  and  C_5
REMARK    4  A    between atoms: C_5  and  C_6
REMARK    5  A    between atoms: C_6  and  C_7
REMARK    6  A    between atoms: C_6  and  N_14
REMARK    7  A    between atoms: C_7  and  C_8
REMARK    8  A    between atoms: C_15  and  C_17
REMARK    9  A    between atoms: C_17  and  N_18
REMARK   10  A    between atoms: C_17  and  C_19
REMARK   11  A    between atoms: C_19  and  C_20
REMARK                            x       y       z     vdW  Elec       q    Type
REMARK                         _______ _______ _______ _____ _____    ______ ____
ROOT
ATOM      1  N   UNL     1       4.681   5.233  17.480  0.00  0.00    +0.000 N 
ATOM      2  C   UNL     1       4.170   6.513  17.372  0.00  0.00    +0.000 C 
ATOM      3  O   UNL     1       4.648   7.370  16.635  0.00  0.00    +0.000 OA
ATOM      4  H   UNL     1       4.072   4.523  17.868  0.00  0.00    +0.000 HD
ENDROOT
BRANCH   1   5
ATOM      5  C   UNL     1       5.846   4.798  16.689  0.00  0.00    +0.000 C 
BRANCH   5   6
ATOM      6  C   UNL     1       6.909   4.123  17.595  0.00  0.00    +0.000 C 
BRANCH   6   7
ATOM      7  O   UNL     1       8.023   4.985  17.896  0.00  0.00    +0.000 OA
BRANCH   7   9
ATOM      8  C   UNL     1       8.045   7.263  18.505  0.00  0.00    +0.000 C 
ATOM      9  C   UNL     1       7.845   5.846  18.938  0.00  0.00    +0.000 C 
ATOM     10  O   UNL     1       7.575   5.499  20.083  0.00  0.00    +0.000 OA
ENDBRANCH   7   9
ENDBRANCH   6   7
ENDBRANCH   5   6
BRANCH   5  11
ATOM     11  C   UNL     1       5.428   3.797  15.579  0.00  0.00    +0.000 C 
BRANCH  11  12
ATOM     12  C   UNL     1       6.069   4.070  14.235  0.00  0.00    +0.000 A 
ATOM     13  C   UNL     1       5.639   3.392  13.087  0.00  0.00    +0.000 A 
ATOM     14  C   UNL     1       6.290   3.582  11.866  0.00  0.00    +0.000 A 
ATOM     15  C   UNL     1       7.369   4.460  11.776  0.00  0.00    +0.000 A 
ATOM     16  C   UNL     1       7.772   5.179  12.899  0.00  0.00    +0.000 A 
ATOM     17  C   UNL     1       7.120   4.993  14.121  0.00  0.00    +0.000 A 
ENDBRANCH  11  12
ENDBRANCH   5  11
ENDBRANCH   1   5
BRANCH   2  18
ATOM     18  C   UNL     1       2.994   6.802  18.328  0.00  0.00    +0.000 C 
BRANCH  18  19
ATOM     19  N   UNL     1       2.546   8.198  18.102  0.00  0.00    +0.000 NA
ATOM     20  H   UNL     1       3.210   8.651  17.472  0.00  0.00    +0.000 HD
ATOM     21  H   UNL     1       2.602   8.715  18.978  0.00  0.00    +0.000 HD
ENDBRANCH  18  19
BRANCH  18  22
ATOM     22  C   UNL     1       1.882   5.770  18.059  0.00  0.00    +0.000 C 
BRANCH  22  23
ATOM     23  C   UNL     1       1.817   4.642  19.059  0.00  0.00    +0.000 A 
ATOM     24  C   UNL     1       1.923   4.908  20.431  0.00  0.00    +0.000 A 
ATOM     25  C   UNL     1       1.855   3.870  21.359  0.00  0.00    +0.000 A 
ATOM     26  C   UNL     1       1.682   2.557  20.925  0.00  0.00    +0.000 A 
ATOM     27  C   UNL     1       1.576   2.282  19.563  0.00  0.00    +0.000 A 
ATOM     28  C   UNL     1       1.647   3.319  18.632  0.00  0.00    +0.000 A 
ENDBRANCH  22  23
ENDBRANCH  18  22
ENDBRANCH   2  18
TORSDOF 10
ENDMDL
MODEL 4
REMARK VINA RESULT:      -7.4      1.867      4.379
REMARK  Name = 
REMARK  11 active torsions:
REMARK  status: ('A' for Active; 'I' for Inactive)
REMARK    1  A    between atoms: C_1  and  C_2
REMARK    2  A    between atoms: C_2  and  O_4
REMARK    3  A    between atoms: O_4  and  C_5
REMARK    4  A    between atoms: C_5  and  C_6
REMARK    5  A    between atoms: C_6  and  C_7
REMARK    6  A    between atoms: C_6  and  N_14
REMARK    7  A    between atoms: C_7  and  C_8
REMARK    8  A    between atoms: C_15  and  C_17
REMARK    9  A    between atoms: C_17  and  N_18
REMARK   10  A    between atoms: C_17  and  C_19
REMARK   11  A    between atoms: C_19  and  C_20
REMARK                            x       y       z     vdW  Elec       q    Type
REMARK                         _______ _______ _______ _____ _____    ______ ____
ROOT
ATOM      1  N   UNL     1       4.411   5.959  17.337  0.00  0.00    +0.000 N 
ATOM      2  C   UNL     1       5.504   5.385  17.958  0.00  0.00    +0.000 C 
ATOM      3  O   UNL     1       5.641   5.340  19.177  0.00  0.00    +0.000 OA
ATOM      4  H   UNL     1       4.237   5.698  16.374  0.00  0.00    +0.000 HD
ENDROOT
BRANCH   1   5
ATOM      5  C   UNL     1       3.305   6.550  18.112  0.00  0.00    +0.000 C 
BRANCH   5   6
ATOM      6  C   UNL     1       2.973   7.976  17.601  0.00  0.00    +0.000 C 
BRANCH   6   7
ATOM      7  O   UNL     1       2.399   8.821  18.617  0.00  0.00    +0.000 OA
BRANCH   7   9
ATOM      8  C   UNL     1       1.804  11.097  18.460  0.00  0.00    +0.000 C 
ATOM      9  C   UNL     1       1.422   9.675  18.199  0.00  0.00    +0.000 C 
ATOM     10  O   UNL     1       0.363   9.320  17.694  0.00  0.00    +0.000 OA
ENDBRANCH   7   9
ENDBRANCH   6   7
ENDBRANCH   5   6
BRANCH   5  11
ATOM     11  C   UNL     1       2.027   5.676  18.020  0.00  0.00    +0.000 C 
BRANCH  11  12
ATOM     12  C   UNL     1       1.942   4.601  19.084  0.00  0.00    +0.000 A 
ATOM     13  C   UNL     1       1.451   3.326  18.775  0.00  0.00    +0.000 A 
ATOM     14  C   UNL     1       1.293   2.365  19.775  0.00  0.00    +0.000 A 
ATOM     15  C   UNL     1       1.633   2.664  21.093  0.00  0.00    +0.000 A 
ATOM     16  C   UNL     1       2.170   3.911  21.404  0.00  0.00    +0.000 A 
ATOM     17  C   UNL     1       2.333   4.873  20.404  0.00  0.00    +0.000 A 
ENDBRANCH  11  12
ENDBRANCH   5  11
ENDBRANCH   1   5
BRANCH   2  18
ATOM     18  C   UNL     1       6.589   4.882  16.983  0.00  0.00    +0.000 C 
BRANCH  18  19
ATOM     19  N   UNL     1       7.610   4.144  17.766  0.00  0.00    +0.000 NA
ATOM     20  H   UNL     1       8.487   4.665  17.722  0.00  0.00    +0.000 HD
ATOM     21  H   UNL     1       7.797   3.251  17.316  0.00  0.00    +0.000 HD
ENDBRANCH  18  19
BRANCH  18  22
ATOM     22  C   UNL     1       5.911   4.004  15.913  0.00  0.00    +0.000 C 
BRANCH  22  23
ATOM     23  C   UNL     1       6.440   4.199  14.514  0.00  0.00    +0.000 A 
ATOM     24  C   UNL     1       5.939   3.429  13.455  0.00  0.00    +0.000 A 
ATOM     25  C   UNL     1       6.419   3.611  12.160  0.00  0.00    +0.000 A 
ATOM     26  C   UNL     1       7.406   4.564  11.909  0.00  0.00    +0.000 A 
ATOM     27  C   UNL     1       7.912   5.333  12.955  0.00  0.00    +0.000 A 
ATOM     28  C   UNL     1       7.435   5.150  14.254  0.00  0.00    +0.000 A 
ENDBRANCH  22  23
ENDBRANCH  18  22
ENDBRANCH   2  18
TORSDOF 10
ENDMDL
MODEL 5
REMARK VINA RESULT:      -7.3      2.424      7.678
REMARK  Name = 
REMARK  11 active torsions:
REMARK  status: ('A' for Active; 'I' for Inactive)
REMARK    1  A    between atoms: C_1  and  C_2
REMARK    2  A    between atoms: C_2  and  O_4
REMARK    3  A    between atoms: O_4  and  C_5
REMARK    4  A    between atoms: C_5  and  C_6
REMARK    5  A    between atoms: C_6  and  C_7
REMARK    6  A    between atoms: C_6  and  N_14
REMARK    7  A    between atoms: C_7  and  C_8
REMARK    8  A    between atoms: C_15  and  C_17
REMARK    9  A    between atoms: C_17  and  N_18
REMARK   10  A    between atoms: C_17  and  C_19
REMARK   11  A    between atoms: C_19  and  C_20
REMARK                            x       y       z     vdW  Elec       q    Type
REMARK                         _______ _______ _______ _____ _____    ______ ____
ROOT
ATOM      1  N   UNL     1       4.300   5.366  17.160  0.00  0.00    +0.000 N 
ATOM      2  C   UNL     1       4.016   6.655  17.574  0.00  0.00    +0.000 C 
ATOM      3  O   UNL     1       4.773   7.604  17.391  0.00  0.00    +0.000 OA
ATOM      4  H   UNL     1       3.521   4.723  17.085  0.00  0.00    +0.000 HD
ENDROOT
BRANCH   1   5
ATOM      5  C   UNL     1       5.545   5.043  16.440  0.00  0.00    +0.000 C 
BRANCH   5   6
ATOM      6  C   UNL     1       6.657   4.606  17.429  0.00  0.00    +0.000 C 
BRANCH   6   7
ATOM      7  O   UNL     1       7.792   5.493  17.428  0.00  0.00    +0.000 OA
BRANCH   7   9
ATOM      8  C   UNL     1       7.543   5.657  19.768  0.00  0.00    +0.000 C 
ATOM      9  C   UNL     1       7.879   6.350  18.486  0.00  0.00    +0.000 C 
ATOM     10  O   UNL     1       8.175   7.536  18.391  0.00  0.00    +0.000 OA
ENDBRANCH   7   9
ENDBRANCH   6   7
ENDBRANCH   5   6
BRANCH   5  11
ATOM     11  C   UNL     1       5.317   3.907  15.409  0.00  0.00    +0.000 C 
BRANCH  11  12
ATOM     12  C   UNL     1       6.101   4.079  14.125  0.00  0.00    +0.000 A 
ATOM     13  C   UNL     1       7.141   5.014  14.041  0.00  0.00    +0.000 A 
ATOM     14  C   UNL     1       7.803   5.231  12.831  0.00  0.00    +0.000 A 
ATOM     15  C   UNL     1       7.441   4.510  11.695  0.00  0.00    +0.000 A 
ATOM     16  C   UNL     1       6.443   3.542  11.778  0.00  0.00    +0.000 A 
ATOM     17  C   UNL     1       5.781   3.319  12.988  0.00  0.00    +0.000 A 
ENDBRANCH  11  12
ENDBRANCH   5  11
ENDBRANCH   1   5
BRANCH   2  18
ATOM     18  C   UNL     1       2.701   6.784  18.369  0.00  0.00    +0.000 C 
BRANCH  18  19
ATOM     19  N   UNL     1       2.052   8.061  17.986  0.00  0.00    +0.000 NA
ATOM     20  H   UNL     1       1.459   7.890  17.172  0.00  0.00    +0.000 HD
ATOM     21  H   UNL     1       2.764   8.719  17.674  0.00  0.00    +0.000 HD
ENDBRANCH  18  19
BRANCH  18  22
ATOM     22  C   UNL     1       1.823   5.555  18.062  0.00  0.00    +0.000 C 
BRANCH  22  23
ATOM     23  C   UNL     1       1.739   4.548  19.182  0.00  0.00    +0.000 A 
ATOM     24  C   UNL     1       1.241   3.260  18.938  0.00  0.00    +0.000 A 
ATOM     25  C   UNL     1       1.169   2.324  19.968  0.00  0.00    +0.000 A 
ATOM     26  C   UNL     1       1.593   2.665  21.251  0.00  0.00    +0.000 A 
ATOM     27  C   UNL     1       2.089   3.942  21.504  0.00  0.00    +0.000 A 
ATOM     28  C   UNL     1       2.159   4.883  20.475  0.00  0.00    +0.000 A 
ENDBRANCH  22  23
ENDBRANCH  18  22
ENDBRANCH   2  18
TORSDOF 10
ENDMDL
MODEL 6
REMARK VINA RESULT:      -7.2      1.091      1.545
REMARK  Name = 
REMARK  11 active torsions:
REMARK  status: ('A' for Active; 'I' for Inactive)
REMARK    1  A    between atoms: C_1  and  C_2
REMARK    2  A    between atoms: C_2  and  O_4
REMARK    3  A    between atoms: O_4  and  C_5
REMARK    4  A    between atoms: C_5  and  C_6
REMARK    5  A    between atoms: C_6  and  C_7
REMARK    6  A    between atoms: C_6  and  N_14
REMARK    7  A    between atoms: C_7  and  C_8
REMARK    8  A    between atoms: C_15  and  C_17
REMARK    9  A    between atoms: C_17  and  N_18
REMARK   10  A    between atoms: C_17  and  C_19
REMARK   11  A    between atoms: C_19  and  C_20
REMARK                            x       y       z     vdW  Elec       q    Type
REMARK                         _______ _______ _______ _____ _____    ______ ____
ROOT
ATOM      1  N   UNL     1       4.849   5.754  17.728  0.00  0.00    +0.000 N 
ATOM      2  C   UNL     1       5.502   6.425  16.711  0.00  0.00    +0.000 C 
ATOM      3  O   UNL     1       4.918   7.048  15.829  0.00  0.00    +0.000 OA
ATOM      4  H   UNL     1       5.390   5.526  18.553  0.00  0.00    +0.000 HD
ENDROOT
BRANCH   1   5
ATOM      5  C   UNL     1       3.379   5.758  17.835  0.00  0.00    +0.000 C 
BRANCH   5   6
ATOM      6  C   UNL     1       2.805   4.336  17.602  0.00  0.00    +0.000 C 
BRANCH   6   7
ATOM      7  O   UNL     1       1.636   4.062  18.397  0.00  0.00    +0.000 OA
BRANCH   7   9
ATOM      8  C   UNL     1       2.618   1.929  18.610  0.00  0.00    +0.000 C 
ATOM      9  C   UNL     1       1.365   2.744  18.623  0.00  0.00    +0.000 C 
ATOM     10  O   UNL     1       0.239   2.290  18.795  0.00  0.00    +0.000 OA
ENDBRANCH   7   9
ENDBRANCH   6   7
ENDBRANCH   5   6
BRANCH   5  11
ATOM     11  C   UNL     1       2.920   6.260  19.229  0.00  0.00    +0.000 C 
BRANCH  11  12
ATOM     12  C   UNL     1       2.187   7.585  19.192  0.00  0.00    +0.000 A 
ATOM     13  C   UNL     1       2.131   8.339  18.013  0.00  0.00    +0.000 A 
ATOM     14  C   UNL     1       1.530   9.599  18.004  0.00  0.00    +0.000 A 
ATOM     15  C   UNL     1       0.968  10.115  19.171  0.00  0.00    +0.000 A 
ATOM     16  C   UNL     1       0.971   9.352  20.336  0.00  0.00    +0.000 A 
ATOM     17  C   UNL     1       1.569   8.090  20.347  0.00  0.00    +0.000 A 
ENDBRANCH  11  12
ENDBRANCH   5  11
ENDBRANCH   1   5
BRANCH   2  18
ATOM     18  C   UNL     1       7.035   6.250  16.726  0.00  0.00    +0.000 C 
BRANCH  18  19
ATOM     19  N   UNL     1       7.516   6.496  18.108  0.00  0.00    +0.000 NA
ATOM     20  H   UNL     1       6.733   6.845  18.663  0.00  0.00    +0.000 HD
ATOM     21  H   UNL     1       8.201   7.249  18.095  0.00  0.00    +0.000 HD
ENDBRANCH  18  19
BRANCH  18  22
ATOM     22  C   UNL     1       7.368   4.831  16.224  0.00  0.00    +0.000 C 
BRANCH  22  23
ATOM     23  C   UNL     1       7.126   4.614  14.751  0.00  0.00    +0.000 A 
ATOM     24  C   UNL     1       7.890   5.303  13.800  0.00  0.00    +0.000 A 
ATOM     25  C   UNL     1       7.676   5.099  12.438  0.00  0.00    +0.000 A 
ATOM     26  C   UNL     1       6.694   4.205  12.014  0.00  0.00    +0.000 A 
ATOM     27  C   UNL     1       5.928   3.515  12.951  0.00  0.00    +0.000 A 
ATOM     28  C   UNL     1       6.139   3.721  14.315  0.00  0.00    +0.000 A 
ENDBRANCH  22  23
ENDBRANCH  18  22
ENDBRANCH   2  18
TORSDOF 10
ENDMDL
MODEL 7
REMARK VINA RESULT:      -7.2      1.842      4.590
REMARK  Name = 
REMARK  11 active torsions:
REMARK  status: ('A' for Active; 'I' for Inactive)
REMARK    1  A    between atoms: C_1  and  C_2
REMARK    2  A    between atoms: C_2  and  O_4
REMARK    3  A    between atoms: O_4  and  C_5
REMARK    4  A    between atoms: C_5  and  C_6
REMARK    5  A    between atoms: C_6  and  C_7
REMARK    6  A    between atoms: C_6  and  N_14
REMARK    7  A    between atoms: C_7  and  C_8
REMARK    8  A    between atoms: C_15  and  C_17
REMARK    9  A    between atoms: C_17  and  N_18
REMARK   10  A    between atoms: C_17  and  C_19
REMARK   11  A    between atoms: C_19  and  C_20
REMARK                            x       y       z     vdW  Elec       q    Type
REMARK                         _______ _______ _______ _____ _____    ______ ____
ROOT
ATOM      1  N   UNL     1       4.014   6.907  17.601  0.00  0.00    +0.000 N 
ATOM      2  C   UNL     1       5.137   6.101  17.617  0.00  0.00    +0.000 C 
ATOM      3  O   UNL     1       5.314   5.206  18.438  0.00  0.00    +0.000 OA
ATOM      4  H   UNL     1       3.813   7.404  16.741  0.00  0.00    +0.000 HD
ENDROOT
BRANCH   1   5
ATOM      5  C   UNL     1       2.924   6.731  18.577  0.00  0.00    +0.000 C 
BRANCH   5   6
ATOM      6  C   UNL     1       2.099   8.037  18.726  0.00  0.00    +0.000 C 
BRANCH   6   7
ATOM      7  O   UNL     1       2.587   9.109  17.897  0.00  0.00    +0.000 OA
BRANCH   7   9
ATOM      8  C   UNL     1       0.534  10.120  18.470  0.00  0.00    +0.000 C 
ATOM      9  C   UNL     1       1.955  10.309  18.044  0.00  0.00    +0.000 C 
ATOM     10  O   UNL     1       2.481  11.397  17.834  0.00  0.00    +0.000 OA
ENDBRANCH   7   9
ENDBRANCH   6   7
ENDBRANCH   5   6
BRANCH   5  11
ATOM     11  C   UNL     1       1.970   5.584  18.152  0.00  0.00    +0.000 C 
BRANCH  11  12
ATOM     12  C   UNL     1       1.824   4.492  19.190  0.00  0.00    +0.000 A 
ATOM     13  C   UNL     1       1.977   4.776  20.553  0.00  0.00    +0.000 A 
ATOM     14  C   UNL     1       1.928   3.752  21.501  0.00  0.00    +0.000 A 
ATOM     15  C   UNL     1       1.715   2.435  21.099  0.00  0.00    +0.000 A 
ATOM     16  C   UNL     1       1.511   2.147  19.752  0.00  0.00    +0.000 A 
ATOM     17  C   UNL     1       1.556   3.170  18.801  0.00  0.00    +0.000 A 
ENDBRANCH  11  12
ENDBRANCH   5  11
ENDBRANCH   1   5
BRANCH   2  18
ATOM     18  C   UNL     1       6.198   6.480  16.563  0.00  0.00    +0.000 C 
BRANCH  18  19
ATOM     19  N   UNL     1       7.051   7.554  17.130  0.00  0.00    +0.000 NA
ATOM     20  H   UNL     1       7.990   7.456  16.743  0.00  0.00    +0.000 HD
ATOM     21  H   UNL     1       7.149   7.409  18.133  0.00  0.00    +0.000 HD
ENDBRANCH  18  19
BRANCH  18  22
ATOM     22  C   UNL     1       6.998   5.214  16.200  0.00  0.00    +0.000 C 
BRANCH  22  23
ATOM     23  C   UNL     1       6.898   4.802  14.752  0.00  0.00    +0.000 A 
ATOM     24  C   UNL     1       5.931   3.871  14.347  0.00  0.00    +0.000 A 
ATOM     25  C   UNL     1       5.830   3.493  13.010  0.00  0.00    +0.000 A 
ATOM     26  C   UNL     1       6.694   4.042  12.064  0.00  0.00    +0.000 A 
ATOM     27  C   UNL     1       7.659   4.967  12.455  0.00  0.00    +0.000 A 
ATOM     28  C   UNL     1       7.764   5.344  13.795  0.00  0.00    +0.000 A 
ENDBRANCH  22  23
ENDBRANCH  18  22
ENDBRANCH   2  18
TORSDOF 10
ENDMDL
MODEL 8
REMARK VINA RESULT:      -7.1      3.293      7.704
REMARK  Name = 
REMARK  11 active torsions:
REMARK  status: ('A' for Active; 'I' for Inactive)
REMARK    1  A    between atoms: C_1  and  C_2
REMARK    2  A    between atoms: C_2  and  O_4
REMARK    3  A    between atoms: O_4  and  C_5
REMARK    4  A    between atoms: C_5  and  C_6
REMARK    5  A    between atoms: C_6  and  C_7
REMARK    6  A    between atoms: C_6  and  N_14
REMARK    7  A    between atoms: C_7  and  C_8
REMARK    8  A    between atoms: C_15  and  C_17
REMARK    9  A    between atoms: C_17  and  N_18
REMARK   10  A    between atoms: C_17  and  C_19
REMARK   11  A    between atoms: C_19  and  C_20
REMARK                            x       y       z     vdW  Elec       q    Type
REMARK                         _______ _______ _______ _____ _____    ______ ____
ROOT
ATOM      1  N   UNL     1       2.871   6.562  18.591  0.00  0.00    +0.000 N 
ATOM      2  C   UNL     1       2.293   7.782  18.293  0.00  0.00    +0.000 C 
ATOM      3  O   UNL     1       2.510   8.396  17.253  0.00  0.00    +0.000 OA
ATOM      4  H   UNL     1       2.425   6.001  19.306  0.00  0.00    +0.000 HD
ENDROOT
BRANCH   1   5
ATOM      5  C   UNL     1       3.791   5.895  17.651  0.00  0.00    +0.000 C 
BRANCH   5   6
ATOM      6  C   UNL     1       5.257   5.997  18.147  0.00  0.00    +0.000 C 
BRANCH   6   7
ATOM      7  O   UNL     1       6.202   5.394  17.242  0.00  0.00    +0.000 OA
BRANCH   7   9
ATOM      8  C   UNL     1       7.699   5.859  19.004  0.00  0.00    +0.000 C 
ATOM      9  C   UNL     1       7.406   5.050  17.782  0.00  0.00    +0.000 C 
ATOM     10  O   UNL     1       8.156   4.200  17.312  0.00  0.00    +0.000 OA
ENDBRANCH   7   9
ENDBRANCH   6   7
ENDBRANCH   5   6
BRANCH   5  11
ATOM     11  C   UNL     1       3.425   4.398  17.477  0.00  0.00    +0.000 C 
BRANCH  11  12
ATOM     12  C   UNL     1       2.721   3.796  18.675  0.00  0.00    +0.000 A 
ATOM     13  C   UNL     1       1.325   3.683  18.702  0.00  0.00    +0.000 A 
ATOM     14  C   UNL     1       0.674   3.208  19.843  0.00  0.00    +0.000 A 
ATOM     15  C   UNL     1       1.410   2.831  20.964  0.00  0.00    +0.000 A 
ATOM     16  C   UNL     1       2.801   2.890  20.931  0.00  0.00    +0.000 A 
ATOM     17  C   UNL     1       3.456   3.361  19.790  0.00  0.00    +0.000 A 
ENDBRANCH  11  12
ENDBRANCH   5  11
ENDBRANCH   1   5
BRANCH   2  18
ATOM     18  C   UNL     1       1.415   8.353  19.426  0.00  0.00    +0.000 C 
BRANCH  18  19
ATOM     19  N   UNL     1       2.024   7.970  20.723  0.00  0.00    +0.000 NA
ATOM     20  H   UNL     1       1.764   7.004  20.927  0.00  0.00    +0.000 HD
ATOM     21  H   UNL     1       1.611   8.530  21.466  0.00  0.00    +0.000 HD
ENDBRANCH  18  19
BRANCH  18  22
ATOM     22  C   UNL     1       1.317   9.881  19.243  0.00  0.00    +0.000 C 
BRANCH  22  23
ATOM     23  C   UNL     1      -0.067  10.388  18.924  0.00  0.00    +0.000 A 
ATOM     24  C   UNL     1      -0.677  11.343  19.748  0.00  0.00    +0.000 A 
ATOM     25  C   UNL     1      -1.952  11.821  19.453  0.00  0.00    +0.000 A 
ATOM     26  C   UNL     1      -2.631  11.346  18.331  0.00  0.00    +0.000 A 
ATOM     27  C   UNL     1      -2.035  10.395  17.507  0.00  0.00    +0.000 A 
ATOM     28  C   UNL     1      -0.759   9.914  17.802  0.00  0.00    +0.000 A 
ENDBRANCH  22  23
ENDBRANCH  18  22
ENDBRANCH   2  18
TORSDOF 10
ENDMDL
MODEL 9
REMARK VINA RESULT:      -7.1      1.957      4.514
REMARK  Name = 
REMARK  11 active torsions:
REMARK  status: ('A' for Active; 'I' for Inactive)
REMARK    1  A    between atoms: C_1  and  C_2
REMARK    2  A    between atoms: C_2  and  O_4
REMARK    3  A    between atoms: O_4  and  C_5
REMARK    4  A    between atoms: C_5  and  C_6
REMARK    5  A    between atoms: C_6  and  C_7
REMARK    6  A    between atoms: C_6  and  N_14
REMARK    7  A    between atoms: C_7  and  C_8
REMARK    8  A    between atoms: C_15  and  C_17
REMARK    9  A    between atoms: C_17  and  N_18
REMARK   10  A    between atoms: C_17  and  C_19
REMARK   11  A    between atoms: C_19  and  C_20
REMARK                            x       y       z     vdW  Elec       q    Type
REMARK                         _______ _______ _______ _____ _____    ______ ____
ROOT
ATOM      1  N   UNL     1       4.061   6.593  17.453  0.00  0.00    +0.000 N 
ATOM      2  C   UNL     1       5.336   6.123  17.705  0.00  0.00    +0.000 C 
ATOM      3  O   UNL     1       5.672   5.623  18.775  0.00  0.00    +0.000 OA
ATOM      4  H   UNL     1       3.795   6.712  16.483  0.00  0.00    +0.000 HD
ENDROOT
BRANCH   1   5
ATOM      5  C   UNL     1       2.992   6.505  18.464  0.00  0.00    +0.000 C 
BRANCH   5   6
ATOM      6  C   UNL     1       2.366   7.900  18.730  0.00  0.00    +0.000 C 
BRANCH   6   7
ATOM      7  O   UNL     1       2.507   8.803  17.617  0.00  0.00    +0.000 OA
BRANCH   7   9
ATOM      8  C   UNL     1       0.504   9.906  18.195  0.00  0.00    +0.000 C 
ATOM      9  C   UNL     1       1.932  10.030  17.769  0.00  0.00    +0.000 C 
ATOM     10  O   UNL     1       2.508  11.093  17.564  0.00  0.00    +0.000 OA
ENDBRANCH   7   9
ENDBRANCH   6   7
ENDBRANCH   5   6
BRANCH   5  11
ATOM     11  C   UNL     1       1.871   5.533  18.013  0.00  0.00    +0.000 C 
BRANCH  11  12
ATOM     12  C   UNL     1       1.757   4.289  18.869  0.00  0.00    +0.000 A 
ATOM     13  C   UNL     1       1.311   4.372  20.195  0.00  0.00    +0.000 A 
ATOM     14  C   UNL     1       1.290   3.237  21.008  0.00  0.00    +0.000 A 
ATOM     15  C   UNL     1       1.703   2.006  20.503  0.00  0.00    +0.000 A 
ATOM     16  C   UNL     1       2.100   1.901  19.172  0.00  0.00    +0.000 A 
ATOM     17  C   UNL     1       2.119   3.034  18.355  0.00  0.00    +0.000 A 
ENDBRANCH  11  12
ENDBRANCH   5  11
ENDBRANCH   1   5
BRANCH   2  18
ATOM     18  C   UNL     1       6.333   6.364  16.553  0.00  0.00    +0.000 C 
BRANCH  18  19
ATOM     19  N   UNL     1       7.350   7.339  17.017  0.00  0.00    +0.000 NA
ATOM     20  H   UNL     1       8.274   6.925  16.890  0.00  0.00    +0.000 HD
ATOM     21  H   UNL     1       7.246   7.480  18.020  0.00  0.00    +0.000 HD
ENDBRANCH  18  19
BRANCH  18  22
ATOM     22  C   UNL     1       6.948   5.009  16.151  0.00  0.00    +0.000 C 
BRANCH  22  23
ATOM     23  C   UNL     1       6.904   4.714  14.672  0.00  0.00    +0.000 A 
ATOM     24  C   UNL     1       7.781   5.365  13.795  0.00  0.00    +0.000 A 
ATOM     25  C   UNL     1       7.750   5.090  12.429  0.00  0.00    +0.000 A 
ATOM     26  C   UNL     1       6.840   4.161  11.927  0.00  0.00    +0.000 A 
ATOM     27  C   UNL     1       5.963   3.509  12.790  0.00  0.00    +0.000 A 
ATOM     28  C   UNL     1       5.990   3.785  14.158  0.00  0.00    +0.000 A 
ENDBRANCH  22  23
ENDBRANCH  18  22
ENDBRANCH   2  18
TORSDOF 10
ENDMDL
