MODEL 1
REMARK VINA RESULT:      -8.4      0.000      0.000
REMARK  Name = 
REMARK  7 active torsions:
REMARK  status: ('A' for Active; 'I' for Inactive)
REMARK    1  A    between atoms: C_2  and  O_3
REMARK    2  A    between atoms: C_2  and  C_4
REMARK    3  A    between atoms: C_10  and  C_11
REMARK    4  A    between atoms: C_19  and  C_20
REMARK    5  A    between atoms: C_20  and  C_21
REMARK    6  A    between atoms: C_24  and  C_25
REMARK    7  A    between atoms: C_33  and  O_34
REMARK                            x       y       z     vdW  Elec       q    Type
REMARK                         _______ _______ _______ _____ _____    ______ ____
ROOT
ATOM      1  C   UNL     1      -3.118  12.881  21.957  0.00  0.00    +0.000 A 
ATOM      2  C   UNL     1      -2.279  12.148  22.819  0.00  0.00    +0.000 A 
ATOM      3  C   UNL     1      -0.960  11.839  22.464  0.00  0.00    +0.000 A 
ATOM      4  C   UNL     1      -0.459  12.227  21.220  0.00  0.00    +0.000 A 
ATOM      5  C   UNL     1      -1.284  12.930  20.345  0.00  0.00    +0.000 A 
ATOM      6  C   UNL     1      -2.586  13.268  20.717  0.00  0.00    +0.000 A 
ATOM      7  O   UNL     1      -0.923  13.290  19.076  0.00  0.00    +0.000 OA
ATOM      8  C   UNL     1       0.467  13.165  18.762  0.00  0.00    +0.000 C 
ATOM      9  C   UNL     1       1.109  11.886  19.310  0.00  0.00    +0.000 C 
ATOM     10  C   UNL     1       0.961  11.921  20.834  0.00  0.00    +0.000 C 
ENDROOT
BRANCH   1  17
ATOM     11  C   UNL     1      -4.797  14.215  23.384  0.00  0.00    +0.000 A 
ATOM     12  C   UNL     1      -6.135  14.419  23.785  0.00  0.00    +0.000 A 
ATOM     13  C   UNL     1      -7.181  13.739  23.168  0.00  0.00    +0.000 A 
ATOM     14  C   UNL     1      -6.894  12.852  22.148  0.00  0.00    +0.000 A 
ATOM     15  F   UNL     1      -7.888  12.194  21.541  0.00  0.00    +0.000 F 
ATOM     16  C   UNL     1      -5.579  12.615  21.755  0.00  0.00    +0.000 A 
ATOM     17  C   UNL     1      -4.488  13.274  22.368  0.00  0.00    +0.000 A 
BRANCH  11  19
ATOM     18  O   UNL     1      -3.282  14.637  25.163  0.00  0.00    +0.000 OA
ATOM     19  C   UNL     1      -3.803  15.035  24.134  0.00  0.00    +0.000 C 
BRANCH  19  20
ATOM     20  O   UNL     1      -3.603  16.277  23.652  0.00  0.00    +0.000 OA
ATOM     21  H   UNL     1      -2.730  16.439  23.250  0.00  0.00    +0.000 HD
ENDBRANCH  19  20
ENDBRANCH  11  19
ENDBRANCH   1  17
BRANCH  10  22
ATOM     22  O   UNL     1       1.814  12.948  21.355  0.00  0.00    +0.000 OA
ATOM     23  H   UNL     1       2.113  13.502  20.613  0.00  0.00    +0.000 HD
ENDBRANCH  10  22
BRANCH   9  24
ATOM     24  C   UNL     1       0.458  10.644  18.662  0.00  0.00    +0.000 C 
BRANCH  24  25
ATOM     25  C   UNL     1       1.227   9.358  18.845  0.00  0.00    +0.000 A 
ATOM     26  C   UNL     1       1.199   8.683  20.069  0.00  0.00    +0.000 A 
ATOM     27  C   UNL     1       1.875   7.467  20.228  0.00  0.00    +0.000 A 
ATOM     28  C   UNL     1       2.585   6.875  19.170  0.00  0.00    +0.000 A 
ATOM     29  C   UNL     1       2.607   7.576  17.949  0.00  0.00    +0.000 A 
ATOM     30  C   UNL     1       1.948   8.800  17.790  0.00  0.00    +0.000 A 
BRANCH  28  31
ATOM     31  C   UNL     1       3.272   5.566  19.325  0.00  0.00    +0.000 A 
ATOM     32  C   UNL     1       4.612   5.387  18.936  0.00  0.00    +0.000 A 
ATOM     33  C   UNL     1       5.256   4.154  19.076  0.00  0.00    +0.000 A 
ATOM     34  C   UNL     1       4.578   3.070  19.624  0.00  0.00    +0.000 A 
ATOM     35  C   UNL     1       3.258   3.223  20.032  0.00  0.00    +0.000 A 
ATOM     36  C   UNL     1       2.612   4.453  19.876  0.00  0.00    +0.000 A 
ENDBRANCH  28  31
ENDBRANCH  24  25
ENDBRANCH   9  24
TORSDOF 7
ENDMDL
MODEL 2
REMARK VINA RESULT:      -8.3      2.507      3.377
REMARK  Name = 
REMARK  7 active torsions:
REMARK  status: ('A' for Active; 'I' for Inactive)
REMARK    1  A    between atoms: C_2  and  O_3
REMARK    2  A    between atoms: C_2  and  C_4
REMARK    3  A    between atoms: C_10  and  C_11
REMARK    4  A    between atoms: C_19  and  C_20
REMARK    5  A    between atoms: C_20  and  C_21
REMARK    6  A    between atoms: C_24  and  C_25
REMARK    7  A    between atoms: C_33  and  O_34
REMARK                            x       y       z     vdW  Elec       q    Type
REMARK                         _______ _______ _______ _____ _____    ______ ____
ROOT
ATOM      1  C   UNL     1      -4.081  12.820  20.439  0.00  0.00    +0.000 A 
ATOM      2  C   UNL     1      -3.777  12.716  21.810  0.00  0.00    +0.000 A 
ATOM      3  C   UNL     1      -2.479  12.427  22.250  0.00  0.00    +0.000 A 
ATOM      4  C   UNL     1      -1.459  12.200  21.324  0.00  0.00    +0.000 A 
ATOM      5  C   UNL     1      -1.749  12.274  19.963  0.00  0.00    +0.000 A 
ATOM      6  C   UNL     1      -3.034  12.598  19.529  0.00  0.00    +0.000 A 
ATOM      7  O   UNL     1      -0.847  11.994  18.973  0.00  0.00    +0.000 OA
ATOM      8  C   UNL     1       0.520  11.893  19.383  0.00  0.00    +0.000 C 
ATOM      9  C   UNL     1       0.712  11.140  20.703  0.00  0.00    +0.000 C 
ATOM     10  C   UNL     1      -0.057  11.910  21.781  0.00  0.00    +0.000 C 
ENDROOT
BRANCH   1  17
ATOM     11  C   UNL     1      -6.354  12.337  19.330  0.00  0.00    +0.000 A 
ATOM     12  C   UNL     1      -7.570  12.839  18.816  0.00  0.00    +0.000 A 
ATOM     13  C   UNL     1      -7.916  14.179  18.971  0.00  0.00    +0.000 A 
ATOM     14  C   UNL     1      -7.049  15.021  19.639  0.00  0.00    +0.000 A 
ATOM     15  F   UNL     1      -7.369  16.310  19.800  0.00  0.00    +0.000 F 
ATOM     16  C   UNL     1      -5.833  14.553  20.129  0.00  0.00    +0.000 A 
ATOM     17  C   UNL     1      -5.438  13.204  19.978  0.00  0.00    +0.000 A 
BRANCH  11  19
ATOM     18  O   UNL     1      -5.451  10.465  18.182  0.00  0.00    +0.000 OA
ATOM     19  C   UNL     1      -6.148  10.880  19.094  0.00  0.00    +0.000 C 
BRANCH  19  20
ATOM     20  O   UNL     1      -6.864  10.062  19.890  0.00  0.00    +0.000 OA
ATOM     21  H   UNL     1      -7.640   9.642  19.475  0.00  0.00    +0.000 HD
ENDBRANCH  19  20
ENDBRANCH  11  19
ENDBRANCH   1  17
BRANCH  10  22
ATOM     22  O   UNL     1       0.616  13.151  22.027  0.00  0.00    +0.000 OA
ATOM     23  H   UNL     1       1.107  13.072  22.863  0.00  0.00    +0.000 HD
ENDBRANCH  10  22
BRANCH   9  24
ATOM     24  C   UNL     1       0.248   9.674  20.552  0.00  0.00    +0.000 C 
BRANCH  24  25
ATOM     25  C   UNL     1       1.191   8.788  19.776  0.00  0.00    +0.000 A 
ATOM     26  C   UNL     1       1.766   7.664  20.377  0.00  0.00    +0.000 A 
ATOM     27  C   UNL     1       2.605   6.815  19.647  0.00  0.00    +0.000 A 
ATOM     28  C   UNL     1       2.885   7.045  18.289  0.00  0.00    +0.000 A 
ATOM     29  C   UNL     1       2.303   8.187  17.706  0.00  0.00    +0.000 A 
ATOM     30  C   UNL     1       1.477   9.049  18.436  0.00  0.00    +0.000 A 
BRANCH  28  31
ATOM     31  C   UNL     1       3.746   6.125  17.500  0.00  0.00    +0.000 A 
ATOM     32  C   UNL     1       4.777   6.608  16.675  0.00  0.00    +0.000 A 
ATOM     33  C   UNL     1       5.582   5.742  15.928  0.00  0.00    +0.000 A 
ATOM     34  C   UNL     1       5.385   4.368  16.001  0.00  0.00    +0.000 A 
ATOM     35  C   UNL     1       4.383   3.861  16.822  0.00  0.00    +0.000 A 
ATOM     36  C   UNL     1       3.570   4.731  17.554  0.00  0.00    +0.000 A 
ENDBRANCH  28  31
ENDBRANCH  24  25
ENDBRANCH   9  24
TORSDOF 7
ENDMDL
MODEL 3
REMARK VINA RESULT:      -8.2      1.753      2.264
REMARK  Name = 
REMARK  7 active torsions:
REMARK  status: ('A' for Active; 'I' for Inactive)
REMARK    1  A    between atoms: C_2  and  O_3
REMARK    2  A    between atoms: C_2  and  C_4
REMARK    3  A    between atoms: C_10  and  C_11
REMARK    4  A    between atoms: C_19  and  C_20
REMARK    5  A    between atoms: C_20  and  C_21
REMARK    6  A    between atoms: C_24  and  C_25
REMARK    7  A    between atoms: C_33  and  O_34
REMARK                            x       y       z     vdW  Elec       q    Type
REMARK                         _______ _______ _______ _____ _____    ______ ____
ROOT
ATOM      1  C   UNL     1      -3.765  13.044  21.861  0.00  0.00    +0.000 A 
ATOM      2  C   UNL     1      -3.024  12.292  22.793  0.00  0.00    +0.000 A 
ATOM      3  C   UNL     1      -1.678  11.977  22.571  0.00  0.00    +0.000 A 
ATOM      4  C   UNL     1      -1.049  12.380  21.392  0.00  0.00    +0.000 A 
ATOM      5  C   UNL     1      -1.774  13.103  20.448  0.00  0.00    +0.000 A 
ATOM      6  C   UNL     1      -3.105  13.446  20.688  0.00  0.00    +0.000 A 
ATOM      7  O   UNL     1      -1.281  13.479  19.228  0.00  0.00    +0.000 OA
ATOM      8  C   UNL     1       0.133  13.348  19.058  0.00  0.00    +0.000 C 
ATOM      9  C   UNL     1       0.706  12.055  19.648  0.00  0.00    +0.000 C 
ATOM     10  C   UNL     1       0.402  12.068  21.149  0.00  0.00    +0.000 C 
ENDROOT
BRANCH   1  17
ATOM     11  C   UNL     1      -6.310  12.896  21.497  0.00  0.00    +0.000 A 
ATOM     12  C   UNL     1      -7.591  13.438  21.738  0.00  0.00    +0.000 A 
ATOM     13  C   UNL     1      -7.768  14.489  22.635  0.00  0.00    +0.000 A 
ATOM     14  C   UNL     1      -6.666  15.000  23.293  0.00  0.00    +0.000 A 
ATOM     15  F   UNL     1      -6.821  16.007  24.161  0.00  0.00    +0.000 F 
ATOM     16  C   UNL     1      -5.391  14.498  23.050  0.00  0.00    +0.000 A 
ATOM     17  C   UNL     1      -5.167  13.443  22.135  0.00  0.00    +0.000 A 
BRANCH  11  19
ATOM     18  O   UNL     1      -6.760  10.669  20.803  0.00  0.00    +0.000 OA
ATOM     19  C   UNL     1      -6.300  11.765  20.525  0.00  0.00    +0.000 C 
BRANCH  19  20
ATOM     20  O   UNL     1      -5.660  12.011  19.365  0.00  0.00    +0.000 OA
ATOM     21  H   UNL     1      -6.143  12.566  18.726  0.00  0.00    +0.000 HD
ENDBRANCH  19  20
ENDBRANCH  11  19
ENDBRANCH   1  17
BRANCH  10  22
ATOM     22  O   UNL     1       1.203  13.080  21.772  0.00  0.00    +0.000 OA
ATOM     23  H   UNL     1       2.047  12.677  22.043  0.00  0.00    +0.000 HD
ENDBRANCH  10  22
BRANCH   9  24
ATOM     24  C   UNL     1       0.117  10.828  18.917  0.00  0.00    +0.000 C 
BRANCH  24  25
ATOM     25  C   UNL     1       0.956   9.577  19.004  0.00  0.00    +0.000 A 
ATOM     26  C   UNL     1       1.028   8.854  20.199  0.00  0.00    +0.000 A 
ATOM     27  C   UNL     1       1.769   7.668  20.272  0.00  0.00    +0.000 A 
ATOM     28  C   UNL     1       2.446   7.153  19.153  0.00  0.00    +0.000 A 
ATOM     29  C   UNL     1       2.367   7.901  17.963  0.00  0.00    +0.000 A 
ATOM     30  C   UNL     1       1.643   9.096  17.890  0.00  0.00    +0.000 A 
BRANCH  28  31
ATOM     31  C   UNL     1       3.203   5.875  19.216  0.00  0.00    +0.000 A 
ATOM     32  C   UNL     1       4.475   5.743  18.631  0.00  0.00    +0.000 A 
ATOM     33  C   UNL     1       5.183   4.538  18.686  0.00  0.00    +0.000 A 
ATOM     34  C   UNL     1       4.642   3.438  19.341  0.00  0.00    +0.000 A 
ATOM     35  C   UNL     1       3.393   3.546  19.943  0.00  0.00    +0.000 A 
ATOM     36  C   UNL     1       2.680   4.746  19.873  0.00  0.00    +0.000 A 
ENDBRANCH  28  31
ENDBRANCH  24  25
ENDBRANCH   9  24
TORSDOF 7
ENDMDL
MODEL 4
REMARK VINA RESULT:      -8.2      2.433      3.635
REMARK  Name = 
REMARK  7 active torsions:
REMARK  status: ('A' for Active; 'I' for Inactive)
REMARK    1  A    between atoms: C_2  and  O_3
REMARK    2  A    between atoms: C_2  and  C_4
REMARK    3  A    between atoms: C_10  and  C_11
REMARK    4  A    between atoms: C_19  and  C_20
REMARK    5  A    between atoms: C_20  and  C_21
REMARK    6  A    between atoms: C_24  and  C_25
REMARK    7  A    between atoms: C_33  and  O_34
REMARK                            x       y       z     vdW  Elec       q    Type
REMARK                         _______ _______ _______ _____ _____    ______ ____
ROOT
ATOM      1  C   UNL     1      -4.035  12.674  20.251  0.00  0.00    +0.000 A 
ATOM      2  C   UNL     1      -3.728  12.689  21.626  0.00  0.00    +0.000 A 
ATOM      3  C   UNL     1      -2.428  12.450  22.087  0.00  0.00    +0.000 A 
ATOM      4  C   UNL     1      -1.407  12.153  21.182  0.00  0.00    +0.000 A 
ATOM      5  C   UNL     1      -1.698  12.108  19.820  0.00  0.00    +0.000 A 
ATOM      6  C   UNL     1      -2.987  12.384  19.362  0.00  0.00    +0.000 A 
ATOM      7  O   UNL     1      -0.795  11.753  18.856  0.00  0.00    +0.000 OA
ATOM      8  C   UNL     1       0.573  11.698  19.270  0.00  0.00    +0.000 C 
ATOM      9  C   UNL     1       0.773  11.061  20.649  0.00  0.00    +0.000 C 
ATOM     10  C   UNL     1      -0.002  11.914  21.659  0.00  0.00    +0.000 C 
ENDROOT
BRANCH   1  17
ATOM     11  C   UNL     1      -6.081  12.317  18.730  0.00  0.00    +0.000 A 
ATOM     12  C   UNL     1      -7.320  12.797  18.252  0.00  0.00    +0.000 A 
ATOM     13  C   UNL     1      -7.916  13.925  18.810  0.00  0.00    +0.000 A 
ATOM     14  C   UNL     1      -7.276  14.577  19.846  0.00  0.00    +0.000 A 
ATOM     15  F   UNL     1      -7.838  15.660  20.396  0.00  0.00    +0.000 F 
ATOM     16  C   UNL     1      -6.041  14.137  20.313  0.00  0.00    +0.000 A 
ATOM     17  C   UNL     1      -5.395  13.006  19.763  0.00  0.00    +0.000 A 
BRANCH  11  19
ATOM     18  O   UNL     1      -5.574  10.002  18.587  0.00  0.00    +0.000 OA
ATOM     19  C   UNL     1      -5.594  11.091  18.036  0.00  0.00    +0.000 C 
BRANCH  19  20
ATOM     20  O   UNL     1      -5.087  11.291  16.804  0.00  0.00    +0.000 OA
ATOM     21  H   UNL     1      -5.741  11.355  16.083  0.00  0.00    +0.000 HD
ENDBRANCH  19  20
ENDBRANCH  11  19
ENDBRANCH   1  17
BRANCH  10  22
ATOM     22  O   UNL     1       0.661  13.177  21.797  0.00  0.00    +0.000 OA
ATOM     23  H   UNL     1       0.209  13.823  21.225  0.00  0.00    +0.000 HD
ENDBRANCH  10  22
BRANCH   9  24
ATOM     24  C   UNL     1       0.321   9.584  20.625  0.00  0.00    +0.000 C 
BRANCH  24  25
ATOM     25  C   UNL     1       1.191   8.669  19.799  0.00  0.00    +0.000 A 
ATOM     26  C   UNL     1       1.547   9.017  18.492  0.00  0.00    +0.000 A 
ATOM     27  C   UNL     1       2.390   8.192  17.739  0.00  0.00    +0.000 A 
ATOM     28  C   UNL     1       2.922   7.003  18.267  0.00  0.00    +0.000 A 
ATOM     29  C   UNL     1       2.543   6.668  19.581  0.00  0.00    +0.000 A 
ATOM     30  C   UNL     1       1.687   7.480  20.332  0.00  0.00    +0.000 A 
BRANCH  28  31
ATOM     31  C   UNL     1       3.847   6.144  17.483  0.00  0.00    +0.000 A 
ATOM     32  C   UNL     1       3.750   4.741  17.511  0.00  0.00    +0.000 A 
ATOM     33  C   UNL     1       4.626   3.933  16.778  0.00  0.00    +0.000 A 
ATOM     34  C   UNL     1       5.612   4.511  15.986  0.00  0.00    +0.000 A 
ATOM     35  C   UNL     1       5.719   5.896  15.926  0.00  0.00    +0.000 A 
ATOM     36  C   UNL     1       4.853   6.700  16.673  0.00  0.00    +0.000 A 
ENDBRANCH  28  31
ENDBRANCH  24  25
ENDBRANCH   9  24
TORSDOF 7
ENDMDL
MODEL 5
REMARK VINA RESULT:      -8.1      1.359      1.592
REMARK  Name = 
REMARK  7 active torsions:
REMARK  status: ('A' for Active; 'I' for Inactive)
REMARK    1  A    between atoms: C_2  and  O_3
REMARK    2  A    between atoms: C_2  and  C_4
REMARK    3  A    between atoms: C_10  and  C_11
REMARK    4  A    between atoms: C_19  and  C_20
REMARK    5  A    between atoms: C_20  and  C_21
REMARK    6  A    between atoms: C_24  and  C_25
REMARK    7  A    between atoms: C_33  and  O_34
REMARK                            x       y       z     vdW  Elec       q    Type
REMARK                         _______ _______ _______ _____ _____    ______ ____
ROOT
ATOM      1  C   UNL     1      -3.472  13.276  22.460  0.00  0.00    +0.000 A 
ATOM      2  C   UNL     1      -2.496  13.022  23.443  0.00  0.00    +0.000 A 
ATOM      3  C   UNL     1      -1.175  12.712  23.097  0.00  0.00    +0.000 A 
ATOM      4  C   UNL     1      -0.807  12.614  21.754  0.00  0.00    +0.000 A 
ATOM      5  C   UNL     1      -1.766  12.837  20.768  0.00  0.00    +0.000 A 
ATOM      6  C   UNL     1      -3.073  13.181  21.117  0.00  0.00    +0.000 A 
ATOM      7  O   UNL     1      -1.534  12.691  19.428  0.00  0.00    +0.000 OA
ATOM      8  C   UNL     1      -0.163  12.573  19.040  0.00  0.00    +0.000 C 
ATOM      9  C   UNL     1       0.664  11.678  19.969  0.00  0.00    +0.000 C 
ATOM     10  C   UNL     1       0.612  12.304  21.367  0.00  0.00    +0.000 C 
ENDROOT
BRANCH   1  17
ATOM     11  C   UNL     1      -5.293  15.018  22.992  0.00  0.00    +0.000 A 
ATOM     12  C   UNL     1      -6.592  15.288  23.474  0.00  0.00    +0.000 A 
ATOM     13  C   UNL     1      -7.481  14.254  23.759  0.00  0.00    +0.000 A 
ATOM     14  C   UNL     1      -7.073  12.948  23.564  0.00  0.00    +0.000 A 
ATOM     15  F   UNL     1      -7.917  11.944  23.830  0.00  0.00    +0.000 F 
ATOM     16  C   UNL     1      -5.787  12.660  23.116  0.00  0.00    +0.000 A 
ATOM     17  C   UNL     1      -4.851  13.680  22.831  0.00  0.00    +0.000 A 
BRANCH  11  19
ATOM     18  O   UNL     1      -3.363  16.388  23.192  0.00  0.00    +0.000 OA
ATOM     19  C   UNL     1      -4.479  16.237  22.719  0.00  0.00    +0.000 C 
BRANCH  19  20
ATOM     20  O   UNL     1      -5.100  17.195  22.004  0.00  0.00    +0.000 OA
ATOM     21  H   UNL     1      -5.995  16.971  21.687  0.00  0.00    +0.000 HD
ENDBRANCH  19  20
ENDBRANCH  11  19
ENDBRANCH   1  17
BRANCH  10  22
ATOM     22  O   UNL     1       1.365  13.523  21.353  0.00  0.00    +0.000 OA
ATOM     23  H   UNL     1       0.913  14.167  21.925  0.00  0.00    +0.000 HD
ENDBRANCH  10  22
BRANCH   9  24
ATOM     24  C   UNL     1       0.129  10.230  19.929  0.00  0.00    +0.000 C 
BRANCH  24  25
ATOM     25  C   UNL     1       1.091   9.215  19.362  0.00  0.00    +0.000 A 
ATOM     26  C   UNL     1       1.479   8.104  20.118  0.00  0.00    +0.000 A 
ATOM     27  C   UNL     1       2.336   7.138  19.578  0.00  0.00    +0.000 A 
ATOM     28  C   UNL     1       2.819   7.235  18.262  0.00  0.00    +0.000 A 
ATOM     29  C   UNL     1       2.423   8.364  17.522  0.00  0.00    +0.000 A 
ATOM     30  C   UNL     1       1.581   9.342  18.062  0.00  0.00    +0.000 A 
BRANCH  28  31
ATOM     31  C   UNL     1       3.699   6.191  17.673  0.00  0.00    +0.000 A 
ATOM     32  C   UNL     1       4.741   6.520  16.788  0.00  0.00    +0.000 A 
ATOM     33  C   UNL     1       5.564   5.537  16.230  0.00  0.00    +0.000 A 
ATOM     34  C   UNL     1       5.374   4.199  16.555  0.00  0.00    +0.000 A 
ATOM     35  C   UNL     1       4.361   3.846  17.441  0.00  0.00    +0.000 A 
ATOM     36  C   UNL     1       3.530   4.830  17.985  0.00  0.00    +0.000 A 
ENDBRANCH  28  31
ENDBRANCH  24  25
ENDBRANCH   9  24
TORSDOF 7
ENDMDL
MODEL 6
REMARK VINA RESULT:      -8.1      1.610      2.014
REMARK  Name = 
REMARK  7 active torsions:
REMARK  status: ('A' for Active; 'I' for Inactive)
REMARK    1  A    between atoms: C_2  and  O_3
REMARK    2  A    between atoms: C_2  and  C_4
REMARK    3  A    between atoms: C_10  and  C_11
REMARK    4  A    between atoms: C_19  and  C_20
REMARK    5  A    between atoms: C_20  and  C_21
REMARK    6  A    between atoms: C_24  and  C_25
REMARK    7  A    between atoms: C_33  and  O_34
REMARK                            x       y       z     vdW  Elec       q    Type
REMARK                         _______ _______ _______ _____ _____    ______ ____
ROOT
ATOM      1  C   UNL     1      -3.452  13.399  21.675  0.00  0.00    +0.000 A 
ATOM      2  C   UNL     1      -2.324  13.836  22.396  0.00  0.00    +0.000 A 
ATOM      3  C   UNL     1      -1.026  13.652  21.904  0.00  0.00    +0.000 A 
ATOM      4  C   UNL     1      -0.824  12.991  20.690  0.00  0.00    +0.000 A 
ATOM      5  C   UNL     1      -1.927  12.529  19.976  0.00  0.00    +0.000 A 
ATOM      6  C   UNL     1      -3.220  12.747  20.453  0.00  0.00    +0.000 A 
ATOM      7  O   UNL     1      -1.841  11.804  18.820  0.00  0.00    +0.000 OA
ATOM      8  C   UNL     1      -0.554  11.773  18.196  0.00  0.00    +0.000 C 
ATOM      9  C   UNL     1       0.605  11.607  19.185  0.00  0.00    +0.000 C 
ATOM     10  C   UNL     1       0.562  12.804  20.139  0.00  0.00    +0.000 C 
ENDROOT
BRANCH   1  17
ATOM     11  C   UNL     1      -5.323  13.311  23.442  0.00  0.00    +0.000 A 
ATOM     12  C   UNL     1      -6.687  13.495  23.756  0.00  0.00    +0.000 A 
ATOM     13  C   UNL     1      -7.564  14.066  22.837  0.00  0.00    +0.000 A 
ATOM     14  C   UNL     1      -7.081  14.454  21.603  0.00  0.00    +0.000 A 
ATOM     15  F   UNL     1      -7.911  15.008  20.711  0.00  0.00    +0.000 F 
ATOM     16  C   UNL     1      -5.746  14.257  21.263  0.00  0.00    +0.000 A 
ATOM     17  C   UNL     1      -4.827  13.666  22.161  0.00  0.00    +0.000 A 
BRANCH  11  19
ATOM     18  O   UNL     1      -4.440  11.496  24.694  0.00  0.00    +0.000 OA
ATOM     19  C   UNL     1      -4.521  12.705  24.542  0.00  0.00    +0.000 C 
BRANCH  19  20
ATOM     20  O   UNL     1      -3.980  13.583  25.410  0.00  0.00    +0.000 OA
ATOM     21  H   UNL     1      -3.674  14.424  25.024  0.00  0.00    +0.000 HD
ENDBRANCH  19  20
ENDBRANCH  11  19
ENDBRANCH   1  17
BRANCH  10  22
ATOM     22  O   UNL     1       0.934  13.983  19.414  0.00  0.00    +0.000 OA
ATOM     23  H   UNL     1       0.180  14.251  18.860  0.00  0.00    +0.000 HD
ENDBRANCH  10  22
BRANCH   9  24
ATOM     24  C   UNL     1       0.497  10.246  19.908  0.00  0.00    +0.000 C 
BRANCH  24  25
ATOM     25  C   UNL     1       1.356   9.150  19.327  0.00  0.00    +0.000 A 
ATOM     26  C   UNL     1       1.606   7.983  20.056  0.00  0.00    +0.000 A 
ATOM     27  C   UNL     1       2.365   6.945  19.502  0.00  0.00    +0.000 A 
ATOM     28  C   UNL     1       2.884   7.027  18.199  0.00  0.00    +0.000 A 
ATOM     29  C   UNL     1       2.628   8.213  17.486  0.00  0.00    +0.000 A 
ATOM     30  C   UNL     1       1.885   9.261  18.041  0.00  0.00    +0.000 A 
BRANCH  28  31
ATOM     31  C   UNL     1       3.659   5.911  17.593  0.00  0.00    +0.000 A 
ATOM     32  C   UNL     1       3.376   4.568  17.898  0.00  0.00    +0.000 A 
ATOM     33  C   UNL     1       4.110   3.520  17.333  0.00  0.00    +0.000 A 
ATOM     34  C   UNL     1       5.137   3.791  16.436  0.00  0.00    +0.000 A 
ATOM     35  C   UNL     1       5.428   5.109  16.104  0.00  0.00    +0.000 A 
ATOM     36  C   UNL     1       4.703   6.155  16.682  0.00  0.00    +0.000 A 
ENDBRANCH  28  31
ENDBRANCH  24  25
ENDBRANCH   9  24
TORSDOF 7
ENDMDL
MODEL 7
REMARK VINA RESULT:      -8.1      3.389     10.621
REMARK  Name = 
REMARK  7 active torsions:
REMARK  status: ('A' for Active; 'I' for Inactive)
REMARK    1  A    between atoms: C_2  and  O_3
REMARK    2  A    between atoms: C_2  and  C_4
REMARK    3  A    between atoms: C_10  and  C_11
REMARK    4  A    between atoms: C_19  and  C_20
REMARK    5  A    between atoms: C_20  and  C_21
REMARK    6  A    between atoms: C_24  and  C_25
REMARK    7  A    between atoms: C_33  and  O_34
REMARK                            x       y       z     vdW  Elec       q    Type
REMARK                         _______ _______ _______ _____ _____    ______ ____
ROOT
ATOM      1  C   UNL     1       2.202   6.618  19.512  0.00  0.00    +0.000 A 
ATOM      2  C   UNL     1       2.276   6.986  18.155  0.00  0.00    +0.000 A 
ATOM      3  C   UNL     1       2.001   8.294  17.737  0.00  0.00    +0.000 A 
ATOM      4  C   UNL     1       1.610   9.259  18.667  0.00  0.00    +0.000 A 
ATOM      5  C   UNL     1       1.507   8.905  20.011  0.00  0.00    +0.000 A 
ATOM      6  C   UNL     1       1.817   7.611  20.427  0.00  0.00    +0.000 A 
ATOM      7  O   UNL     1       1.059   9.748  20.991  0.00  0.00    +0.000 OA
ATOM      8  C   UNL     1       0.962  11.129  20.633  0.00  0.00    +0.000 C 
ATOM      9  C   UNL     1       0.391  11.362  19.230  0.00  0.00    +0.000 C 
ATOM     10  C   UNL     1       1.332  10.672  18.237  0.00  0.00    +0.000 C 
ENDROOT
BRANCH   1  17
ATOM     11  C   UNL     1       3.768   4.576  19.615  0.00  0.00    +0.000 A 
ATOM     12  C   UNL     1       3.960   3.228  19.989  0.00  0.00    +0.000 A 
ATOM     13  C   UNL     1       3.004   2.548  20.739  0.00  0.00    +0.000 A 
ATOM     14  C   UNL     1       1.853   3.213  21.117  0.00  0.00    +0.000 A 
ATOM     15  F   UNL     1       0.927   2.575  21.842  0.00  0.00    +0.000 F 
ATOM     16  C   UNL     1       1.632   4.533  20.735  0.00  0.00    +0.000 A 
ATOM     17  C   UNL     1       2.571   5.253  19.960  0.00  0.00    +0.000 A 
BRANCH  11  19
ATOM     18  O   UNL     1       4.932   5.102  17.613  0.00  0.00    +0.000 OA
ATOM     19  C   UNL     1       4.895   5.157  18.831  0.00  0.00    +0.000 C 
BRANCH  19  20
ATOM     20  O   UNL     1       5.910   5.652  19.566  0.00  0.00    +0.000 OA
ATOM     21  H   UNL     1       6.675   5.059  19.683  0.00  0.00    +0.000 HD
ENDBRANCH  19  20
ENDBRANCH  11  19
ENDBRANCH   1  17
BRANCH  10  22
ATOM     22  O   UNL     1       2.568  11.396  18.197  0.00  0.00    +0.000 OA
ATOM     23  H   UNL     1       2.438  12.247  18.650  0.00  0.00    +0.000 HD
ENDBRANCH  10  22
BRANCH   9  24
ATOM     24  C   UNL     1      -1.062  10.845  19.154  0.00  0.00    +0.000 C 
BRANCH  24  25
ATOM     25  C   UNL     1      -2.065  11.656  19.937  0.00  0.00    +0.000 A 
ATOM     26  C   UNL     1      -3.255  12.083  19.337  0.00  0.00    +0.000 A 
ATOM     27  C   UNL     1      -4.207  12.798  20.073  0.00  0.00    +0.000 A 
ATOM     28  C   UNL     1      -4.016  13.095  21.434  0.00  0.00    +0.000 A 
ATOM     29  C   UNL     1      -2.809  12.663  22.014  0.00  0.00    +0.000 A 
ATOM     30  C   UNL     1      -1.845  11.964  21.279  0.00  0.00    +0.000 A 
BRANCH  28  31
ATOM     31  C   UNL     1      -5.042  13.821  22.228  0.00  0.00    +0.000 A 
ATOM     32  C   UNL     1      -5.196  15.215  22.133  0.00  0.00    +0.000 A 
ATOM     33  C   UNL     1      -6.157  15.898  22.885  0.00  0.00    +0.000 A 
ATOM     34  C   UNL     1      -7.000  15.198  23.741  0.00  0.00    +0.000 A 
ATOM     35  C   UNL     1      -6.882  13.817  23.842  0.00  0.00    +0.000 A 
ATOM     36  C   UNL     1      -5.910  13.139  23.101  0.00  0.00    +0.000 A 
ENDBRANCH  28  31
ENDBRANCH  24  25
ENDBRANCH   9  24
TORSDOF 7
ENDMDL
MODEL 8
REMARK VINA RESULT:      -8.1      1.507      1.982
REMARK  Name = 
REMARK  7 active torsions:
REMARK  status: ('A' for Active; 'I' for Inactive)
REMARK    1  A    between atoms: C_2  and  O_3
REMARK    2  A    between atoms: C_2  and  C_4
REMARK    3  A    between atoms: C_10  and  C_11
REMARK    4  A    between atoms: C_19  and  C_20
REMARK    5  A    between atoms: C_20  and  C_21
REMARK    6  A    between atoms: C_24  and  C_25
REMARK    7  A    between atoms: C_33  and  O_34
REMARK                            x       y       z     vdW  Elec       q    Type
REMARK                         _______ _______ _______ _____ _____    ______ ____
ROOT
ATOM      1  C   UNL     1      -3.457  13.593  22.373  0.00  0.00    +0.000 A 
ATOM      2  C   UNL     1      -2.393  13.638  23.295  0.00  0.00    +0.000 A 
ATOM      3  C   UNL     1      -1.078  13.357  22.906  0.00  0.00    +0.000 A 
ATOM      4  C   UNL     1      -0.800  12.989  21.588  0.00  0.00    +0.000 A 
ATOM      5  C   UNL     1      -1.844  12.914  20.669  0.00  0.00    +0.000 A 
ATOM      6  C   UNL     1      -3.148  13.230  21.052  0.00  0.00    +0.000 A 
ATOM      7  O   UNL     1      -1.696  12.490  19.377  0.00  0.00    +0.000 OA
ATOM      8  C   UNL     1      -0.351  12.390  18.901  0.00  0.00    +0.000 C 
ATOM      9  C   UNL     1       0.619  11.789  19.923  0.00  0.00    +0.000 C 
ATOM     10  C   UNL     1       0.610  12.706  21.151  0.00  0.00    +0.000 C 
ENDROOT
BRANCH   1  17
ATOM     11  C   UNL     1      -5.332  15.293  22.846  0.00  0.00    +0.000 A 
ATOM     12  C   UNL     1      -6.622  15.545  23.361  0.00  0.00    +0.000 A 
ATOM     13  C   UNL     1      -7.451  14.501  23.764  0.00  0.00    +0.000 A 
ATOM     14  C   UNL     1      -6.993  13.202  23.653  0.00  0.00    +0.000 A 
ATOM     15  F   UNL     1      -7.778  12.188  24.031  0.00  0.00    +0.000 F 
ATOM     16  C   UNL     1      -5.714  12.934  23.173  0.00  0.00    +0.000 A 
ATOM     17  C   UNL     1      -4.836  13.967  22.770  0.00  0.00    +0.000 A 
BRANCH  11  19
ATOM     18  O   UNL     1      -4.642  16.970  21.312  0.00  0.00    +0.000 OA
ATOM     19  C   UNL     1      -4.585  16.520  22.445  0.00  0.00    +0.000 C 
BRANCH  19  20
ATOM     20  O   UNL     1      -3.770  17.031  23.389  0.00  0.00    +0.000 OA
ATOM     21  H   UNL     1      -3.661  16.487  24.191  0.00  0.00    +0.000 HD
ENDBRANCH  19  20
ENDBRANCH  11  19
ENDBRANCH   1  17
BRANCH  10  22
ATOM     22  O   UNL     1       1.245  13.943  20.805  0.00  0.00    +0.000 OA
ATOM     23  H   UNL     1       0.557  14.626  20.723  0.00  0.00    +0.000 HD
ENDBRANCH  10  22
BRANCH   9  24
ATOM     24  C   UNL     1       0.218  10.333  20.247  0.00  0.00    +0.000 C 
BRANCH  24  25
ATOM     25  C   UNL     1       1.049   9.279  19.557  0.00  0.00    +0.000 A 
ATOM     26  C   UNL     1       1.361   9.398  18.199  0.00  0.00    +0.000 A 
ATOM     27  C   UNL     1       2.168   8.446  17.566  0.00  0.00    +0.000 A 
ATOM     28  C   UNL     1       2.707   7.354  18.268  0.00  0.00    +0.000 A 
ATOM     29  C   UNL     1       2.373   7.248  19.631  0.00  0.00    +0.000 A 
ATOM     30  C   UNL     1       1.552   8.188  20.264  0.00  0.00    +0.000 A 
BRANCH  28  31
ATOM     31  C   UNL     1       3.595   6.360  17.607  0.00  0.00    +0.000 A 
ATOM     32  C   UNL     1       4.617   6.758  16.727  0.00  0.00    +0.000 A 
ATOM     33  C   UNL     1       5.448   5.822  16.102  0.00  0.00    +0.000 A 
ATOM     34  C   UNL     1       5.286   4.465  16.355  0.00  0.00    +0.000 A 
ATOM     35  C   UNL     1       4.294   4.045  17.234  0.00  0.00    +0.000 A 
ATOM     36  C   UNL     1       3.455   4.981  17.845  0.00  0.00    +0.000 A 
ENDBRANCH  28  31
ENDBRANCH  24  25
ENDBRANCH   9  24
TORSDOF 7
ENDMDL
MODEL 9
REMARK VINA RESULT:      -8.1      1.534      2.169
REMARK  Name = 
REMARK  7 active torsions:
REMARK  status: ('A' for Active; 'I' for Inactive)
REMARK    1  A    between atoms: C_2  and  O_3
REMARK    2  A    between atoms: C_2  and  C_4
REMARK    3  A    between atoms: C_10  and  C_11
REMARK    4  A    between atoms: C_19  and  C_20
REMARK    5  A    between atoms: C_20  and  C_21
REMARK    6  A    between atoms: C_24  and  C_25
REMARK    7  A    between atoms: C_33  and  O_34
REMARK                            x       y       z     vdW  Elec       q    Type
REMARK                         _______ _______ _______ _____ _____    ______ ____
ROOT
ATOM      1  C   UNL     1      -3.157  12.918  20.640  0.00  0.00    +0.000 A 
ATOM      2  C   UNL     1      -2.088  13.768  20.984  0.00  0.00    +0.000 A 
ATOM      3  C   UNL     1      -0.795  13.549  20.495  0.00  0.00    +0.000 A 
ATOM      4  C   UNL     1      -0.533  12.449  19.675  0.00  0.00    +0.000 A 
ATOM      5  C   UNL     1      -1.574  11.583  19.346  0.00  0.00    +0.000 A 
ATOM      6  C   UNL     1      -2.868  11.826  19.806  0.00  0.00    +0.000 A 
ATOM      7  O   UNL     1      -1.413  10.437  18.617  0.00  0.00    +0.000 OA
ATOM      8  C   UNL     1      -0.159  10.293  17.945  0.00  0.00    +0.000 C 
ATOM      9  C   UNL     1       1.044  10.731  18.787  0.00  0.00    +0.000 C 
ATOM     10  C   UNL     1       0.846  12.212  19.125  0.00  0.00    +0.000 C 
ENDROOT
BRANCH   1  17
ATOM     11  C   UNL     1      -4.975  13.175  22.446  0.00  0.00    +0.000 A 
ATOM     12  C   UNL     1      -6.343  13.329  22.760  0.00  0.00    +0.000 A 
ATOM     13  C   UNL     1      -7.287  13.549  21.760  0.00  0.00    +0.000 A 
ATOM     14  C   UNL     1      -6.868  13.616  20.446  0.00  0.00    +0.000 A 
ATOM     15  F   UNL     1      -7.762  13.831  19.474  0.00  0.00    +0.000 F 
ATOM     16  C   UNL     1      -5.528  13.440  20.113  0.00  0.00    +0.000 A 
ATOM     17  C   UNL     1      -4.541  13.198  21.097  0.00  0.00    +0.000 A 
BRANCH  11  19
ATOM     18  O   UNL     1      -3.856  11.853  24.071  0.00  0.00    +0.000 OA
ATOM     19  C   UNL     1      -4.098  12.966  23.634  0.00  0.00    +0.000 C 
BRANCH  19  20
ATOM     20  O   UNL     1      -3.680  14.092  24.245  0.00  0.00    +0.000 OA
ATOM     21  H   UNL     1      -2.933  13.985  24.862  0.00  0.00    +0.000 HD
ENDBRANCH  19  20
ENDBRANCH  11  19
ENDBRANCH   1  17
BRANCH  10  22
ATOM     22  O   UNL     1       1.005  12.982  17.927  0.00  0.00    +0.000 OA
ATOM     23  H   UNL     1       0.161  12.967  17.441  0.00  0.00    +0.000 HD
ENDBRANCH  10  22
BRANCH   9  24
ATOM     24  C   UNL     1       1.175   9.832  20.037  0.00  0.00    +0.000 C 
BRANCH  24  25
ATOM     25  C   UNL     1       1.538   8.396  19.749  0.00  0.00    +0.000 A 
ATOM     26  C   UNL     1       2.122   8.043  18.528  0.00  0.00    +0.000 A 
ATOM     27  C   UNL     1       2.501   6.719  18.275  0.00  0.00    +0.000 A 
ATOM     28  C   UNL     1       2.328   5.708  19.236  0.00  0.00    +0.000 A 
ATOM     29  C   UNL     1       1.730   6.083  20.453  0.00  0.00    +0.000 A 
ATOM     30  C   UNL     1       1.333   7.401  20.704  0.00  0.00    +0.000 A 
BRANCH  28  31
ATOM     31  C   UNL     1       2.763   4.308  18.985  0.00  0.00    +0.000 A 
ATOM     32  C   UNL     1       3.757   3.695  19.769  0.00  0.00    +0.000 A 
ATOM     33  C   UNL     1       4.170   2.380  19.528  0.00  0.00    +0.000 A 
ATOM     34  C   UNL     1       3.587   1.641  18.504  0.00  0.00    +0.000 A 
ATOM     35  C   UNL     1       2.590   2.217  17.725  0.00  0.00    +0.000 A 
ATOM     36  C   UNL     1       2.191   3.536  17.958  0.00  0.00    +0.000 A 
ENDBRANCH  28  31
ENDBRANCH  24  25
ENDBRANCH   9  24
TORSDOF 7
ENDMDL
