MODEL 1
REMARK VINA RESULT:      -7.6      0.000      0.000
REMARK  Name = 
REMARK  9 active torsions:
REMARK  status: ('A' for Active; 'I' for Inactive)
REMARK    1  A    between atoms: C_2  and  O_3
REMARK    2  A    between atoms: C_2  and  C_4
REMARK    3  A    between atoms: C_4  and  C_5
REMARK    4  A    between atoms: C_7  and  N_8
REMARK    5  A    between atoms: N_8  and  C_9
REMARK    6  A    between atoms: C_9  and  C_10
REMARK    7  A    between atoms: C_12  and  O_13
REMARK    8  A    between atoms: C_16  and  O_17
REMARK    9  A    between atoms: C_20  and  O_21
REMARK                            x       y       z     vdW  Elec       q    Type
REMARK                         _______ _______ _______ _____ _____    ______ ____
ROOT
ATOM      1  C   UNL     1       6.112   4.497  16.581  0.00  0.00    +0.000 A 
ATOM      2  C   UNL     1       4.837   5.079  16.670  0.00  0.00    +0.000 A 
ATOM      3  C   UNL     1       4.466   5.908  17.742  0.00  0.00    +0.000 A 
ATOM      4  C   UNL     1       5.385   6.073  18.783  0.00  0.00    +0.000 A 
ATOM      5  C   UNL     1       6.647   5.467  18.738  0.00  0.00    +0.000 A 
ATOM      6  C   UNL     1       6.993   4.676  17.646  0.00  0.00    +0.000 A 
ENDROOT
BRANCH   3   7
ATOM      7  N   UNL     1       3.155   6.408  17.772  0.00  0.00    +0.000 N 
ATOM      8  H   UNL     1       3.121   7.350  17.390  0.00  0.00    +0.000 HD
BRANCH   7   9
ATOM      9  C   UNL     1       2.412   6.349  19.035  0.00  0.00    +0.000 C 
BRANCH   9  10
ATOM     10  C   UNL     1       2.133   4.912  19.438  0.00  0.00    +0.000 A 
ATOM     11  C   UNL     1       2.436   4.435  20.726  0.00  0.00    +0.000 A 
ATOM     12  C   UNL     1       2.148   3.119  21.078  0.00  0.00    +0.000 A 
ATOM     13  C   UNL     1       1.525   2.259  20.178  0.00  0.00    +0.000 A 
ATOM     14  C   UNL     1       1.186   2.722  18.909  0.00  0.00    +0.000 A 
ATOM     15  C   UNL     1       1.485   4.039  18.551  0.00  0.00    +0.000 A 
BRANCH  12  16
ATOM     16  O   UNL     1       2.454   2.623  22.309  0.00  0.00    +0.000 OA
ATOM     17  H   UNL     1       2.366   3.340  22.962  0.00  0.00    +0.000 HD
ENDBRANCH  12  16
BRANCH  15  18
ATOM     18  O   UNL     1       1.134   4.497  17.311  0.00  0.00    +0.000 OA
ATOM     19  H   UNL     1       1.378   5.437  17.245  0.00  0.00    +0.000 HD
ENDBRANCH  15  18
ENDBRANCH   9  10
ENDBRANCH   7   9
ENDBRANCH   3   7
BRANCH   6  20
ATOM     20  O   UNL     1       8.191   4.014  17.616  0.00  0.00    +0.000 OA
ATOM     21  H   UNL     1       8.236   3.515  16.780  0.00  0.00    +0.000 HD
ENDBRANCH   6  20
BRANCH   1  22
ATOM     22  C   UNL     1       6.489   3.702  15.357  0.00  0.00    +0.000 C 
BRANCH  22  24
ATOM     23  O   UNL     1       7.689   5.514  14.306  0.00  0.00    +0.000 OA
ATOM     24  C   UNL     1       6.953   4.543  14.193  0.00  0.00    +0.000 C 
BRANCH  24  25
ATOM     25  O   UNL     1       6.525   4.093  12.992  0.00  0.00    +0.000 OA
ATOM     26  H   UNL     1       7.150   3.447  12.601  0.00  0.00    +0.000 HD
ENDBRANCH  24  25
ENDBRANCH  22  24
ENDBRANCH   1  22
TORSDOF 9
ENDMDL
MODEL 2
REMARK VINA RESULT:      -7.4      1.563      2.664
REMARK  Name = 
REMARK  9 active torsions:
REMARK  status: ('A' for Active; 'I' for Inactive)
REMARK    1  A    between atoms: C_2  and  O_3
REMARK    2  A    between atoms: C_2  and  C_4
REMARK    3  A    between atoms: C_4  and  C_5
REMARK    4  A    between atoms: C_7  and  N_8
REMARK    5  A    between atoms: N_8  and  C_9
REMARK    6  A    between atoms: C_9  and  C_10
REMARK    7  A    between atoms: C_12  and  O_13
REMARK    8  A    between atoms: C_16  and  O_17
REMARK    9  A    between atoms: C_20  and  O_21
REMARK                            x       y       z     vdW  Elec       q    Type
REMARK                         _______ _______ _______ _____ _____    ______ ____
ROOT
ATOM      1  C   UNL     1       6.697   5.711  17.955  0.00  0.00    +0.000 A 
ATOM      2  C   UNL     1       5.398   6.242  18.014  0.00  0.00    +0.000 A 
ATOM      3  C   UNL     1       4.300   5.602  17.413  0.00  0.00    +0.000 A 
ATOM      4  C   UNL     1       4.552   4.447  16.666  0.00  0.00    +0.000 A 
ATOM      5  C   UNL     1       5.846   3.923  16.557  0.00  0.00    +0.000 A 
ATOM      6  C   UNL     1       6.906   4.565  17.189  0.00  0.00    +0.000 A 
ENDROOT
BRANCH   3   7
ATOM      7  N   UNL     1       3.048   6.230  17.481  0.00  0.00    +0.000 N 
ATOM      8  H   UNL     1       3.085   7.154  17.058  0.00  0.00    +0.000 HD
BRANCH   7   9
ATOM      9  C   UNL     1       2.368   6.298  18.779  0.00  0.00    +0.000 C 
BRANCH   9  10
ATOM     10  C   UNL     1       2.070   4.908  19.314  0.00  0.00    +0.000 A 
ATOM     11  C   UNL     1       2.403   4.538  20.629  0.00  0.00    +0.000 A 
ATOM     12  C   UNL     1       2.097   3.264  21.102  0.00  0.00    +0.000 A 
ATOM     13  C   UNL     1       1.428   2.345  20.299  0.00  0.00    +0.000 A 
ATOM     14  C   UNL     1       1.062   2.704  19.004  0.00  0.00    +0.000 A 
ATOM     15  C   UNL     1       1.377   3.978  18.525  0.00  0.00    +0.000 A 
BRANCH  12  16
ATOM     16  O   UNL     1       2.430   2.869  22.362  0.00  0.00    +0.000 OA
ATOM     17  H   UNL     1       2.301   1.906  22.428  0.00  0.00    +0.000 HD
ENDBRANCH  12  16
BRANCH  15  18
ATOM     18  O   UNL     1       0.999   4.336  17.259  0.00  0.00    +0.000 OA
ATOM     19  H   UNL     1       1.596   3.906  16.623  0.00  0.00    +0.000 HD
ENDBRANCH  15  18
ENDBRANCH   9  10
ENDBRANCH   7   9
ENDBRANCH   3   7
BRANCH   6  20
ATOM     20  O   UNL     1       8.189   4.113  17.035  0.00  0.00    +0.000 OA
ATOM     21  H   UNL     1       8.357   3.446  17.725  0.00  0.00    +0.000 HD
ENDBRANCH   6  20
BRANCH   1  22
ATOM     22  C   UNL     1       7.816   6.386  18.705  0.00  0.00    +0.000 C 
BRANCH  22  24
ATOM     23  O   UNL     1       7.821   8.185  17.095  0.00  0.00    +0.000 OA
ATOM     24  C   UNL     1       8.161   7.763  18.192  0.00  0.00    +0.000 C 
BRANCH  24  25
ATOM     25  O   UNL     1       8.840   8.522  19.082  0.00  0.00    +0.000 OA
ATOM     26  H   UNL     1       8.551   9.459  19.058  0.00  0.00    +0.000 HD
ENDBRANCH  24  25
ENDBRANCH  22  24
ENDBRANCH   1  22
TORSDOF 9
ENDMDL
MODEL 3
REMARK VINA RESULT:      -7.3      1.940      6.312
REMARK  Name = 
REMARK  9 active torsions:
REMARK  status: ('A' for Active; 'I' for Inactive)
REMARK    1  A    between atoms: C_2  and  O_3
REMARK    2  A    between atoms: C_2  and  C_4
REMARK    3  A    between atoms: C_4  and  C_5
REMARK    4  A    between atoms: C_7  and  N_8
REMARK    5  A    between atoms: N_8  and  C_9
REMARK    6  A    between atoms: C_9  and  C_10
REMARK    7  A    between atoms: C_12  and  O_13
REMARK    8  A    between atoms: C_16  and  O_17
REMARK    9  A    between atoms: C_20  and  O_21
REMARK                            x       y       z     vdW  Elec       q    Type
REMARK                         _______ _______ _______ _____ _____    ______ ____
ROOT
ATOM      1  C   UNL     1       2.661   5.063  20.086  0.00  0.00    +0.000 A 
ATOM      2  C   UNL     1       3.193   4.395  18.971  0.00  0.00    +0.000 A 
ATOM      3  C   UNL     1       3.479   5.060  17.766  0.00  0.00    +0.000 A 
ATOM      4  C   UNL     1       3.132   6.411  17.674  0.00  0.00    +0.000 A 
ATOM      5  C   UNL     1       2.560   7.089  18.758  0.00  0.00    +0.000 A 
ATOM      6  C   UNL     1       2.318   6.407  19.947  0.00  0.00    +0.000 A 
ENDROOT
BRANCH   3   7
ATOM      7  N   UNL     1       3.963   4.303  16.689  0.00  0.00    +0.000 N 
ATOM      8  H   UNL     1       3.362   3.501  16.515  0.00  0.00    +0.000 HD
BRANCH   7   9
ATOM      9  C   UNL     1       5.369   3.885  16.703  0.00  0.00    +0.000 C 
BRANCH   9  10
ATOM     10  C   UNL     1       6.244   4.934  17.368  0.00  0.00    +0.000 A 
ATOM     11  C   UNL     1       6.770   4.744  18.658  0.00  0.00    +0.000 A 
ATOM     12  C   UNL     1       7.589   5.710  19.236  0.00  0.00    +0.000 A 
ATOM     13  C   UNL     1       7.932   6.866  18.539  0.00  0.00    +0.000 A 
ATOM     14  C   UNL     1       7.447   7.057  17.247  0.00  0.00    +0.000 A 
ATOM     15  C   UNL     1       6.617   6.093  16.670  0.00  0.00    +0.000 A 
BRANCH  12  16
ATOM     16  O   UNL     1       8.092   5.565  20.493  0.00  0.00    +0.000 OA
ATOM     17  H   UNL     1       9.007   5.898  20.500  0.00  0.00    +0.000 HD
ENDBRANCH  12  16
BRANCH  15  18
ATOM     18  O   UNL     1       6.157   6.274  15.394  0.00  0.00    +0.000 OA
ATOM     19  H   UNL     1       6.902   6.547  14.831  0.00  0.00    +0.000 HD
ENDBRANCH  15  18
ENDBRANCH   9  10
ENDBRANCH   7   9
ENDBRANCH   3   7
BRANCH   6  20
ATOM     20  O   UNL     1       1.692   7.029  20.994  0.00  0.00    +0.000 OA
ATOM     21  H   UNL     1       0.842   6.577  21.145  0.00  0.00    +0.000 HD
ENDBRANCH   6  20
BRANCH   1  22
ATOM     22  C   UNL     1       2.473   4.320  21.384  0.00  0.00    +0.000 C 
BRANCH  22  24
ATOM     23  O   UNL     1       1.472   2.223  22.039  0.00  0.00    +0.000 OA
ATOM     24  C   UNL     1       1.451   3.211  21.318  0.00  0.00    +0.000 C 
BRANCH  24  25
ATOM     25  O   UNL     1       0.466   3.432  20.418  0.00  0.00    +0.000 OA
ATOM     26  H   UNL     1      -0.218   2.729  20.447  0.00  0.00    +0.000 HD
ENDBRANCH  24  25
ENDBRANCH  22  24
ENDBRANCH   1  22
TORSDOF 9
ENDMDL
MODEL 4
REMARK VINA RESULT:      -7.3      1.484      1.889
REMARK  Name = 
REMARK  9 active torsions:
REMARK  status: ('A' for Active; 'I' for Inactive)
REMARK    1  A    between atoms: C_2  and  O_3
REMARK    2  A    between atoms: C_2  and  C_4
REMARK    3  A    between atoms: C_4  and  C_5
REMARK    4  A    between atoms: C_7  and  N_8
REMARK    5  A    between atoms: N_8  and  C_9
REMARK    6  A    between atoms: C_9  and  C_10
REMARK    7  A    between atoms: C_12  and  O_13
REMARK    8  A    between atoms: C_16  and  O_17
REMARK    9  A    between atoms: C_20  and  O_21
REMARK                            x       y       z     vdW  Elec       q    Type
REMARK                         _______ _______ _______ _____ _____    ______ ____
ROOT
ATOM      1  C   UNL     1       6.332   5.316  16.520  0.00  0.00    +0.000 A 
ATOM      2  C   UNL     1       5.130   5.985  16.803  0.00  0.00    +0.000 A 
ATOM      3  C   UNL     1       4.714   6.252  18.118  0.00  0.00    +0.000 A 
ATOM      4  C   UNL     1       5.498   5.750  19.161  0.00  0.00    +0.000 A 
ATOM      5  C   UNL     1       6.679   5.042  18.904  0.00  0.00    +0.000 A 
ATOM      6  C   UNL     1       7.078   4.821  17.589  0.00  0.00    +0.000 A 
ENDROOT
BRANCH   3   7
ATOM      7  N   UNL     1       3.476   6.883  18.307  0.00  0.00    +0.000 N 
ATOM      8  H   UNL     1       3.395   7.238  19.257  0.00  0.00    +0.000 HD
BRANCH   7   9
ATOM      9  C   UNL     1       2.256   6.157  17.936  0.00  0.00    +0.000 C 
BRANCH   9  10
ATOM     10  C   UNL     1       2.019   4.978  18.863  0.00  0.00    +0.000 A 
ATOM     11  C   UNL     1       1.948   3.661  18.376  0.00  0.00    +0.000 A 
ATOM     12  C   UNL     1       1.754   2.595  19.251  0.00  0.00    +0.000 A 
ATOM     13  C   UNL     1       1.659   2.805  20.624  0.00  0.00    +0.000 A 
ATOM     14  C   UNL     1       1.759   4.099  21.128  0.00  0.00    +0.000 A 
ATOM     15  C   UNL     1       1.944   5.171  20.251  0.00  0.00    +0.000 A 
BRANCH  12  16
ATOM     16  O   UNL     1       1.655   1.312  18.806  0.00  0.00    +0.000 OA
ATOM     17  H   UNL     1       2.237   1.208  18.032  0.00  0.00    +0.000 HD
ENDBRANCH  12  16
BRANCH  15  18
ATOM     18  O   UNL     1       2.061   6.439  20.750  0.00  0.00    +0.000 OA
ATOM     19  H   UNL     1       2.987   6.724  20.662  0.00  0.00    +0.000 HD
ENDBRANCH  15  18
ENDBRANCH   9  10
ENDBRANCH   7   9
ENDBRANCH   3   7
BRANCH   6  20
ATOM     20  O   UNL     1       8.188   4.068  17.312  0.00  0.00    +0.000 OA
ATOM     21  H   UNL     1       7.892   3.248  16.877  0.00  0.00    +0.000 HD
ENDBRANCH   6  20
BRANCH   1  22
ATOM     22  C   UNL     1       6.778   5.149  15.090  0.00  0.00    +0.000 C 
BRANCH  22  24
ATOM     23  O   UNL     1       6.154   3.757  13.218  0.00  0.00    +0.000 OA
ATOM     24  C   UNL     1       6.272   3.890  14.429  0.00  0.00    +0.000 C 
BRANCH  24  25
ATOM     25  O   UNL     1       6.009   2.888  15.297  0.00  0.00    +0.000 OA
ATOM     26  H   UNL     1       6.627   2.893  16.059  0.00  0.00    +0.000 HD
ENDBRANCH  24  25
ENDBRANCH  22  24
ENDBRANCH   1  22
TORSDOF 9
ENDMDL
MODEL 5
REMARK VINA RESULT:      -7.1      2.246      6.294
REMARK  Name = 
REMARK  9 active torsions:
REMARK  status: ('A' for Active; 'I' for Inactive)
REMARK    1  A    between atoms: C_2  and  O_3
REMARK    2  A    between atoms: C_2  and  C_4
REMARK    3  A    between atoms: C_4  and  C_5
REMARK    4  A    between atoms: C_7  and  N_8
REMARK    5  A    between atoms: N_8  and  C_9
REMARK    6  A    between atoms: C_9  and  C_10
REMARK    7  A    between atoms: C_12  and  O_13
REMARK    8  A    between atoms: C_16  and  O_17
REMARK    9  A    between atoms: C_20  and  O_21
REMARK                            x       y       z     vdW  Elec       q    Type
REMARK                         _______ _______ _______ _____ _____    ______ ____
ROOT
ATOM      1  C   UNL     1       2.275   4.193  19.662  0.00  0.00    +0.000 A 
ATOM      2  C   UNL     1       3.470   4.113  18.929  0.00  0.00    +0.000 A 
ATOM      3  C   UNL     1       3.693   3.111  17.969  0.00  0.00    +0.000 A 
ATOM      4  C   UNL     1       2.713   2.125  17.821  0.00  0.00    +0.000 A 
ATOM      5  C   UNL     1       1.531   2.160  18.573  0.00  0.00    +0.000 A 
ATOM      6  C   UNL     1       1.329   3.183  19.494  0.00  0.00    +0.000 A 
ENDROOT
BRANCH   3   7
ATOM      7  N   UNL     1       4.936   3.080  17.319  0.00  0.00    +0.000 N 
ATOM      8  H   UNL     1       5.682   2.884  17.982  0.00  0.00    +0.000 HD
BRANCH   7   9
ATOM      9  C   UNL     1       5.306   4.210  16.461  0.00  0.00    +0.000 C 
BRANCH   9  10
ATOM     10  C   UNL     1       6.216   5.178  17.197  0.00  0.00    +0.000 A 
ATOM     11  C   UNL     1       6.978   4.774  18.308  0.00  0.00    +0.000 A 
ATOM     12  C   UNL     1       7.823   5.675  18.950  0.00  0.00    +0.000 A 
ATOM     13  C   UNL     1       7.958   6.981  18.489  0.00  0.00    +0.000 A 
ATOM     14  C   UNL     1       7.236   7.392  17.370  0.00  0.00    +0.000 A 
ATOM     15  C   UNL     1       6.380   6.491  16.731  0.00  0.00    +0.000 A 
BRANCH  12  16
ATOM     16  O   UNL     1       8.552   5.319  20.044  0.00  0.00    +0.000 OA
ATOM     17  H   UNL     1       9.483   5.220  19.775  0.00  0.00    +0.000 HD
ENDBRANCH  12  16
BRANCH  15  18
ATOM     18  O   UNL     1       5.687   6.890  15.621  0.00  0.00    +0.000 OA
ATOM     19  H   UNL     1       4.760   6.612  15.716  0.00  0.00    +0.000 HD
ENDBRANCH  15  18
ENDBRANCH   9  10
ENDBRANCH   7   9
ENDBRANCH   3   7
BRANCH   6  20
ATOM     20  O   UNL     1       0.217   3.196  20.291  0.00  0.00    +0.000 OA
ATOM     21  H   UNL     1      -0.167   4.091  20.257  0.00  0.00    +0.000 HD
ENDBRANCH   6  20
BRANCH   1  22
ATOM     22  C   UNL     1       2.050   5.349  20.604  0.00  0.00    +0.000 C 
BRANCH  22  24
ATOM     23  O   UNL     1       2.259   6.875  18.744  0.00  0.00    +0.000 OA
ATOM     24  C   UNL     1       2.162   6.706  19.952  0.00  0.00    +0.000 C 
BRANCH  24  25
ATOM     25  O   UNL     1       2.090   7.737  20.824  0.00  0.00    +0.000 OA
ATOM     26  H   UNL     1       2.776   8.415  20.646  0.00  0.00    +0.000 HD
ENDBRANCH  24  25
ENDBRANCH  22  24
ENDBRANCH   1  22
TORSDOF 9
ENDMDL
MODEL 6
REMARK VINA RESULT:      -7.1      2.065      2.986
REMARK  Name = 
REMARK  9 active torsions:
REMARK  status: ('A' for Active; 'I' for Inactive)
REMARK    1  A    between atoms: C_2  and  O_3
REMARK    2  A    between atoms: C_2  and  C_4
REMARK    3  A    between atoms: C_4  and  C_5
REMARK    4  A    between atoms: C_7  and  N_8
REMARK    5  A    between atoms: N_8  and  C_9
REMARK    6  A    between atoms: C_9  and  C_10
REMARK    7  A    between atoms: C_12  and  O_13
REMARK    8  A    between atoms: C_16  and  O_17
REMARK    9  A    between atoms: C_20  and  O_21
REMARK                            x       y       z     vdW  Elec       q    Type
REMARK                         _______ _______ _______ _____ _____    ______ ____
ROOT
ATOM      1  C   UNL     1       6.486   4.098  14.123  0.00  0.00    +0.000 A 
ATOM      2  C   UNL     1       5.560   3.418  14.930  0.00  0.00    +0.000 A 
ATOM      3  C   UNL     1       5.301   3.799  16.257  0.00  0.00    +0.000 A 
ATOM      4  C   UNL     1       6.067   4.839  16.794  0.00  0.00    +0.000 A 
ATOM      5  C   UNL     1       7.028   5.505  16.022  0.00  0.00    +0.000 A 
ATOM      6  C   UNL     1       7.237   5.121  14.700  0.00  0.00    +0.000 A 
ENDROOT
BRANCH   3   7
ATOM      7  N   UNL     1       4.395   3.032  17.004  0.00  0.00    +0.000 N 
ATOM      8  H   UNL     1       4.541   2.040  16.835  0.00  0.00    +0.000 HD
BRANCH   7   9
ATOM      9  C   UNL     1       2.967   3.354  16.917  0.00  0.00    +0.000 C 
BRANCH   9  10
ATOM     10  C   UNL     1       2.441   3.866  18.246  0.00  0.00    +0.000 A 
ATOM     11  C   UNL     1       2.709   5.173  18.690  0.00  0.00    +0.000 A 
ATOM     12  C   UNL     1       2.195   5.626  19.902  0.00  0.00    +0.000 A 
ATOM     13  C   UNL     1       1.379   4.811  20.682  0.00  0.00    +0.000 A 
ATOM     14  C   UNL     1       1.075   3.525  20.244  0.00  0.00    +0.000 A 
ATOM     15  C   UNL     1       1.599   3.065  19.033  0.00  0.00    +0.000 A 
BRANCH  12  16
ATOM     16  O   UNL     1       2.460   6.878  20.370  0.00  0.00    +0.000 OA
ATOM     17  H   UNL     1       1.726   7.152  20.949  0.00  0.00    +0.000 HD
ENDBRANCH  12  16
BRANCH  15  18
ATOM     18  O   UNL     1       1.284   1.808  18.594  0.00  0.00    +0.000 OA
ATOM     19  H   UNL     1       1.374   1.187  19.338  0.00  0.00    +0.000 HD
ENDBRANCH  15  18
ENDBRANCH   9  10
ENDBRANCH   7   9
ENDBRANCH   3   7
BRANCH   6  20
ATOM     20  O   UNL     1       8.222   5.707  13.951  0.00  0.00    +0.000 OA
ATOM     21  H   UNL     1       8.538   6.492  14.433  0.00  0.00    +0.000 HD
ENDBRANCH   6  20
BRANCH   1  22
ATOM     22  C   UNL     1       6.647   3.709  12.675  0.00  0.00    +0.000 C 
BRANCH  22  24
ATOM     23  O   UNL     1       4.358   3.503  11.933  0.00  0.00    +0.000 OA
ATOM     24  C   UNL     1       5.455   2.987  12.095  0.00  0.00    +0.000 C 
BRANCH  24  25
ATOM     25  O   UNL     1       5.722   1.717  11.712  0.00  0.00    +0.000 OA
ATOM     26  H   UNL     1       5.036   1.090  12.024  0.00  0.00    +0.000 HD
ENDBRANCH  24  25
ENDBRANCH  22  24
ENDBRANCH   1  22
TORSDOF 9
ENDMDL
MODEL 7
REMARK VINA RESULT:      -7.1      1.853      6.366
REMARK  Name = 
REMARK  9 active torsions:
REMARK  status: ('A' for Active; 'I' for Inactive)
REMARK    1  A    between atoms: C_2  and  O_3
REMARK    2  A    between atoms: C_2  and  C_4
REMARK    3  A    between atoms: C_4  and  C_5
REMARK    4  A    between atoms: C_7  and  N_8
REMARK    5  A    between atoms: N_8  and  C_9
REMARK    6  A    between atoms: C_9  and  C_10
REMARK    7  A    between atoms: C_12  and  O_13
REMARK    8  A    between atoms: C_16  and  O_17
REMARK    9  A    between atoms: C_20  and  O_21
REMARK                            x       y       z     vdW  Elec       q    Type
REMARK                         _______ _______ _______ _____ _____    ______ ____
ROOT
ATOM      1  C   UNL     1       2.130   3.743  19.315  0.00  0.00    +0.000 A 
ATOM      2  C   UNL     1       2.934   3.494  18.191  0.00  0.00    +0.000 A 
ATOM      3  C   UNL     1       3.588   4.524  17.495  0.00  0.00    +0.000 A 
ATOM      4  C   UNL     1       3.344   5.839  17.903  0.00  0.00    +0.000 A 
ATOM      5  C   UNL     1       2.511   6.116  18.994  0.00  0.00    +0.000 A 
ATOM      6  C   UNL     1       1.903   5.069  19.681  0.00  0.00    +0.000 A 
ENDROOT
BRANCH   3   7
ATOM      7  N   UNL     1       4.332   4.187  16.355  0.00  0.00    +0.000 N 
ATOM      8  H   UNL     1       3.849   3.478  15.807  0.00  0.00    +0.000 HD
BRANCH   7   9
ATOM      9  C   UNL     1       5.742   3.819  16.522  0.00  0.00    +0.000 C 
BRANCH   9  10
ATOM     10  C   UNL     1       6.501   4.895  17.278  0.00  0.00    +0.000 A 
ATOM     11  C   UNL     1       7.037   4.658  18.557  0.00  0.00    +0.000 A 
ATOM     12  C   UNL     1       7.749   5.654  19.220  0.00  0.00    +0.000 A 
ATOM     13  C   UNL     1       7.975   6.890  18.620  0.00  0.00    +0.000 A 
ATOM     14  C   UNL     1       7.481   7.133  17.341  0.00  0.00    +0.000 A 
ATOM     15  C   UNL     1       6.757   6.138  16.679  0.00  0.00    +0.000 A 
BRANCH  12  16
ATOM     16  O   UNL     1       8.257   5.462  20.468  0.00  0.00    +0.000 OA
ATOM     17  H   UNL     1       7.841   6.103  21.073  0.00  0.00    +0.000 HD
ENDBRANCH  12  16
BRANCH  15  18
ATOM     18  O   UNL     1       6.289   6.372  15.415  0.00  0.00    +0.000 OA
ATOM     19  H   UNL     1       5.452   6.864  15.479  0.00  0.00    +0.000 HD
ENDBRANCH  15  18
ENDBRANCH   9  10
ENDBRANCH   7   9
ENDBRANCH   3   7
BRANCH   6  20
ATOM     20  O   UNL     1       1.027   5.320  20.702  0.00  0.00    +0.000 OA
ATOM     21  H   UNL     1       1.260   4.736  21.447  0.00  0.00    +0.000 HD
ENDBRANCH   6  20
BRANCH   1  22
ATOM     22  C   UNL     1       1.538   2.590  20.084  0.00  0.00    +0.000 C 
BRANCH  22  24
ATOM     23  O   UNL     1       1.240   2.588  22.480  0.00  0.00    +0.000 OA
ATOM     24  C   UNL     1       1.995   2.506  21.520  0.00  0.00    +0.000 C 
BRANCH  24  25
ATOM     25  O   UNL     1       3.320   2.273  21.657  0.00  0.00    +0.000 OA
ATOM     26  H   UNL     1       3.531   1.317  21.591  0.00  0.00    +0.000 HD
ENDBRANCH  24  25
ENDBRANCH  22  24
ENDBRANCH   1  22
TORSDOF 9
ENDMDL
MODEL 8
REMARK VINA RESULT:      -7.0      1.900      2.076
REMARK  Name = 
REMARK  9 active torsions:
REMARK  status: ('A' for Active; 'I' for Inactive)
REMARK    1  A    between atoms: C_2  and  O_3
REMARK    2  A    between atoms: C_2  and  C_4
REMARK    3  A    between atoms: C_4  and  C_5
REMARK    4  A    between atoms: C_7  and  N_8
REMARK    5  A    between atoms: N_8  and  C_9
REMARK    6  A    between atoms: C_9  and  C_10
REMARK    7  A    between atoms: C_12  and  O_13
REMARK    8  A    between atoms: C_16  and  O_17
REMARK    9  A    between atoms: C_20  and  O_21
REMARK                            x       y       z     vdW  Elec       q    Type
REMARK                         _______ _______ _______ _____ _____    ______ ____
ROOT
ATOM      1  C   UNL     1       6.319   5.533  16.634  0.00  0.00    +0.000 A 
ATOM      2  C   UNL     1       5.748   4.494  17.388  0.00  0.00    +0.000 A 
ATOM      3  C   UNL     1       5.964   4.368  18.771  0.00  0.00    +0.000 A 
ATOM      4  C   UNL     1       6.849   5.267  19.374  0.00  0.00    +0.000 A 
ATOM      5  C   UNL     1       7.465   6.284  18.633  0.00  0.00    +0.000 A 
ATOM      6  C   UNL     1       7.205   6.400  17.271  0.00  0.00    +0.000 A 
ENDROOT
BRANCH   3   7
ATOM      7  N   UNL     1       5.393   3.273  19.434  0.00  0.00    +0.000 N 
ATOM      8  H   UNL     1       6.114   2.688  19.849  0.00  0.00    +0.000 HD
BRANCH   7   9
ATOM      9  C   UNL     1       4.426   2.441  18.710  0.00  0.00    +0.000 C 
BRANCH   9  10
ATOM     10  C   UNL     1       3.025   2.617  19.270  0.00  0.00    +0.000 A 
ATOM     11  C   UNL     1       2.774   2.569  20.653  0.00  0.00    +0.000 A 
ATOM     12  C   UNL     1       1.485   2.759  21.143  0.00  0.00    +0.000 A 
ATOM     13  C   UNL     1       0.426   3.032  20.282  0.00  0.00    +0.000 A 
ATOM     14  C   UNL     1       0.660   3.116  18.911  0.00  0.00    +0.000 A 
ATOM     15  C   UNL     1       1.952   2.916  18.417  0.00  0.00    +0.000 A 
BRANCH  12  16
ATOM     16  O   UNL     1       1.207   2.692  22.475  0.00  0.00    +0.000 OA
ATOM     17  H   UNL     1       0.281   2.409  22.583  0.00  0.00    +0.000 HD
ENDBRANCH  12  16
BRANCH  15  18
ATOM     18  O   UNL     1       2.184   3.018  17.073  0.00  0.00    +0.000 OA
ATOM     19  H   UNL     1       3.044   3.452  16.937  0.00  0.00    +0.000 HD
ENDBRANCH  15  18
ENDBRANCH   9  10
ENDBRANCH   7   9
ENDBRANCH   3   7
BRANCH   6  20
ATOM     20  O   UNL     1       7.853   7.338  16.513  0.00  0.00    +0.000 OA
ATOM     21  H   UNL     1       8.805   7.279  16.713  0.00  0.00    +0.000 HD
ENDBRANCH   6  20
BRANCH   1  22
ATOM     22  C   UNL     1       5.969   5.678  15.175  0.00  0.00    +0.000 C 
BRANCH  22  24
ATOM     23  O   UNL     1       7.889   5.374  13.744  0.00  0.00    +0.000 OA
ATOM     24  C   UNL     1       6.873   4.909  14.243  0.00  0.00    +0.000 C 
BRANCH  24  25
ATOM     25  O   UNL     1       6.490   3.628  14.047  0.00  0.00    +0.000 OA
ATOM     26  H   UNL     1       7.212   3.085  13.665  0.00  0.00    +0.000 HD
ENDBRANCH  24  25
ENDBRANCH  22  24
ENDBRANCH   1  22
TORSDOF 9
ENDMDL
MODEL 9
REMARK VINA RESULT:      -7.0      0.987      1.152
REMARK  Name = 
REMARK  9 active torsions:
REMARK  status: ('A' for Active; 'I' for Inactive)
REMARK    1  A    between atoms: C_2  and  O_3
REMARK    2  A    between atoms: C_2  and  C_4
REMARK    3  A    between atoms: C_4  and  C_5
REMARK    4  A    between atoms: C_7  and  N_8
REMARK    5  A    between atoms: N_8  and  C_9
REMARK    6  A    between atoms: C_9  and  C_10
REMARK    7  A    between atoms: C_12  and  O_13
REMARK    8  A    between atoms: C_16  and  O_17
REMARK    9  A    between atoms: C_20  and  O_21
REMARK                            x       y       z     vdW  Elec       q    Type
REMARK                         _______ _______ _______ _____ _____    ______ ____
ROOT
ATOM      1  C   UNL     1       6.246   5.286  16.545  0.00  0.00    +0.000 A 
ATOM      2  C   UNL     1       5.016   5.882  16.868  0.00  0.00    +0.000 A 
ATOM      3  C   UNL     1       4.617   6.102  18.197  0.00  0.00    +0.000 A 
ATOM      4  C   UNL     1       5.452   5.624  19.212  0.00  0.00    +0.000 A 
ATOM      5  C   UNL     1       6.663   4.987  18.914  0.00  0.00    +0.000 A 
ATOM      6  C   UNL     1       7.043   4.812  17.587  0.00  0.00    +0.000 A 
ENDROOT
BRANCH   3   7
ATOM      7  N   UNL     1       3.351   6.660  18.426  0.00  0.00    +0.000 N 
ATOM      8  H   UNL     1       3.273   6.991  19.385  0.00  0.00    +0.000 HD
BRANCH   7   9
ATOM      9  C   UNL     1       2.165   5.877  18.065  0.00  0.00    +0.000 C 
BRANCH   9  10
ATOM     10  C   UNL     1       2.131   4.559  18.818  0.00  0.00    +0.000 A 
ATOM     11  C   UNL     1       2.045   4.514  20.221  0.00  0.00    +0.000 A 
ATOM     12  C   UNL     1       1.991   3.292  20.886  0.00  0.00    +0.000 A 
ATOM     13  C   UNL     1       1.986   2.093  20.178  0.00  0.00    +0.000 A 
ATOM     14  C   UNL     1       2.037   2.117  18.787  0.00  0.00    +0.000 A 
ATOM     15  C   UNL     1       2.102   3.343  18.119  0.00  0.00    +0.000 A 
BRANCH  12  16
ATOM     16  O   UNL     1       1.935   3.217  22.244  0.00  0.00    +0.000 OA
ATOM     17  H   UNL     1       1.020   3.396  22.526  0.00  0.00    +0.000 HD
ENDBRANCH  12  16
BRANCH  15  18
ATOM     18  O   UNL     1       2.132   3.365  16.751  0.00  0.00    +0.000 OA
ATOM     19  H   UNL     1       2.134   4.292  16.455  0.00  0.00    +0.000 HD
ENDBRANCH  15  18
ENDBRANCH   9  10
ENDBRANCH   7   9
ENDBRANCH   3   7
BRANCH   6  20
ATOM     20  O   UNL     1       8.185   4.127  17.271  0.00  0.00    +0.000 OA
ATOM     21  H   UNL     1       8.629   4.602  16.546  0.00  0.00    +0.000 HD
ENDBRANCH   6  20
BRANCH   1  22
ATOM     22  C   UNL     1       6.667   5.170  15.102  0.00  0.00    +0.000 C 
BRANCH  22  24
ATOM     23  O   UNL     1       6.074   3.780  13.219  0.00  0.00    +0.000 OA
ATOM     24  C   UNL     1       6.217   3.896  14.429  0.00  0.00    +0.000 C 
BRANCH  24  25
ATOM     25  O   UNL     1       6.035   2.864  15.283  0.00  0.00    +0.000 OA
ATOM     26  H   UNL     1       6.694   2.871  16.009  0.00  0.00    +0.000 HD
ENDBRANCH  24  25
ENDBRANCH  22  24
ENDBRANCH   1  22
TORSDOF 9
ENDMDL
