MODEL 1
REMARK VINA RESULT:      -7.1      0.000      0.000
REMARK  Name = 
REMARK  7 active torsions:
REMARK  status: ('A' for Active; 'I' for Inactive)
REMARK    1  A    between atoms: C_1  and  C_2
REMARK    2  A    between atoms: C_4  and  N_5
REMARK    3  A    between atoms: N_5  and  C_6
REMARK    4  A    between atoms: C_6  and  C_7
REMARK    5  A    between atoms: C_7  and  S_8
REMARK    6  A    between atoms: S_8  and  C_9
REMARK    7  A    between atoms: N_13  and  C_14
REMARK                            x       y       z     vdW  Elec       q    Type
REMARK                         _______ _______ _______ _____ _____    ______ ____
ROOT
ATOM      1  N   UNL     1       5.873   3.567  18.881  0.00  0.00    +0.000 N 
ATOM      2  H   UNL     1       6.563   3.050  19.433  0.00  0.00    +0.000 HD
ENDROOT
BRANCH   1   6
ATOM      3  C   UNL     1       8.169   7.938  18.336  0.00  0.00    +0.000 C 
ATOM      4  C   UNL     1       7.527   6.724  17.712  0.00  0.00    +0.000 A 
ATOM      5  C   UNL     1       7.001   5.691  18.652  0.00  0.00    +0.000 A 
ATOM      6  C   UNL     1       6.420   4.602  18.123  0.00  0.00    +0.000 A 
ATOM      7  N   UNL     1       6.363   4.522  16.707  0.00  0.00    +0.000 N 
ATOM      8  N   UNL     1       5.852   3.532  15.921  0.00  0.00    +0.000 NA
ATOM      9  C   UNL     1       6.065   4.018  14.697  0.00  0.00    +0.000 A 
ATOM     10  N   UNL     1       6.684   5.226  14.631  0.00  0.00    +0.000 NA
ATOM     11  C   UNL     1       6.876   5.541  15.894  0.00  0.00    +0.000 A 
ATOM     12  N   UNL     1       7.467   6.658  16.418  0.00  0.00    +0.000 NA
ENDBRANCH   1   6
BRANCH   1  13
ATOM     13  C   UNL     1       4.474   3.445  19.282  0.00  0.00    +0.000 C 
BRANCH  13  14
ATOM     14  C   UNL     1       3.627   2.643  18.290  0.00  0.00    +0.000 C 
BRANCH  14  15
ATOM     15  S   UNL     1       2.297   3.688  17.626  0.00  0.00    +0.000 S 
BRANCH  15  16
ATOM     16  C   UNL     1       2.116   4.860  18.886  0.00  0.00    +0.000 A 
ATOM     17  N   UNL     1       1.467   4.702  20.016  0.00  0.00    +0.000 NA
ATOM     18  C   UNL     1       1.604   5.898  20.675  0.00  0.00    +0.000 A 
ATOM     19  C   UNL     1       2.336   6.792  19.929  0.00  0.00    +0.000 A 
ATOM     20  N   UNL     1       2.656   6.115  18.783  0.00  0.00    +0.000 N 
ATOM     21  C   UNL     1       3.425   6.646  17.683  0.00  0.00    +0.000 C 
ENDBRANCH  15  16
ENDBRANCH  14  15
ENDBRANCH  13  14
ENDBRANCH   1  13
TORSDOF 5
ENDMDL
MODEL 2
REMARK VINA RESULT:      -7.1      0.505      1.362
REMARK  Name = 
REMARK  7 active torsions:
REMARK  status: ('A' for Active; 'I' for Inactive)
REMARK    1  A    between atoms: C_1  and  C_2
REMARK    2  A    between atoms: C_4  and  N_5
REMARK    3  A    between atoms: N_5  and  C_6
REMARK    4  A    between atoms: C_6  and  C_7
REMARK    5  A    between atoms: C_7  and  S_8
REMARK    6  A    between atoms: S_8  and  C_9
REMARK    7  A    between atoms: N_13  and  C_14
REMARK                            x       y       z     vdW  Elec       q    Type
REMARK                         _______ _______ _______ _____ _____    ______ ____
ROOT
ATOM      1  N   UNL     1       5.859   3.539  18.841  0.00  0.00    +0.000 N 
ATOM      2  H   UNL     1       6.547   3.018  19.392  0.00  0.00    +0.000 HD
ENDROOT
BRANCH   1   6
ATOM      3  C   UNL     1       8.128   7.930  18.350  0.00  0.00    +0.000 C 
ATOM      4  C   UNL     1       7.504   6.715  17.711  0.00  0.00    +0.000 A 
ATOM      5  C   UNL     1       6.974   5.673  18.639  0.00  0.00    +0.000 A 
ATOM      6  C   UNL     1       6.408   4.582  18.095  0.00  0.00    +0.000 A 
ATOM      7  N   UNL     1       6.371   4.509  16.678  0.00  0.00    +0.000 N 
ATOM      8  N   UNL     1       5.879   3.519  15.880  0.00  0.00    +0.000 NA
ATOM      9  C   UNL     1       6.106   4.014  14.662  0.00  0.00    +0.000 A 
ATOM     10  N   UNL     1       6.716   5.226  14.611  0.00  0.00    +0.000 NA
ATOM     11  C   UNL     1       6.888   5.537  15.878  0.00  0.00    +0.000 A 
ATOM     12  N   UNL     1       7.463   6.655  16.416  0.00  0.00    +0.000 NA
ENDBRANCH   1   6
BRANCH   1  13
ATOM     13  C   UNL     1       4.458   3.411  19.232  0.00  0.00    +0.000 C 
BRANCH  13  14
ATOM     14  C   UNL     1       3.601   2.688  18.188  0.00  0.00    +0.000 C 
BRANCH  14  15
ATOM     15  S   UNL     1       1.975   3.489  18.062  0.00  0.00    +0.000 S 
BRANCH  15  16
ATOM     16  C   UNL     1       2.377   5.142  18.379  0.00  0.00    +0.000 A 
ATOM     17  N   UNL     1       2.976   5.973  17.559  0.00  0.00    +0.000 NA
ATOM     18  C   UNL     1       3.074   7.151  18.256  0.00  0.00    +0.000 A 
ATOM     19  C   UNL     1       2.536   7.026  19.516  0.00  0.00    +0.000 A 
ATOM     20  N   UNL     1       2.095   5.732  19.583  0.00  0.00    +0.000 N 
ATOM     21  C   UNL     1       1.452   5.124  20.722  0.00  0.00    +0.000 C 
ENDBRANCH  15  16
ENDBRANCH  14  15
ENDBRANCH  13  14
ENDBRANCH   1  13
TORSDOF 5
ENDMDL
MODEL 3
REMARK VINA RESULT:      -6.9      1.338      1.752
REMARK  Name = 
REMARK  7 active torsions:
REMARK  status: ('A' for Active; 'I' for Inactive)
REMARK    1  A    between atoms: C_1  and  C_2
REMARK    2  A    between atoms: C_4  and  N_5
REMARK    3  A    between atoms: N_5  and  C_6
REMARK    4  A    between atoms: C_6  and  C_7
REMARK    5  A    between atoms: C_7  and  S_8
REMARK    6  A    between atoms: S_8  and  C_9
REMARK    7  A    between atoms: N_13  and  C_14
REMARK                            x       y       z     vdW  Elec       q    Type
REMARK                         _______ _______ _______ _____ _____    ______ ____
ROOT
ATOM      1  N   UNL     1       5.466   3.641  18.433  0.00  0.00    +0.000 N 
ATOM      2  H   UNL     1       5.748   3.462  19.402  0.00  0.00    +0.000 HD
ENDROOT
BRANCH   1   6
ATOM      3  C   UNL     1       8.113   7.843  18.365  0.00  0.00    +0.000 C 
ATOM      4  C   UNL     1       7.528   6.668  17.623  0.00  0.00    +0.000 A 
ATOM      5  C   UNL     1       6.758   5.683  18.438  0.00  0.00    +0.000 A 
ATOM      6  C   UNL     1       6.222   4.627  17.801  0.00  0.00    +0.000 A 
ATOM      7  N   UNL     1       6.443   4.535  16.402  0.00  0.00    +0.000 N 
ATOM      8  N   UNL     1       6.034   3.571  15.528  0.00  0.00    +0.000 NA
ATOM      9  C   UNL     1       6.520   4.028  14.372  0.00  0.00    +0.000 A 
ATOM     10  N   UNL     1       7.219   5.191  14.433  0.00  0.00    +0.000 NA
ATOM     11  C   UNL     1       7.176   5.508  15.709  0.00  0.00    +0.000 A 
ATOM     12  N   UNL     1       7.723   6.590  16.343  0.00  0.00    +0.000 NA
ENDBRANCH   1   6
BRANCH   1  13
ATOM     13  C   UNL     1       4.136   3.191  18.033  0.00  0.00    +0.000 C 
BRANCH  13  14
ATOM     14  C   UNL     1       3.222   4.333  17.579  0.00  0.00    +0.000 C 
BRANCH  14  15
ATOM     15  S   UNL     1       1.502   3.965  18.034  0.00  0.00    +0.000 S 
BRANCH  15  16
ATOM     16  C   UNL     1       1.677   3.475  19.685  0.00  0.00    +0.000 A 
ATOM     17  N   UNL     1       1.608   2.250  20.150  0.00  0.00    +0.000 NA
ATOM     18  C   UNL     1       1.806   2.371  21.502  0.00  0.00    +0.000 A 
ATOM     19  C   UNL     1       1.988   3.688  21.859  0.00  0.00    +0.000 A 
ATOM     20  N   UNL     1       1.900   4.385  20.684  0.00  0.00    +0.000 N 
ATOM     21  C   UNL     1       2.025   5.816  20.548  0.00  0.00    +0.000 C 
ENDBRANCH  15  16
ENDBRANCH  14  15
ENDBRANCH  13  14
ENDBRANCH   1  13
TORSDOF 5
ENDMDL
MODEL 4
REMARK VINA RESULT:      -6.9      1.761      3.552
REMARK  Name = 
REMARK  7 active torsions:
REMARK  status: ('A' for Active; 'I' for Inactive)
REMARK    1  A    between atoms: C_1  and  C_2
REMARK    2  A    between atoms: C_4  and  N_5
REMARK    3  A    between atoms: N_5  and  C_6
REMARK    4  A    between atoms: C_6  and  C_7
REMARK    5  A    between atoms: C_7  and  S_8
REMARK    6  A    between atoms: S_8  and  C_9
REMARK    7  A    between atoms: N_13  and  C_14
REMARK                            x       y       z     vdW  Elec       q    Type
REMARK                         _______ _______ _______ _____ _____    ______ ____
ROOT
ATOM      1  N   UNL     1       4.612   7.376  17.187  0.00  0.00    +0.000 N 
ATOM      2  H   UNL     1       4.961   8.306  16.938  0.00  0.00    +0.000 HD
ENDROOT
BRANCH   1   6
ATOM      3  C   UNL     1       5.889   4.063  13.713  0.00  0.00    +0.000 C 
ATOM      4  C   UNL     1       6.112   4.659  15.081  0.00  0.00    +0.000 A 
ATOM      5  C   UNL     1       5.214   5.785  15.471  0.00  0.00    +0.000 A 
ATOM      6  C   UNL     1       5.388   6.331  16.687  0.00  0.00    +0.000 A 
ATOM      7  N   UNL     1       6.423   5.794  17.496  0.00  0.00    +0.000 N 
ATOM      8  N   UNL     1       6.822   6.168  18.745  0.00  0.00    +0.000 NA
ATOM      9  C   UNL     1       7.808   5.303  18.987  0.00  0.00    +0.000 A 
ATOM     10  N   UNL     1       8.087   4.419  17.994  0.00  0.00    +0.000 NA
ATOM     11  C   UNL     1       7.221   4.729  17.054  0.00  0.00    +0.000 A 
ATOM     12  N   UNL     1       7.052   4.160  15.822  0.00  0.00    +0.000 NA
ENDBRANCH   1   6
BRANCH   1  13
ATOM     13  C   UNL     1       3.219   7.281  17.615  0.00  0.00    +0.000 C 
BRANCH  13  14
ATOM     14  C   UNL     1       3.009   6.312  18.781  0.00  0.00    +0.000 C 
BRANCH  14  15
ATOM     15  S   UNL     1       2.198   4.798  18.188  0.00  0.00    +0.000 S 
BRANCH  15  16
ATOM     16  C   UNL     1       2.084   3.872  19.645  0.00  0.00    +0.000 A 
ATOM     17  N   UNL     1       1.029   3.753  20.418  0.00  0.00    +0.000 NA
ATOM     18  C   UNL     1       1.427   2.928  21.439  0.00  0.00    +0.000 A 
ATOM     19  C   UNL     1       2.742   2.552  21.287  0.00  0.00    +0.000 A 
ATOM     20  N   UNL     1       3.152   3.166  20.134  0.00  0.00    +0.000 N 
ATOM     21  C   UNL     1       4.471   3.071  19.557  0.00  0.00    +0.000 C 
ENDBRANCH  15  16
ENDBRANCH  14  15
ENDBRANCH  13  14
ENDBRANCH   1  13
TORSDOF 5
ENDMDL
MODEL 5
REMARK VINA RESULT:      -6.8      1.270      1.859
REMARK  Name = 
REMARK  7 active torsions:
REMARK  status: ('A' for Active; 'I' for Inactive)
REMARK    1  A    between atoms: C_1  and  C_2
REMARK    2  A    between atoms: C_4  and  N_5
REMARK    3  A    between atoms: N_5  and  C_6
REMARK    4  A    between atoms: C_6  and  C_7
REMARK    5  A    between atoms: C_7  and  S_8
REMARK    6  A    between atoms: S_8  and  C_9
REMARK    7  A    between atoms: N_13  and  C_14
REMARK                            x       y       z     vdW  Elec       q    Type
REMARK                         _______ _______ _______ _____ _____    ______ ____
ROOT
ATOM      1  N   UNL     1       5.437   3.420  18.518  0.00  0.00    +0.000 N 
ATOM      2  H   UNL     1       5.818   2.480  18.374  0.00  0.00    +0.000 HD
ENDROOT
BRANCH   1   6
ATOM      3  C   UNL     1       8.195   7.550  18.409  0.00  0.00    +0.000 C 
ATOM      4  C   UNL     1       7.498   6.436  17.667  0.00  0.00    +0.000 A 
ATOM      5  C   UNL     1       6.786   5.424  18.502  0.00  0.00    +0.000 A 
ATOM      6  C   UNL     1       6.153   4.423  17.866  0.00  0.00    +0.000 A 
ATOM      7  N   UNL     1       6.224   4.409  16.449  0.00  0.00    +0.000 N 
ATOM      8  N   UNL     1       5.696   3.511  15.570  0.00  0.00    +0.000 NA
ATOM      9  C   UNL     1       6.072   4.023  14.397  0.00  0.00    +0.000 A 
ATOM     10  N   UNL     1       6.811   5.163  14.450  0.00  0.00    +0.000 NA
ATOM     11  C   UNL     1       6.911   5.404  15.739  0.00  0.00    +0.000 A 
ATOM     12  N   UNL     1       7.556   6.431  16.372  0.00  0.00    +0.000 NA
ENDBRANCH   1   6
BRANCH   1  13
ATOM     13  C   UNL     1       4.539   3.608  19.654  0.00  0.00    +0.000 C 
BRANCH  13  14
ATOM     14  C   UNL     1       3.104   3.949  19.242  0.00  0.00    +0.000 C 
BRANCH  14  15
ATOM     15  S   UNL     1       2.414   5.187  20.380  0.00  0.00    +0.000 S 
BRANCH  15  16
ATOM     16  C   UNL     1       2.429   6.609  19.395  0.00  0.00    +0.000 A 
ATOM     17  N   UNL     1       2.978   6.736  18.210  0.00  0.00    +0.000 NA
ATOM     18  C   UNL     1       2.731   8.034  17.839  0.00  0.00    +0.000 A 
ATOM     19  C   UNL     1       2.031   8.702  18.818  0.00  0.00    +0.000 A 
ATOM     20  N   UNL     1       1.846   7.777  19.811  0.00  0.00    +0.000 N 
ATOM     21  C   UNL     1       1.159   8.013  21.058  0.00  0.00    +0.000 C 
ENDBRANCH  15  16
ENDBRANCH  14  15
ENDBRANCH  13  14
ENDBRANCH   1  13
TORSDOF 5
ENDMDL
MODEL 6
REMARK VINA RESULT:      -6.8      1.241      1.862
REMARK  Name = 
REMARK  7 active torsions:
REMARK  status: ('A' for Active; 'I' for Inactive)
REMARK    1  A    between atoms: C_1  and  C_2
REMARK    2  A    between atoms: C_4  and  N_5
REMARK    3  A    between atoms: N_5  and  C_6
REMARK    4  A    between atoms: C_6  and  C_7
REMARK    5  A    between atoms: C_7  and  S_8
REMARK    6  A    between atoms: S_8  and  C_9
REMARK    7  A    between atoms: N_13  and  C_14
REMARK                            x       y       z     vdW  Elec       q    Type
REMARK                         _______ _______ _______ _____ _____    ______ ____
ROOT
ATOM      1  N   UNL     1       4.808   3.086  17.274  0.00  0.00    +0.000 N 
ATOM      2  H   UNL     1       4.729   2.357  16.558  0.00  0.00    +0.000 HD
ENDROOT
BRANCH   1   6
ATOM      3  C   UNL     1       7.822   6.862  18.427  0.00  0.00    +0.000 C 
ATOM      4  C   UNL     1       7.238   5.941  17.385  0.00  0.00    +0.000 A 
ATOM      5  C   UNL     1       6.272   4.912  17.872  0.00  0.00    +0.000 A 
ATOM      6  C   UNL     1       5.733   4.081  16.963  0.00  0.00    +0.000 A 
ATOM      7  N   UNL     1       6.138   4.248  15.613  0.00  0.00    +0.000 N 
ATOM      8  N   UNL     1       5.766   3.539  14.509  0.00  0.00    +0.000 NA
ATOM      9  C   UNL     1       6.448   4.159  13.545  0.00  0.00    +0.000 A 
ATOM     10  N   UNL     1       7.238   5.192  13.938  0.00  0.00    +0.000 NA
ATOM     11  C   UNL     1       7.047   5.246  15.238  0.00  0.00    +0.000 A 
ATOM     12  N   UNL     1       7.601   6.102  16.151  0.00  0.00    +0.000 NA
ENDBRANCH   1   6
BRANCH   1  13
ATOM     13  C   UNL     1       4.310   2.764  18.609  0.00  0.00    +0.000 C 
BRANCH  13  14
ATOM     14  C   UNL     1       3.230   1.680  18.607  0.00  0.00    +0.000 C 
BRANCH  14  15
ATOM     15  S   UNL     1       1.588   2.443  18.456  0.00  0.00    +0.000 S 
BRANCH  15  16
ATOM     16  C   UNL     1       1.834   3.957  19.257  0.00  0.00    +0.000 A 
ATOM     17  N   UNL     1       2.099   5.110  18.688  0.00  0.00    +0.000 NA
ATOM     18  C   UNL     1       2.209   6.001  19.726  0.00  0.00    +0.000 A 
ATOM     19  C   UNL     1       2.019   5.376  20.936  0.00  0.00    +0.000 A 
ATOM     20  N   UNL     1       1.782   4.065  20.622  0.00  0.00    +0.000 N 
ATOM     21  C   UNL     1       1.524   3.008  21.570  0.00  0.00    +0.000 C 
ENDBRANCH  15  16
ENDBRANCH  14  15
ENDBRANCH  13  14
ENDBRANCH   1  13
TORSDOF 5
ENDMDL
MODEL 7
REMARK VINA RESULT:      -6.8      1.770      3.778
REMARK  Name = 
REMARK  7 active torsions:
REMARK  status: ('A' for Active; 'I' for Inactive)
REMARK    1  A    between atoms: C_1  and  C_2
REMARK    2  A    between atoms: C_4  and  N_5
REMARK    3  A    between atoms: N_5  and  C_6
REMARK    4  A    between atoms: C_6  and  C_7
REMARK    5  A    between atoms: C_7  and  S_8
REMARK    6  A    between atoms: S_8  and  C_9
REMARK    7  A    between atoms: N_13  and  C_14
REMARK                            x       y       z     vdW  Elec       q    Type
REMARK                         _______ _______ _______ _____ _____    ______ ____
ROOT
ATOM      1  N   UNL     1       4.109   6.597  17.769  0.00  0.00    +0.000 N 
ATOM      2  H   UNL     1       4.221   7.607  17.639  0.00  0.00    +0.000 HD
ENDROOT
BRANCH   1   6
ATOM      3  C   UNL     1       6.028   4.044  13.964  0.00  0.00    +0.000 C 
ATOM      4  C   UNL     1       6.154   4.556  15.377  0.00  0.00    +0.000 A 
ATOM      5  C   UNL     1       5.017   5.372  15.895  0.00  0.00    +0.000 A 
ATOM      6  C   UNL     1       5.102   5.837  17.153  0.00  0.00    +0.000 A 
ATOM      7  N   UNL     1       6.277   5.517  17.882  0.00  0.00    +0.000 N 
ATOM      8  N   UNL     1       6.624   5.872  19.152  0.00  0.00    +0.000 NA
ATOM      9  C   UNL     1       7.809   5.275  19.288  0.00  0.00    +0.000 A 
ATOM     10  N   UNL     1       8.259   4.583  18.209  0.00  0.00    +0.000 NA
ATOM     11  C   UNL     1       7.299   4.738  17.323  0.00  0.00    +0.000 A 
ATOM     12  N   UNL     1       7.224   4.255  16.045  0.00  0.00    +0.000 NA
ENDBRANCH   1   6
BRANCH   1  13
ATOM     13  C   UNL     1       2.787   6.120  18.166  0.00  0.00    +0.000 C 
BRANCH  13  14
ATOM     14  C   UNL     1       2.444   6.432  19.626  0.00  0.00    +0.000 C 
BRANCH  14  15
ATOM     15  S   UNL     1       1.779   4.948  20.435  0.00  0.00    +0.000 S 
BRANCH  15  16
ATOM     16  C   UNL     1       2.761   3.704  19.741  0.00  0.00    +0.000 A 
ATOM     17  N   UNL     1       4.072   3.631  19.775  0.00  0.00    +0.000 NA
ATOM     18  C   UNL     1       4.382   2.480  19.095  0.00  0.00    +0.000 A 
ATOM     19  C   UNL     1       3.244   1.856  18.637  0.00  0.00    +0.000 A 
ATOM     20  N   UNL     1       2.213   2.653  19.056  0.00  0.00    +0.000 N 
ATOM     21  C   UNL     1       0.812   2.408  18.810  0.00  0.00    +0.000 C 
ENDBRANCH  15  16
ENDBRANCH  14  15
ENDBRANCH  13  14
ENDBRANCH   1  13
TORSDOF 5
ENDMDL
MODEL 8
REMARK VINA RESULT:      -6.7      1.523      3.179
REMARK  Name = 
REMARK  7 active torsions:
REMARK  status: ('A' for Active; 'I' for Inactive)
REMARK    1  A    between atoms: C_1  and  C_2
REMARK    2  A    between atoms: C_4  and  N_5
REMARK    3  A    between atoms: N_5  and  C_6
REMARK    4  A    between atoms: C_6  and  C_7
REMARK    5  A    between atoms: C_7  and  S_8
REMARK    6  A    between atoms: S_8  and  C_9
REMARK    7  A    between atoms: N_13  and  C_14
REMARK                            x       y       z     vdW  Elec       q    Type
REMARK                         _______ _______ _______ _____ _____    ______ ____
ROOT
ATOM      1  N   UNL     1       5.068   3.305  17.576  0.00  0.00    +0.000 N 
ATOM      2  H   UNL     1       5.391   3.500  18.528  0.00  0.00    +0.000 HD
ENDROOT
BRANCH   1   6
ATOM      3  C   UNL     1       6.697   3.986  12.933  0.00  0.00    +0.000 C 
ATOM      4  C   UNL     1       6.641   4.446  14.368  0.00  0.00    +0.000 A 
ATOM      5  C   UNL     1       5.833   3.612  15.305  0.00  0.00    +0.000 A 
ATOM      6  C   UNL     1       5.771   3.998  16.591  0.00  0.00    +0.000 A 
ATOM      7  N   UNL     1       6.475   5.177  16.948  0.00  0.00    +0.000 N 
ATOM      8  N   UNL     1       6.563   5.793  18.161  0.00  0.00    +0.000 NA
ATOM      9  C   UNL     1       7.360   6.826  17.885  0.00  0.00    +0.000 A 
ATOM     10  N   UNL     1       7.776   6.935  16.596  0.00  0.00    +0.000 NA
ATOM     11  C   UNL     1       7.217   5.902  16.005  0.00  0.00    +0.000 A 
ATOM     12  N   UNL     1       7.293   5.519  14.694  0.00  0.00    +0.000 NA
ENDBRANCH   1   6
BRANCH   1  13
ATOM     13  C   UNL     1       3.736   2.725  17.431  0.00  0.00    +0.000 C 
BRANCH  13  14
ATOM     14  C   UNL     1       3.373   1.752  18.556  0.00  0.00    +0.000 C 
BRANCH  14  15
ATOM     15  S   UNL     1       3.952   2.406  20.149  0.00  0.00    +0.000 S 
BRANCH  15  16
ATOM     16  C   UNL     1       3.079   3.896  20.250  0.00  0.00    +0.000 A 
ATOM     17  N   UNL     1       3.472   5.066  19.802  0.00  0.00    +0.000 NA
ATOM     18  C   UNL     1       2.451   5.928  20.115  0.00  0.00    +0.000 A 
ATOM     19  C   UNL     1       1.434   5.272  20.769  0.00  0.00    +0.000 A 
ATOM     20  N   UNL     1       1.851   3.970  20.851  0.00  0.00    +0.000 N 
ATOM     21  C   UNL     1       1.113   2.891  21.462  0.00  0.00    +0.000 C 
ENDBRANCH  15  16
ENDBRANCH  14  15
ENDBRANCH  13  14
ENDBRANCH   1  13
TORSDOF 5
ENDMDL
MODEL 9
REMARK VINA RESULT:      -6.7      1.943      3.387
REMARK  Name = 
REMARK  7 active torsions:
REMARK  status: ('A' for Active; 'I' for Inactive)
REMARK    1  A    between atoms: C_1  and  C_2
REMARK    2  A    between atoms: C_4  and  N_5
REMARK    3  A    between atoms: N_5  and  C_6
REMARK    4  A    between atoms: C_6  and  C_7
REMARK    5  A    between atoms: C_7  and  S_8
REMARK    6  A    between atoms: S_8  and  C_9
REMARK    7  A    between atoms: N_13  and  C_14
REMARK                            x       y       z     vdW  Elec       q    Type
REMARK                         _______ _______ _______ _____ _____    ______ ____
ROOT
ATOM      1  N   UNL     1       4.266   3.151  17.859  0.00  0.00    +0.000 N 
ATOM      2  H   UNL     1       4.599   2.339  18.389  0.00  0.00    +0.000 HD
ENDROOT
BRANCH   1   6
ATOM      3  C   UNL     1       6.827   4.638  13.871  0.00  0.00    +0.000 C 
ATOM      4  C   UNL     1       6.625   4.663  15.365  0.00  0.00    +0.000 A 
ATOM      5  C   UNL     1       5.483   3.863  15.897  0.00  0.00    +0.000 A 
ATOM      6  C   UNL     1       5.283   3.865  17.226  0.00  0.00    +0.000 A 
ATOM      7  N   UNL     1       6.174   4.639  18.013  0.00  0.00    +0.000 N 
ATOM      8  N   UNL     1       6.186   4.829  19.364  0.00  0.00    +0.000 NA
ATOM      9  C   UNL     1       7.246   5.624  19.517  0.00  0.00    +0.000 A 
ATOM     10  N   UNL     1       7.904   5.973  18.381  0.00  0.00    +0.000 NA
ATOM     11  C   UNL     1       7.228   5.359  17.434  0.00  0.00    +0.000 A 
ATOM     12  N   UNL     1       7.447   5.363  16.084  0.00  0.00    +0.000 NA
ENDBRANCH   1   6
BRANCH   1  13
ATOM     13  C   UNL     1       2.937   3.659  18.186  0.00  0.00    +0.000 C 
BRANCH  13  14
ATOM     14  C   UNL     1       2.774   5.155  17.903  0.00  0.00    +0.000 C 
BRANCH  14  15
ATOM     15  S   UNL     1       2.815   6.086  19.463  0.00  0.00    +0.000 S 
BRANCH  15  16
ATOM     16  C   UNL     1       2.254   7.641  18.954  0.00  0.00    +0.000 A 
ATOM     17  N   UNL     1       2.438   8.194  17.777  0.00  0.00    +0.000 NA
ATOM     18  C   UNL     1       1.816   9.414  17.856  0.00  0.00    +0.000 A 
ATOM     19  C   UNL     1       1.257   9.604  19.099  0.00  0.00    +0.000 A 
ATOM     20  N   UNL     1       1.547   8.461  19.794  0.00  0.00    +0.000 N 
ATOM     21  C   UNL     1       1.167   8.191  21.159  0.00  0.00    +0.000 C 
ENDBRANCH  15  16
ENDBRANCH  14  15
ENDBRANCH  13  14
ENDBRANCH   1  13
TORSDOF 5
ENDMDL
