MODEL 1
REMARK VINA RESULT:      -8.9      0.000      0.000
REMARK  Name = 
REMARK  8 active torsions:
REMARK  status: ('A' for Active; 'I' for Inactive)
REMARK    1  A    between atoms: C_1  and  C_2
REMARK    2  A    between atoms: C_5  and  C_6
REMARK    3  A    between atoms: N_7  and  C_8
REMARK    4  A    between atoms: C_10  and  C_11
REMARK    5  A    between atoms: N_13  and  N_14
REMARK    6  A    between atoms: C_15  and  C_16
REMARK    7  A    between atoms: C_28  and  C_29
REMARK    8  A    between atoms: C_29  and  O_31
REMARK                            x       y       z     vdW  Elec       q    Type
REMARK                         _______ _______ _______ _____ _____    ______ ____
ROOT
ATOM      1  C   UNL     1       4.330   4.694  18.825  0.00  0.00    +0.000 A 
ATOM      2  C   UNL     1       3.667   5.936  18.970  0.00  0.00    +0.000 A 
ATOM      3  C   UNL     1       2.527   6.112  19.779  0.00  0.00    +0.000 A 
ATOM      4  C   UNL     1       1.927   4.994  20.345  0.00  0.00    +0.000 A 
ATOM      5  C   UNL     1       2.539   3.749  20.193  0.00  0.00    +0.000 A 
ATOM      6  C   UNL     1       3.762   3.591  19.497  0.00  0.00    +0.000 A 
ENDROOT
BRANCH   1  13
ATOM      7  C   UNL     1       7.276   5.528  19.699  0.00  0.00    +0.000 C 
ATOM      8  C   UNL     1       6.817   5.032  18.362  0.00  0.00    +0.000 A 
ATOM      9  C   UNL     1       7.670   4.826  17.295  0.00  0.00    +0.000 A 
ATOM     10  C   UNL     1       6.923   4.295  16.244  0.00  0.00    +0.000 A 
ATOM     11  C   UNL     1       5.602   4.229  16.646  0.00  0.00    +0.000 A 
ATOM     12  C   UNL     1       4.481   3.892  15.720  0.00  0.00    +0.000 C 
ATOM     13  N   UNL     1       5.511   4.646  17.986  0.00  0.00    +0.000 N 
ENDBRANCH   1  13
BRANCH   3  14
ATOM     14  C   UNL     1       1.985   7.491  19.974  0.00  0.00    +0.000 C 
ATOM     15  O   UNL     1       1.992   8.264  19.016  0.00  0.00    +0.000 OA
ATOM     16  N   UNL     1       1.576   7.809  21.264  0.00  0.00    +0.000 N 
ATOM     17  H   UNL     1       1.663   7.145  22.027  0.00  0.00    +0.000 HD
BRANCH  16  18
ATOM     18  N   UNL     1       1.143   9.079  21.534  0.00  0.00    +0.000 NA
ATOM     19  C   UNL     1      -0.136   9.279  21.528  0.00  0.00    +0.000 C 
BRANCH  19  20
ATOM     20  C   UNL     1      -0.639  10.628  21.714  0.00  0.00    +0.000 A 
ATOM     21  C   UNL     1      -0.906  11.218  22.937  0.00  0.00    +0.000 A 
ATOM     22  N   UNL     1      -1.139  12.550  22.733  0.00  0.00    +0.000 N 
ATOM     23  C   UNL     1      -0.932  12.855  21.409  0.00  0.00    +0.000 A 
ATOM     24  C   UNL     1      -0.781  14.093  20.778  0.00  0.00    +0.000 A 
ATOM     25  C   UNL     1      -0.586  14.073  19.399  0.00  0.00    +0.000 A 
ATOM     26  F   UNL     1      -0.224  15.203  18.777  0.00  0.00    +0.000 F 
ATOM     27  C   UNL     1      -0.714  12.905  18.658  0.00  0.00    +0.000 A 
ATOM     28  C   UNL     1      -0.825  11.672  19.310  0.00  0.00    +0.000 A 
ATOM     29  C   UNL     1      -0.837  11.641  20.721  0.00  0.00    +0.000 A 
ATOM     30  H   UNL     1      -1.330  13.225  23.462  0.00  0.00    +0.000 HD
ENDBRANCH  19  20
ENDBRANCH  16  18
ENDBRANCH   3  14
BRANCH   6  31
ATOM     31  C   UNL     1       4.331   2.230  19.674  0.00  0.00    +0.000 C 
ATOM     32  O   UNL     1       5.106   1.962  20.582  0.00  0.00    +0.000 OA
BRANCH  31  33
ATOM     33  O   UNL     1       4.058   1.365  18.683  0.00  0.00    +0.000 OA
ATOM     34  H   UNL     1       3.551   0.570  18.927  0.00  0.00    +0.000 HD
ENDBRANCH  31  33
ENDBRANCH   6  31
TORSDOF 6
ENDMDL
MODEL 2
REMARK VINA RESULT:      -8.8      0.080      1.468
REMARK  Name = 
REMARK  8 active torsions:
REMARK  status: ('A' for Active; 'I' for Inactive)
REMARK    1  A    between atoms: C_1  and  C_2
REMARK    2  A    between atoms: C_5  and  C_6
REMARK    3  A    between atoms: N_7  and  C_8
REMARK    4  A    between atoms: C_10  and  C_11
REMARK    5  A    between atoms: N_13  and  N_14
REMARK    6  A    between atoms: C_15  and  C_16
REMARK    7  A    between atoms: C_28  and  C_29
REMARK    8  A    between atoms: C_29  and  O_31
REMARK                            x       y       z     vdW  Elec       q    Type
REMARK                         _______ _______ _______ _____ _____    ______ ____
ROOT
ATOM      1  C   UNL     1       4.338   4.736  18.861  0.00  0.00    +0.000 A 
ATOM      2  C   UNL     1       3.665   5.974  18.996  0.00  0.00    +0.000 A 
ATOM      3  C   UNL     1       2.524   6.149  19.804  0.00  0.00    +0.000 A 
ATOM      4  C   UNL     1       1.934   5.032  20.381  0.00  0.00    +0.000 A 
ATOM      5  C   UNL     1       2.556   3.790  20.241  0.00  0.00    +0.000 A 
ATOM      6  C   UNL     1       3.780   3.635  19.544  0.00  0.00    +0.000 A 
ENDROOT
BRANCH   1  13
ATOM      7  C   UNL     1       4.452   3.675  15.862  0.00  0.00    +0.000 C 
ATOM      8  C   UNL     1       5.579   4.202  16.696  0.00  0.00    +0.000 A 
ATOM      9  C   UNL     1       6.872   4.337  16.228  0.00  0.00    +0.000 A 
ATOM     10  C   UNL     1       7.635   4.922  17.237  0.00  0.00    +0.000 A 
ATOM     11  C   UNL     1       6.825   5.094  18.344  0.00  0.00    +0.000 A 
ATOM     12  C   UNL     1       7.343   5.516  19.679  0.00  0.00    +0.000 C 
ATOM     13  N   UNL     1       5.518   4.689  18.021  0.00  0.00    +0.000 N 
ENDBRANCH   1  13
BRANCH   3  14
ATOM     14  C   UNL     1       1.972   7.525  19.987  0.00  0.00    +0.000 C 
ATOM     15  O   UNL     1       1.965   8.287  19.020  0.00  0.00    +0.000 OA
ATOM     16  N   UNL     1       1.569   7.855  21.276  0.00  0.00    +0.000 N 
ATOM     17  H   UNL     1       1.667   7.201  22.046  0.00  0.00    +0.000 HD
BRANCH  16  18
ATOM     18  N   UNL     1       1.127   9.124  21.534  0.00  0.00    +0.000 NA
ATOM     19  C   UNL     1      -0.154   9.302  21.590  0.00  0.00    +0.000 C 
BRANCH  19  20
ATOM     20  C   UNL     1      -0.672  10.646  21.767  0.00  0.00    +0.000 A 
ATOM     21  C   UNL     1      -0.961  11.237  22.984  0.00  0.00    +0.000 A 
ATOM     22  N   UNL     1      -1.204  12.565  22.775  0.00  0.00    +0.000 N 
ATOM     23  C   UNL     1      -0.982  12.870  21.452  0.00  0.00    +0.000 A 
ATOM     24  C   UNL     1      -0.834  14.107  20.820  0.00  0.00    +0.000 A 
ATOM     25  C   UNL     1      -0.621  14.086  19.444  0.00  0.00    +0.000 A 
ATOM     26  F   UNL     1      -0.261  15.218  18.824  0.00  0.00    +0.000 F 
ATOM     27  C   UNL     1      -0.727  12.915  18.705  0.00  0.00    +0.000 A 
ATOM     28  C   UNL     1      -0.836  11.682  19.357  0.00  0.00    +0.000 A 
ATOM     29  C   UNL     1      -0.866  11.655  20.768  0.00  0.00    +0.000 A 
ATOM     30  H   UNL     1      -1.410  13.241  23.499  0.00  0.00    +0.000 HD
ENDBRANCH  19  20
ENDBRANCH  16  18
ENDBRANCH   3  14
BRANCH   6  31
ATOM     31  C   UNL     1       4.359   2.280  19.734  0.00  0.00    +0.000 C 
ATOM     32  O   UNL     1       5.117   2.021  20.658  0.00  0.00    +0.000 OA
BRANCH  31  33
ATOM     33  O   UNL     1       4.118   1.413  18.737  0.00  0.00    +0.000 OA
ATOM     34  H   UNL     1       4.201   1.758  17.830  0.00  0.00    +0.000 HD
ENDBRANCH  31  33
ENDBRANCH   6  31
TORSDOF 6
ENDMDL
MODEL 3
REMARK VINA RESULT:      -8.8      5.119      7.765
REMARK  Name = 
REMARK  8 active torsions:
REMARK  status: ('A' for Active; 'I' for Inactive)
REMARK    1  A    between atoms: C_1  and  C_2
REMARK    2  A    between atoms: C_5  and  C_6
REMARK    3  A    between atoms: N_7  and  C_8
REMARK    4  A    between atoms: C_10  and  C_11
REMARK    5  A    between atoms: N_13  and  N_14
REMARK    6  A    between atoms: C_15  and  C_16
REMARK    7  A    between atoms: C_28  and  C_29
REMARK    8  A    between atoms: C_29  and  O_31
REMARK                            x       y       z     vdW  Elec       q    Type
REMARK                         _______ _______ _______ _____ _____    ______ ____
ROOT
ATOM      1  C   UNL     1       4.156   4.327  18.917  0.00  0.00    +0.000 A 
ATOM      2  C   UNL     1       5.382   4.999  19.141  0.00  0.00    +0.000 A 
ATOM      3  C   UNL     1       6.131   5.599  18.110  0.00  0.00    +0.000 A 
ATOM      4  C   UNL     1       5.739   5.401  16.792  0.00  0.00    +0.000 A 
ATOM      5  C   UNL     1       4.551   4.715  16.537  0.00  0.00    +0.000 A 
ATOM      6  C   UNL     1       3.722   4.230  17.579  0.00  0.00    +0.000 A 
ENDROOT
BRANCH   1  13
ATOM      7  C   UNL     1       1.803   5.737  20.535  0.00  0.00    +0.000 C 
ATOM      8  C   UNL     1       2.431   4.403  20.798  0.00  0.00    +0.000 A 
ATOM      9  C   UNL     1       2.017   3.554  21.805  0.00  0.00    +0.000 A 
ATOM     10  C   UNL     1       2.764   2.381  21.713  0.00  0.00    +0.000 A 
ATOM     11  C   UNL     1       3.676   2.531  20.685  0.00  0.00    +0.000 A 
ATOM     12  C   UNL     1       4.773   1.555  20.415  0.00  0.00    +0.000 C 
ATOM     13  N   UNL     1       3.463   3.774  20.064  0.00  0.00    +0.000 N 
ENDBRANCH   1  13
BRANCH   3  14
ATOM     14  C   UNL     1       7.339   6.402  18.469  0.00  0.00    +0.000 C 
ATOM     15  O   UNL     1       8.087   5.974  19.348  0.00  0.00    +0.000 OA
ATOM     16  N   UNL     1       7.479   7.620  17.814  0.00  0.00    +0.000 N 
ATOM     17  H   UNL     1       6.786   7.947  17.147  0.00  0.00    +0.000 HD
BRANCH  16  18
ATOM     18  N   UNL     1       8.519   8.444  18.150  0.00  0.00    +0.000 NA
ATOM     19  C   UNL     1       8.253   9.705  18.278  0.00  0.00    +0.000 C 
BRANCH  19  20
ATOM     20  C   UNL     1       9.339  10.631  18.540  0.00  0.00    +0.000 A 
ATOM     21  C   UNL     1      10.250  11.080  17.600  0.00  0.00    +0.000 A 
ATOM     22  N   UNL     1      10.971  12.103  18.148  0.00  0.00    +0.000 N 
ATOM     23  C   UNL     1      10.478  12.394  19.398  0.00  0.00    +0.000 A 
ATOM     24  C   UNL     1      10.692  13.503  20.221  0.00  0.00    +0.000 A 
ATOM     25  C   UNL     1      10.044  13.502  21.453  0.00  0.00    +0.000 A 
ATOM     26  F   UNL     1      10.039  14.624  22.186  0.00  0.00    +0.000 F 
ATOM     27  C   UNL     1       9.365  12.386  21.924  0.00  0.00    +0.000 A 
ATOM     28  C   UNL     1       9.127  11.302  21.072  0.00  0.00    +0.000 A 
ATOM     29  C   UNL     1       9.614  11.351  19.748  0.00  0.00    +0.000 A 
ATOM     30  H   UNL     1      11.686  12.635  17.668  0.00  0.00    +0.000 HD
ENDBRANCH  19  20
ENDBRANCH  16  18
ENDBRANCH   3  14
BRANCH   6  31
ATOM     31  C   UNL     1       2.410   3.754  17.068  0.00  0.00    +0.000 C 
ATOM     32  O   UNL     1       1.400   4.441  17.130  0.00  0.00    +0.000 OA
BRANCH  31  33
ATOM     33  O   UNL     1       2.382   2.466  16.684  0.00  0.00    +0.000 OA
ATOM     34  H   UNL     1       2.498   2.294  15.733  0.00  0.00    +0.000 HD
ENDBRANCH  31  33
ENDBRANCH   6  31
TORSDOF 6
ENDMDL
MODEL 4
REMARK VINA RESULT:      -8.7      7.686     11.528
REMARK  Name = 
REMARK  8 active torsions:
REMARK  status: ('A' for Active; 'I' for Inactive)
REMARK    1  A    between atoms: C_1  and  C_2
REMARK    2  A    between atoms: C_5  and  C_6
REMARK    3  A    between atoms: N_7  and  C_8
REMARK    4  A    between atoms: C_10  and  C_11
REMARK    5  A    between atoms: N_13  and  N_14
REMARK    6  A    between atoms: C_15  and  C_16
REMARK    7  A    between atoms: C_28  and  C_29
REMARK    8  A    between atoms: C_29  and  O_31
REMARK                            x       y       z     vdW  Elec       q    Type
REMARK                         _______ _______ _______ _____ _____    ______ ____
ROOT
ATOM      1  C   UNL     1       9.402  14.490  18.452  0.00  0.00    +0.000 A 
ATOM      2  C   UNL     1       9.026  13.175  18.816  0.00  0.00    +0.000 A 
ATOM      3  C   UNL     1       9.711  12.026  18.372  0.00  0.00    +0.000 A 
ATOM      4  C   UNL     1      10.706  12.167  17.413  0.00  0.00    +0.000 A 
ATOM      5  C   UNL     1      11.078  13.449  17.009  0.00  0.00    +0.000 A 
ATOM      6  C   UNL     1      10.487  14.614  17.558  0.00  0.00    +0.000 A 
ENDROOT
BRANCH   1  13
ATOM      7  C   UNL     1      10.386  16.513  20.704  0.00  0.00    +0.000 C 
ATOM      8  C   UNL     1       9.060  16.483  20.009  0.00  0.00    +0.000 A 
ATOM      9  C   UNL     1       8.059  17.405  20.244  0.00  0.00    +0.000 A 
ATOM     10  C   UNL     1       7.004  17.123  19.378  0.00  0.00    +0.000 A 
ATOM     11  C   UNL     1       7.333  15.994  18.652  0.00  0.00    +0.000 A 
ATOM     12  C   UNL     1       6.368  15.282  17.761  0.00  0.00    +0.000 C 
ATOM     13  N   UNL     1       8.636  15.594  18.996  0.00  0.00    +0.000 N 
ENDBRANCH   1  13
BRANCH   3  14
ATOM     14  C   UNL     1       9.319  10.694  18.925  0.00  0.00    +0.000 C 
ATOM     15  O   UNL     1       9.638  10.424  20.082  0.00  0.00    +0.000 OA
ATOM     16  N   UNL     1       8.676   9.833  18.043  0.00  0.00    +0.000 N 
ATOM     17  H   UNL     1       8.505  10.093  17.077  0.00  0.00    +0.000 HD
BRANCH  16  18
ATOM     18  N   UNL     1       8.360   8.567  18.456  0.00  0.00    +0.000 NA
ATOM     19  C   UNL     1       7.757   7.802  17.603  0.00  0.00    +0.000 C 
BRANCH  19  20
ATOM     20  C   UNL     1       7.316   6.485  18.025  0.00  0.00    +0.000 A 
ATOM     21  C   UNL     1       7.577   5.914  19.258  0.00  0.00    +0.000 A 
ATOM     22  N   UNL     1       6.819   4.783  19.381  0.00  0.00    +0.000 N 
ATOM     23  C   UNL     1       5.995   4.661  18.287  0.00  0.00    +0.000 A 
ATOM     24  C   UNL     1       4.876   3.850  18.080  0.00  0.00    +0.000 A 
ATOM     25  C   UNL     1       4.247   3.954  16.843  0.00  0.00    +0.000 A 
ATOM     26  F   UNL     1       3.055   3.365  16.668  0.00  0.00    +0.000 F 
ATOM     27  C   UNL     1       4.797   4.687  15.800  0.00  0.00    +0.000 A 
ATOM     28  C   UNL     1       5.894   5.523  16.036  0.00  0.00    +0.000 A 
ATOM     29  C   UNL     1       6.443   5.583  17.335  0.00  0.00    +0.000 A 
ATOM     30  H   UNL     1       6.791   4.186  20.197  0.00  0.00    +0.000 HD
ENDBRANCH  19  20
ENDBRANCH  16  18
ENDBRANCH   3  14
BRANCH   6  31
ATOM     31  C   UNL     1      11.208  15.848  17.151  0.00  0.00    +0.000 C 
ATOM     32  O   UNL     1      12.238  16.210  17.702  0.00  0.00    +0.000 OA
BRANCH  31  33
ATOM     33  O   UNL     1      10.566  16.612  16.251  0.00  0.00    +0.000 OA
ATOM     34  H   UNL     1      11.044  17.397  15.928  0.00  0.00    +0.000 HD
ENDBRANCH  31  33
ENDBRANCH   6  31
TORSDOF 6
ENDMDL
MODEL 5
REMARK VINA RESULT:      -8.7      7.493     11.228
REMARK  Name = 
REMARK  8 active torsions:
REMARK  status: ('A' for Active; 'I' for Inactive)
REMARK    1  A    between atoms: C_1  and  C_2
REMARK    2  A    between atoms: C_5  and  C_6
REMARK    3  A    between atoms: N_7  and  C_8
REMARK    4  A    between atoms: C_10  and  C_11
REMARK    5  A    between atoms: N_13  and  N_14
REMARK    6  A    between atoms: C_15  and  C_16
REMARK    7  A    between atoms: C_28  and  C_29
REMARK    8  A    between atoms: C_29  and  O_31
REMARK                            x       y       z     vdW  Elec       q    Type
REMARK                         _______ _______ _______ _____ _____    ______ ____
ROOT
ATOM      1  C   UNL     1       9.421  14.228  18.594  0.00  0.00    +0.000 A 
ATOM      2  C   UNL     1       8.981  12.914  18.883  0.00  0.00    +0.000 A 
ATOM      3  C   UNL     1       9.572  11.762  18.328  0.00  0.00    +0.000 A 
ATOM      4  C   UNL     1      10.531  11.913  17.335  0.00  0.00    +0.000 A 
ATOM      5  C   UNL     1      10.965  13.197  17.004  0.00  0.00    +0.000 A 
ATOM      6  C   UNL     1      10.472  14.352  17.660  0.00  0.00    +0.000 A 
ENDROOT
BRANCH   1  13
ATOM      7  C   UNL     1       6.565  15.401  17.819  0.00  0.00    +0.000 C 
ATOM      8  C   UNL     1       7.491  15.870  18.899  0.00  0.00    +0.000 A 
ATOM      9  C   UNL     1       7.187  16.901  19.766  0.00  0.00    +0.000 A 
ATOM     10  C   UNL     1       8.233  17.017  20.680  0.00  0.00    +0.000 A 
ATOM     11  C   UNL     1       9.206  16.096  20.339  0.00  0.00    +0.000 A 
ATOM     12  C   UNL     1      10.556  16.058  20.976  0.00  0.00    +0.000 C 
ATOM     13  N   UNL     1       8.750  15.332  19.250  0.00  0.00    +0.000 N 
ENDBRANCH   1  13
BRANCH   3  14
ATOM     14  C   UNL     1       9.123  10.419  18.805  0.00  0.00    +0.000 C 
ATOM     15  O   UNL     1       9.367  10.098  19.967  0.00  0.00    +0.000 OA
ATOM     16  N   UNL     1       8.515   9.606  17.854  0.00  0.00    +0.000 N 
ATOM     17  H   UNL     1       8.406   9.907  16.890  0.00  0.00    +0.000 HD
BRANCH  16  18
ATOM     18  N   UNL     1       8.150   8.333  18.199  0.00  0.00    +0.000 NA
ATOM     19  C   UNL     1       7.368   7.703  17.381  0.00  0.00    +0.000 C 
BRANCH  19  20
ATOM     20  C   UNL     1       6.877   6.387  17.748  0.00  0.00    +0.000 A 
ATOM     21  C   UNL     1       7.662   5.337  18.190  0.00  0.00    +0.000 A 
ATOM     22  N   UNL     1       6.841   4.348  18.656  0.00  0.00    +0.000 N 
ATOM     23  C   UNL     1       5.535   4.777  18.614  0.00  0.00    +0.000 A 
ATOM     24  C   UNL     1       4.390   4.252  19.217  0.00  0.00    +0.000 A 
ATOM     25  C   UNL     1       3.193   4.922  18.977  0.00  0.00    +0.000 A 
ATOM     26  F   UNL     1       2.109   4.595  19.694  0.00  0.00    +0.000 F 
ATOM     27  C   UNL     1       3.102   5.949  18.047  0.00  0.00    +0.000 A 
ATOM     28  C   UNL     1       4.264   6.487  17.484  0.00  0.00    +0.000 A 
ATOM     29  C   UNL     1       5.516   5.950  17.852  0.00  0.00    +0.000 A 
ATOM     30  H   UNL     1       7.153   3.478  19.066  0.00  0.00    +0.000 HD
ENDBRANCH  19  20
ENDBRANCH  16  18
ENDBRANCH   3  14
BRANCH   6  31
ATOM     31  C   UNL     1      11.250  15.567  17.307  0.00  0.00    +0.000 C 
ATOM     32  O   UNL     1      12.249  15.903  17.927  0.00  0.00    +0.000 OA
BRANCH  31  33
ATOM     33  O   UNL     1      10.691  16.347  16.366  0.00  0.00    +0.000 OA
ATOM     34  H   UNL     1       9.875  16.814  16.617  0.00  0.00    +0.000 HD
ENDBRANCH  31  33
ENDBRANCH   6  31
TORSDOF 6
ENDMDL
MODEL 6
REMARK VINA RESULT:      -8.5      1.764      2.493
REMARK  Name = 
REMARK  8 active torsions:
REMARK  status: ('A' for Active; 'I' for Inactive)
REMARK    1  A    between atoms: C_1  and  C_2
REMARK    2  A    between atoms: C_5  and  C_6
REMARK    3  A    between atoms: N_7  and  C_8
REMARK    4  A    between atoms: C_10  and  C_11
REMARK    5  A    between atoms: N_13  and  N_14
REMARK    6  A    between atoms: C_15  and  C_16
REMARK    7  A    between atoms: C_28  and  C_29
REMARK    8  A    between atoms: C_29  and  O_31
REMARK                            x       y       z     vdW  Elec       q    Type
REMARK                         _______ _______ _______ _____ _____    ______ ____
ROOT
ATOM      1  C   UNL     1       4.250   4.739  18.971  0.00  0.00    +0.000 A 
ATOM      2  C   UNL     1       3.573   5.965  19.173  0.00  0.00    +0.000 A 
ATOM      3  C   UNL     1       2.450   6.097  20.014  0.00  0.00    +0.000 A 
ATOM      4  C   UNL     1       1.880   4.953  20.556  0.00  0.00    +0.000 A 
ATOM      5  C   UNL     1       2.505   3.723  20.349  0.00  0.00    +0.000 A 
ATOM      6  C   UNL     1       3.714   3.606  19.618  0.00  0.00    +0.000 A 
ENDROOT
BRANCH   1  13
ATOM      7  C   UNL     1       4.314   3.757  15.943  0.00  0.00    +0.000 C 
ATOM      8  C   UNL     1       5.450   4.283  16.765  0.00  0.00    +0.000 A 
ATOM      9  C   UNL     1       6.729   4.455  16.271  0.00  0.00    +0.000 A 
ATOM     10  C   UNL     1       7.504   5.028  17.277  0.00  0.00    +0.000 A 
ATOM     11  C   UNL     1       6.718   5.156  18.407  0.00  0.00    +0.000 A 
ATOM     12  C   UNL     1       7.259   5.554  19.741  0.00  0.00    +0.000 C 
ATOM     13  N   UNL     1       5.411   4.735  18.103  0.00  0.00    +0.000 N 
ENDBRANCH   1  13
BRANCH   3  14
ATOM     14  C   UNL     1       1.895   7.461  20.268  0.00  0.00    +0.000 C 
ATOM     15  O   UNL     1       1.470   7.721  21.393  0.00  0.00    +0.000 OA
ATOM     16  N   UNL     1       1.843   8.312  19.169  0.00  0.00    +0.000 N 
ATOM     17  H   UNL     1       2.146   8.010  18.249  0.00  0.00    +0.000 HD
BRANCH  16  18
ATOM     18  N   UNL     1       1.273   9.548  19.308  0.00  0.00    +0.000 NA
ATOM     19  C   UNL     1       0.473   9.938  18.368  0.00  0.00    +0.000 C 
BRANCH  19  20
ATOM     20  C   UNL     1      -0.081  11.279  18.423  0.00  0.00    +0.000 A 
ATOM     21  C   UNL     1      -1.422  11.582  18.575  0.00  0.00    +0.000 A 
ATOM     22  N   UNL     1      -1.539  12.923  18.814  0.00  0.00    +0.000 N 
ATOM     23  C   UNL     1      -0.287  13.482  18.918  0.00  0.00    +0.000 A 
ATOM     24  C   UNL     1       0.112  14.726  19.413  0.00  0.00    +0.000 A 
ATOM     25  C   UNL     1       1.476  15.006  19.379  0.00  0.00    +0.000 A 
ATOM     26  F   UNL     1       1.935  16.083  20.031  0.00  0.00    +0.000 F 
ATOM     27  C   UNL     1       2.378  14.176  18.727  0.00  0.00    +0.000 A 
ATOM     28  C   UNL     1       1.968  12.917  18.273  0.00  0.00    +0.000 A 
ATOM     29  C   UNL     1       0.625  12.524  18.462  0.00  0.00    +0.000 A 
ATOM     30  H   UNL     1      -2.408  13.409  18.993  0.00  0.00    +0.000 HD
ENDBRANCH  19  20
ENDBRANCH  16  18
ENDBRANCH   3  14
BRANCH   6  31
ATOM     31  C   UNL     1       4.305   2.248  19.737  0.00  0.00    +0.000 C 
ATOM     32  O   UNL     1       5.062   1.946  20.649  0.00  0.00    +0.000 OA
BRANCH  31  33
ATOM     33  O   UNL     1       4.077   1.433  18.693  0.00  0.00    +0.000 OA
ATOM     34  H   UNL     1       3.310   1.650  18.133  0.00  0.00    +0.000 HD
ENDBRANCH  31  33
ENDBRANCH   6  31
TORSDOF 6
ENDMDL
MODEL 7
REMARK VINA RESULT:      -8.5      1.777      2.037
REMARK  Name = 
REMARK  8 active torsions:
REMARK  status: ('A' for Active; 'I' for Inactive)
REMARK    1  A    between atoms: C_1  and  C_2
REMARK    2  A    between atoms: C_5  and  C_6
REMARK    3  A    between atoms: N_7  and  C_8
REMARK    4  A    between atoms: C_10  and  C_11
REMARK    5  A    between atoms: N_13  and  N_14
REMARK    6  A    between atoms: C_15  and  C_16
REMARK    7  A    between atoms: C_28  and  C_29
REMARK    8  A    between atoms: C_29  and  O_31
REMARK                            x       y       z     vdW  Elec       q    Type
REMARK                         _______ _______ _______ _____ _____    ______ ____
ROOT
ATOM      1  C   UNL     1       4.229   4.711  18.916  0.00  0.00    +0.000 A 
ATOM      2  C   UNL     1       3.557   5.940  19.122  0.00  0.00    +0.000 A 
ATOM      3  C   UNL     1       2.442   6.076  19.972  0.00  0.00    +0.000 A 
ATOM      4  C   UNL     1       1.872   4.934  20.520  0.00  0.00    +0.000 A 
ATOM      5  C   UNL     1       2.493   3.702  20.309  0.00  0.00    +0.000 A 
ATOM      6  C   UNL     1       3.695   3.581  19.569  0.00  0.00    +0.000 A 
ENDROOT
BRANCH   1  13
ATOM      7  C   UNL     1       7.184   5.589  19.712  0.00  0.00    +0.000 C 
ATOM      8  C   UNL     1       6.693   5.110  18.381  0.00  0.00    +0.000 A 
ATOM      9  C   UNL     1       7.515   4.942  17.284  0.00  0.00    +0.000 A 
ATOM     10  C   UNL     1       6.745   4.417  16.247  0.00  0.00    +0.000 A 
ATOM     11  C   UNL     1       5.440   4.315  16.689  0.00  0.00    +0.000 A 
ATOM     12  C   UNL     1       4.296   3.973  15.792  0.00  0.00    +0.000 C 
ATOM     13  N   UNL     1       5.383   4.704  18.039  0.00  0.00    +0.000 N 
ENDBRANCH   1  13
BRANCH   3  14
ATOM     14  C   UNL     1       1.892   7.442  20.228  0.00  0.00    +0.000 C 
ATOM     15  O   UNL     1       1.445   7.694  21.347  0.00  0.00    +0.000 OA
ATOM     16  N   UNL     1       1.871   8.306  19.138  0.00  0.00    +0.000 N 
ATOM     17  H   UNL     1       2.193   8.011  18.221  0.00  0.00    +0.000 HD
BRANCH  16  18
ATOM     18  N   UNL     1       1.309   9.545  19.278  0.00  0.00    +0.000 NA
ATOM     19  C   UNL     1       0.509   9.939  18.340  0.00  0.00    +0.000 C 
BRANCH  19  20
ATOM     20  C   UNL     1      -0.037  11.282  18.396  0.00  0.00    +0.000 A 
ATOM     21  C   UNL     1      -1.377  11.594  18.544  0.00  0.00    +0.000 A 
ATOM     22  N   UNL     1      -1.487  12.935  18.786  0.00  0.00    +0.000 N 
ATOM     23  C   UNL     1      -0.231  13.486  18.895  0.00  0.00    +0.000 A 
ATOM     24  C   UNL     1       0.173  14.726  19.394  0.00  0.00    +0.000 A 
ATOM     25  C   UNL     1       1.538  14.998  19.366  0.00  0.00    +0.000 A 
ATOM     26  F   UNL     1       2.002  16.071  20.021  0.00  0.00    +0.000 F 
ATOM     27  C   UNL     1       2.438  14.164  18.715  0.00  0.00    +0.000 A 
ATOM     28  C   UNL     1       2.022  12.909  18.257  0.00  0.00    +0.000 A 
ATOM     29  C   UNL     1       0.677  12.524  18.440  0.00  0.00    +0.000 A 
ATOM     30  H   UNL     1      -2.353  13.426  18.963  0.00  0.00    +0.000 HD
ENDBRANCH  19  20
ENDBRANCH  16  18
ENDBRANCH   3  14
BRANCH   6  31
ATOM     31  C   UNL     1       4.283   2.221  19.685  0.00  0.00    +0.000 C 
ATOM     32  O   UNL     1       5.031   1.912  20.602  0.00  0.00    +0.000 OA
BRANCH  31  33
ATOM     33  O   UNL     1       4.063   1.414  18.634  0.00  0.00    +0.000 OA
ATOM     34  H   UNL     1       4.695   1.479  17.896  0.00  0.00    +0.000 HD
ENDBRANCH  31  33
ENDBRANCH   6  31
TORSDOF 6
ENDMDL
MODEL 8
REMARK VINA RESULT:      -8.5      1.688      2.282
REMARK  Name = 
REMARK  8 active torsions:
REMARK  status: ('A' for Active; 'I' for Inactive)
REMARK    1  A    between atoms: C_1  and  C_2
REMARK    2  A    between atoms: C_5  and  C_6
REMARK    3  A    between atoms: N_7  and  C_8
REMARK    4  A    between atoms: C_10  and  C_11
REMARK    5  A    between atoms: N_13  and  N_14
REMARK    6  A    between atoms: C_15  and  C_16
REMARK    7  A    between atoms: C_28  and  C_29
REMARK    8  A    between atoms: C_29  and  O_31
REMARK                            x       y       z     vdW  Elec       q    Type
REMARK                         _______ _______ _______ _____ _____    ______ ____
ROOT
ATOM      1  C   UNL     1       4.214   4.755  18.698  0.00  0.00    +0.000 A 
ATOM      2  C   UNL     1       3.597   5.996  18.984  0.00  0.00    +0.000 A 
ATOM      3  C   UNL     1       2.437   6.116  19.776  0.00  0.00    +0.000 A 
ATOM      4  C   UNL     1       1.774   4.963  20.174  0.00  0.00    +0.000 A 
ATOM      5  C   UNL     1       2.340   3.722  19.880  0.00  0.00    +0.000 A 
ATOM      6  C   UNL     1       3.580   3.601  19.204  0.00  0.00    +0.000 A 
ENDROOT
BRANCH   1  13
ATOM      7  C   UNL     1       7.128   5.539  19.712  0.00  0.00    +0.000 C 
ATOM      8  C   UNL     1       6.713   5.128  18.333  0.00  0.00    +0.000 A 
ATOM      9  C   UNL     1       7.598   4.991  17.282  0.00  0.00    +0.000 A 
ATOM     10  C   UNL     1       6.886   4.526  16.178  0.00  0.00    +0.000 A 
ATOM     11  C   UNL     1       5.554   4.431  16.534  0.00  0.00    +0.000 A 
ATOM     12  C   UNL     1       4.462   4.150  15.554  0.00  0.00    +0.000 C 
ATOM     13  N   UNL     1       5.420   4.762  17.894  0.00  0.00    +0.000 N 
ENDBRANCH   1  13
BRANCH   3  14
ATOM     14  C   UNL     1       1.945   7.482  20.132  0.00  0.00    +0.000 C 
ATOM     15  O   UNL     1       1.641   7.708  21.303  0.00  0.00    +0.000 OA
ATOM     16  N   UNL     1       1.808   8.376  19.076  0.00  0.00    +0.000 N 
ATOM     17  H   UNL     1       2.012   8.102  18.119  0.00  0.00    +0.000 HD
BRANCH  16  18
ATOM     18  N   UNL     1       1.288   9.618  19.315  0.00  0.00    +0.000 NA
ATOM     19  C   UNL     1      -0.002   9.728  19.309  0.00  0.00    +0.000 C 
BRANCH  19  20
ATOM     20  C   UNL     1      -0.599  11.042  19.464  0.00  0.00    +0.000 A 
ATOM     21  C   UNL     1      -0.926  11.898  18.426  0.00  0.00    +0.000 A 
ATOM     22  N   UNL     1      -1.669  12.927  18.931  0.00  0.00    +0.000 N 
ATOM     23  C   UNL     1      -1.915  12.705  20.266  0.00  0.00    +0.000 A 
ATOM     24  C   UNL     1      -2.829  13.310  21.132  0.00  0.00    +0.000 A 
ATOM     25  C   UNL     1      -2.834  12.862  22.450  0.00  0.00    +0.000 A 
ATOM     26  F   UNL     1      -3.826  13.249  23.265  0.00  0.00    +0.000 F 
ATOM     27  C   UNL     1      -1.867  11.990  22.931  0.00  0.00    +0.000 A 
ATOM     28  C   UNL     1      -0.985  11.365  22.043  0.00  0.00    +0.000 A 
ATOM     29  C   UNL     1      -1.078  11.658  20.665  0.00  0.00    +0.000 A 
ATOM     30  H   UNL     1      -2.067  13.680  18.386  0.00  0.00    +0.000 HD
ENDBRANCH  19  20
ENDBRANCH  16  18
ENDBRANCH   3  14
BRANCH   6  31
ATOM     31  C   UNL     1       4.087   2.204  19.220  0.00  0.00    +0.000 C 
ATOM     32  O   UNL     1       3.554   1.312  18.575  0.00  0.00    +0.000 OA
BRANCH  31  33
ATOM     33  O   UNL     1       5.065   1.963  20.109  0.00  0.00    +0.000 OA
ATOM     34  H   UNL     1       5.934   1.720  19.744  0.00  0.00    +0.000 HD
ENDBRANCH  31  33
ENDBRANCH   6  31
TORSDOF 6
ENDMDL
MODEL 9
REMARK VINA RESULT:      -8.4      1.650      2.673
REMARK  Name = 
REMARK  8 active torsions:
REMARK  status: ('A' for Active; 'I' for Inactive)
REMARK    1  A    between atoms: C_1  and  C_2
REMARK    2  A    between atoms: C_5  and  C_6
REMARK    3  A    between atoms: N_7  and  C_8
REMARK    4  A    between atoms: C_10  and  C_11
REMARK    5  A    between atoms: N_13  and  N_14
REMARK    6  A    between atoms: C_15  and  C_16
REMARK    7  A    between atoms: C_28  and  C_29
REMARK    8  A    between atoms: C_29  and  O_31
REMARK                            x       y       z     vdW  Elec       q    Type
REMARK                         _______ _______ _______ _____ _____    ______ ____
ROOT
ATOM      1  C   UNL     1       4.182   4.789  18.754  0.00  0.00    +0.000 A 
ATOM      2  C   UNL     1       3.550   6.021  19.050  0.00  0.00    +0.000 A 
ATOM      3  C   UNL     1       2.396   6.123  19.851  0.00  0.00    +0.000 A 
ATOM      4  C   UNL     1       1.752   4.959  20.252  0.00  0.00    +0.000 A 
ATOM      5  C   UNL     1       2.333   3.727  19.949  0.00  0.00    +0.000 A 
ATOM      6  C   UNL     1       3.569   3.625  19.262  0.00  0.00    +0.000 A 
ENDROOT
BRANCH   1  13
ATOM      7  C   UNL     1       4.380   3.931  15.695  0.00  0.00    +0.000 C 
ATOM      8  C   UNL     1       5.479   4.418  16.587  0.00  0.00    +0.000 A 
ATOM      9  C   UNL     1       6.779   4.604  16.159  0.00  0.00    +0.000 A 
ATOM     10  C   UNL     1       7.510   5.132  17.221  0.00  0.00    +0.000 A 
ATOM     11  C   UNL     1       6.674   5.218  18.319  0.00  0.00    +0.000 A 
ATOM     12  C   UNL     1       7.156   5.559  19.690  0.00  0.00    +0.000 C 
ATOM     13  N   UNL     1       5.381   4.816  17.940  0.00  0.00    +0.000 N 
ENDBRANCH   1  13
BRANCH   3  14
ATOM     14  C   UNL     1       1.889   7.481  20.216  0.00  0.00    +0.000 C 
ATOM     15  O   UNL     1       1.520   7.677  21.374  0.00  0.00    +0.000 OA
ATOM     16  N   UNL     1       1.812   8.403  19.178  0.00  0.00    +0.000 N 
ATOM     17  H   UNL     1       2.068   8.154  18.227  0.00  0.00    +0.000 HD
BRANCH  16  18
ATOM     18  N   UNL     1       1.283   9.640  19.421  0.00  0.00    +0.000 NA
ATOM     19  C   UNL     1       0.014   9.790  19.211  0.00  0.00    +0.000 C 
BRANCH  19  20
ATOM     20  C   UNL     1      -0.576  11.107  19.364  0.00  0.00    +0.000 A 
ATOM     21  C   UNL     1      -1.064  11.888  18.331  0.00  0.00    +0.000 A 
ATOM     22  N   UNL     1      -1.743  12.944  18.869  0.00  0.00    +0.000 N 
ATOM     23  C   UNL     1      -1.789  12.812  20.237  0.00  0.00    +0.000 A 
ATOM     24  C   UNL     1      -2.578  13.468  21.186  0.00  0.00    +0.000 A 
ATOM     25  C   UNL     1      -2.384  13.111  22.517  0.00  0.00    +0.000 A 
ATOM     26  F   UNL     1      -3.253  13.546  23.441  0.00  0.00    +0.000 F 
ATOM     27  C   UNL     1      -1.342  12.281  22.909  0.00  0.00    +0.000 A 
ATOM     28  C   UNL     1      -0.588  11.602  21.945  0.00  0.00    +0.000 A 
ATOM     29  C   UNL     1      -0.885  11.801  20.579  0.00  0.00    +0.000 A 
ATOM     30  H   UNL     1      -2.229  13.656  18.339  0.00  0.00    +0.000 HD
ENDBRANCH  19  20
ENDBRANCH  16  18
ENDBRANCH   3  14
BRANCH   6  31
ATOM     31  C   UNL     1       4.095   2.236  19.270  0.00  0.00    +0.000 C 
ATOM     32  O   UNL     1       3.561   1.335  18.638  0.00  0.00    +0.000 OA
BRANCH  31  33
ATOM     33  O   UNL     1       5.095   2.010  20.138  0.00  0.00    +0.000 OA
ATOM     34  H   UNL     1       4.990   1.246  20.733  0.00  0.00    +0.000 HD
ENDBRANCH  31  33
ENDBRANCH   6  31
TORSDOF 6
ENDMDL
