MODEL 1
REMARK VINA RESULT:      -7.4      0.000      0.000
REMARK  Name = 
REMARK  8 active torsions:
REMARK  status: ('A' for Active; 'I' for Inactive)
REMARK    1  A    between atoms: C_1  and  C_2
REMARK    2  A    between atoms: C_8  and  O_9
REMARK    3  A    between atoms: O_9  and  C_10
REMARK    4  A    between atoms: C_10  and  C_11
REMARK    5  A    between atoms: C_16  and  C_17
REMARK    6  A    between atoms: C_17  and  C_18
REMARK    7  A    between atoms: C_17  and  C_19
REMARK    8  A    between atoms: C_17  and  C_20
REMARK                            x       y       z     vdW  Elec       q    Type
REMARK                         _______ _______ _______ _____ _____    ______ ____
ROOT
ATOM      1  C   UNL     1       3.047   5.518  18.750  0.00  0.00    +0.000 A 
ATOM      2  N   UNL     1       2.833   6.595  18.047  0.00  0.00    +0.000 NA
ATOM      3  N   UNL     1       2.183   7.535  18.869  0.00  0.00    +0.000 N 
ATOM      4  C   UNL     1       1.811   8.809  18.468  0.00  0.00    +0.000 A 
ATOM      5  O   UNL     1       1.980   9.303  17.365  0.00  0.00    +0.000 OA
ATOM      6  C   UNL     1       1.120   9.611  19.608  0.00  0.00    +0.000 A 
ATOM      7  N   UNL     1       0.924   9.086  20.782  0.00  0.00    +0.000 NA
ATOM      8  N   UNL     1       1.321   7.801  21.057  0.00  0.00    +0.000 NA
ATOM      9  C   UNL     1       1.916   7.122  20.134  0.00  0.00    +0.000 A 
ATOM     10  S   UNL     1       2.465   5.517  20.401  0.00  0.00    +0.000 S 
ENDROOT
BRANCH   6  11
ATOM     11  C   UNL     1       0.650  11.070  19.378  0.00  0.00    +0.000 C 
ATOM     12  C   UNL     1       1.744  11.906  18.705  0.00  0.00    +0.000 C 
ATOM     13  C   UNL     1      -0.624  11.087  18.491  0.00  0.00    +0.000 C 
ATOM     14  C   UNL     1       0.279  11.730  20.711  0.00  0.00    +0.000 C 
ENDBRANCH   6  11
BRANCH   1  15
ATOM     15  C   UNL     1       3.644   4.172  18.308  0.00  0.00    +0.000 C 
BRANCH  15  16
ATOM     16  O   UNL     1       5.034   3.935  18.305  0.00  0.00    +0.000 OA
BRANCH  16  24
ATOM     17  C   UNL     1       7.481   6.034  18.208  0.00  0.00    +0.000 C 
ATOM     18  C   UNL     1       6.850   5.244  17.091  0.00  0.00    +0.000 A 
ATOM     19  C   UNL     1       7.425   5.471  15.814  0.00  0.00    +0.000 A 
ATOM     20  C   UNL     1       6.939   4.849  14.670  0.00  0.00    +0.000 A 
ATOM     21 CL   UNL     1       7.665   5.168  13.144  0.00  0.00    +0.000 Cl
ATOM     22  C   UNL     1       5.864   3.980  14.766  0.00  0.00    +0.000 A 
ATOM     23  C   UNL     1       5.289   3.732  16.017  0.00  0.00    +0.000 A 
ATOM     24  C   UNL     1       5.761   4.343  17.195  0.00  0.00    +0.000 A 
ENDBRANCH  16  24
ENDBRANCH  15  16
ENDBRANCH   1  15
TORSDOF 4
ENDMDL
MODEL 2
REMARK VINA RESULT:      -7.1      4.788      6.927
REMARK  Name = 
REMARK  8 active torsions:
REMARK  status: ('A' for Active; 'I' for Inactive)
REMARK    1  A    between atoms: C_1  and  C_2
REMARK    2  A    between atoms: C_8  and  O_9
REMARK    3  A    between atoms: O_9  and  C_10
REMARK    4  A    between atoms: C_10  and  C_11
REMARK    5  A    between atoms: C_16  and  C_17
REMARK    6  A    between atoms: C_17  and  C_18
REMARK    7  A    between atoms: C_17  and  C_19
REMARK    8  A    between atoms: C_17  and  C_20
REMARK                            x       y       z     vdW  Elec       q    Type
REMARK                         _______ _______ _______ _____ _____    ______ ____
ROOT
ATOM      1  C   UNL     1       6.894   7.137  18.043  0.00  0.00    +0.000 A 
ATOM      2  N   UNL     1       5.608   7.138  17.829  0.00  0.00    +0.000 NA
ATOM      3  N   UNL     1       5.084   5.916  18.290  0.00  0.00    +0.000 N 
ATOM      4  C   UNL     1       3.743   5.566  18.244  0.00  0.00    +0.000 A 
ATOM      5  O   UNL     1       2.829   6.244  17.804  0.00  0.00    +0.000 OA
ATOM      6  C   UNL     1       3.479   4.152  18.838  0.00  0.00    +0.000 A 
ATOM      7  N   UNL     1       4.450   3.419  19.296  0.00  0.00    +0.000 NA
ATOM      8  N   UNL     1       5.748   3.867  19.270  0.00  0.00    +0.000 NA
ATOM      9  C   UNL     1       5.990   5.046  18.802  0.00  0.00    +0.000 A 
ATOM     10  S   UNL     1       7.580   5.692  18.754  0.00  0.00    +0.000 S 
ENDROOT
BRANCH   6  11
ATOM     11  C   UNL     1       2.040   3.579  18.908  0.00  0.00    +0.000 C 
ATOM     12  C   UNL     1       1.263   3.874  17.620  0.00  0.00    +0.000 C 
ATOM     13  C   UNL     1       2.087   2.045  19.136  0.00  0.00    +0.000 C 
ATOM     14  C   UNL     1       1.279   4.187  20.091  0.00  0.00    +0.000 C 
ENDBRANCH   6  11
BRANCH   1  15
ATOM     15  C   UNL     1       7.945   8.188  17.651  0.00  0.00    +0.000 C 
BRANCH  15  16
ATOM     16  O   UNL     1       7.614   9.548  17.476  0.00  0.00    +0.000 OA
BRANCH  16  24
ATOM     17  C   UNL     1       7.662  12.730  16.955  0.00  0.00    +0.000 C 
ATOM     18  C   UNL     1       8.477  11.903  17.916  0.00  0.00    +0.000 A 
ATOM     19  C   UNL     1       9.399  12.647  18.695  0.00  0.00    +0.000 A 
ATOM     20  C   UNL     1      10.253  12.034  19.604  0.00  0.00    +0.000 A 
ATOM     21 CL   UNL     1      11.362  12.982  20.516  0.00  0.00    +0.000 Cl
ATOM     22  C   UNL     1      10.211  10.659  19.764  0.00  0.00    +0.000 A 
ATOM     23  C   UNL     1       9.300   9.906  19.015  0.00  0.00    +0.000 A 
ATOM     24  C   UNL     1       8.419  10.497  18.089  0.00  0.00    +0.000 A 
ENDBRANCH  16  24
ENDBRANCH  15  16
ENDBRANCH   1  15
TORSDOF 4
ENDMDL
MODEL 3
REMARK VINA RESULT:      -7.1      1.530      2.311
REMARK  Name = 
REMARK  8 active torsions:
REMARK  status: ('A' for Active; 'I' for Inactive)
REMARK    1  A    between atoms: C_1  and  C_2
REMARK    2  A    between atoms: C_8  and  O_9
REMARK    3  A    between atoms: O_9  and  C_10
REMARK    4  A    between atoms: C_10  and  C_11
REMARK    5  A    between atoms: C_16  and  C_17
REMARK    6  A    between atoms: C_17  and  C_18
REMARK    7  A    between atoms: C_17  and  C_19
REMARK    8  A    between atoms: C_17  and  C_20
REMARK                            x       y       z     vdW  Elec       q    Type
REMARK                         _______ _______ _______ _____ _____    ______ ____
ROOT
ATOM      1  C   UNL     1       3.012   5.120  18.567  0.00  0.00    +0.000 A 
ATOM      2  N   UNL     1       2.800   6.210  17.885  0.00  0.00    +0.000 NA
ATOM      3  N   UNL     1       2.228   7.164  18.748  0.00  0.00    +0.000 N 
ATOM      4  C   UNL     1       1.881   8.455  18.378  0.00  0.00    +0.000 A 
ATOM      5  O   UNL     1       2.010   8.954  17.272  0.00  0.00    +0.000 OA
ATOM      6  C   UNL     1       1.279   9.269  19.559  0.00  0.00    +0.000 A 
ATOM      7  N   UNL     1       1.126   8.739  20.737  0.00  0.00    +0.000 NA
ATOM      8  N   UNL     1       1.491   7.437  20.980  0.00  0.00    +0.000 NA
ATOM      9  C   UNL     1       2.012   6.748  20.021  0.00  0.00    +0.000 A 
ATOM     10  S   UNL     1       2.516   5.122  20.246  0.00  0.00    +0.000 S 
ENDROOT
BRANCH   6  11
ATOM     11  C   UNL     1       0.850  10.746  19.366  0.00  0.00    +0.000 C 
ATOM     12  C   UNL     1       0.656  11.448  20.714  0.00  0.00    +0.000 C 
ATOM     13  C   UNL     1       1.919  11.510  18.541  0.00  0.00    +0.000 C 
ATOM     14  C   UNL     1      -0.464  10.822  18.580  0.00  0.00    +0.000 C 
ENDBRANCH   6  11
BRANCH   1  15
ATOM     15  C   UNL     1       3.536   3.758  18.082  0.00  0.00    +0.000 C 
BRANCH  15  16
ATOM     16  O   UNL     1       4.849   3.594  17.591  0.00  0.00    +0.000 OA
BRANCH  16  24
ATOM     17  C   UNL     1       5.493   5.680  15.217  0.00  0.00    +0.000 C 
ATOM     18  C   UNL     1       6.010   5.647  16.632  0.00  0.00    +0.000 A 
ATOM     19  C   UNL     1       6.916   6.691  16.950  0.00  0.00    +0.000 A 
ATOM     20  C   UNL     1       7.514   6.786  18.202  0.00  0.00    +0.000 A 
ATOM     21 CL   UNL     1       8.616   8.066  18.532  0.00  0.00    +0.000 Cl
ATOM     22  C   UNL     1       7.225   5.844  19.174  0.00  0.00    +0.000 A 
ATOM     23  C   UNL     1       6.324   4.812  18.886  0.00  0.00    +0.000 A 
ATOM     24  C   UNL     1       5.699   4.689  17.630  0.00  0.00    +0.000 A 
ENDBRANCH  16  24
ENDBRANCH  15  16
ENDBRANCH   1  15
TORSDOF 4
ENDMDL
MODEL 4
REMARK VINA RESULT:      -7.0      4.177      5.326
REMARK  Name = 
REMARK  8 active torsions:
REMARK  status: ('A' for Active; 'I' for Inactive)
REMARK    1  A    between atoms: C_1  and  C_2
REMARK    2  A    between atoms: C_8  and  O_9
REMARK    3  A    between atoms: O_9  and  C_10
REMARK    4  A    between atoms: C_10  and  C_11
REMARK    5  A    between atoms: C_16  and  C_17
REMARK    6  A    between atoms: C_17  and  C_18
REMARK    7  A    between atoms: C_17  and  C_19
REMARK    8  A    between atoms: C_17  and  C_20
REMARK                            x       y       z     vdW  Elec       q    Type
REMARK                         _______ _______ _______ _____ _____    ______ ____
ROOT
ATOM      1  C   UNL     1       5.931   5.784  17.010  0.00  0.00    +0.000 A 
ATOM      2  N   UNL     1       4.630   5.795  17.086  0.00  0.00    +0.000 NA
ATOM      3  N   UNL     1       4.240   4.902  18.101  0.00  0.00    +0.000 N 
ATOM      4  C   UNL     1       2.928   4.664  18.482  0.00  0.00    +0.000 A 
ATOM      5  O   UNL     1       1.929   5.176  18.005  0.00  0.00    +0.000 OA
ATOM      6  C   UNL     1       2.825   3.630  19.640  0.00  0.00    +0.000 A 
ATOM      7  N   UNL     1       3.885   3.071  20.144  0.00  0.00    +0.000 NA
ATOM      8  N   UNL     1       5.138   3.373  19.669  0.00  0.00    +0.000 NA
ATOM      9  C   UNL     1       5.252   4.244  18.723  0.00  0.00    +0.000 A 
ATOM     10  S   UNL     1       6.781   4.697  18.087  0.00  0.00    +0.000 S 
ENDROOT
BRANCH   6  11
ATOM     11  C   UNL     1       1.447   3.241  20.233  0.00  0.00    +0.000 C 
ATOM     12  C   UNL     1       0.602   4.484  20.534  0.00  0.00    +0.000 C 
ATOM     13  C   UNL     1       0.677   2.327  19.244  0.00  0.00    +0.000 C 
ATOM     14  C   UNL     1       1.629   2.447  21.532  0.00  0.00    +0.000 C 
ENDBRANCH   6  11
BRANCH   1  15
ATOM     15  C   UNL     1       6.853   6.509  16.015  0.00  0.00    +0.000 C 
BRANCH  15  16
ATOM     16  O   UNL     1       7.783   5.813  15.215  0.00  0.00    +0.000 OA
BRANCH  16  24
ATOM     17  C   UNL     1       8.554   6.104  12.097  0.00  0.00    +0.000 C 
ATOM     18  C   UNL     1       7.607   5.141  12.766  0.00  0.00    +0.000 A 
ATOM     19  C   UNL     1       6.964   4.240  11.879  0.00  0.00    +0.000 A 
ATOM     20  C   UNL     1       6.032   3.310  12.327  0.00  0.00    +0.000 A 
ATOM     21 CL   UNL     1       5.272   2.248  11.208  0.00  0.00    +0.000 Cl
ATOM     22  C   UNL     1       5.715   3.251  13.674  0.00  0.00    +0.000 A 
ATOM     23  C   UNL     1       6.347   4.123  14.569  0.00  0.00    +0.000 A 
ATOM     24  C   UNL     1       7.297   5.073  14.147  0.00  0.00    +0.000 A 
ENDBRANCH  16  24
ENDBRANCH  15  16
ENDBRANCH   1  15
TORSDOF 4
ENDMDL
MODEL 5
REMARK VINA RESULT:      -7.0      2.637      4.027
REMARK  Name = 
REMARK  8 active torsions:
REMARK  status: ('A' for Active; 'I' for Inactive)
REMARK    1  A    between atoms: C_1  and  C_2
REMARK    2  A    between atoms: C_8  and  O_9
REMARK    3  A    between atoms: O_9  and  C_10
REMARK    4  A    between atoms: C_10  and  C_11
REMARK    5  A    between atoms: C_16  and  C_17
REMARK    6  A    between atoms: C_17  and  C_18
REMARK    7  A    between atoms: C_17  and  C_19
REMARK    8  A    between atoms: C_17  and  C_20
REMARK                            x       y       z     vdW  Elec       q    Type
REMARK                         _______ _______ _______ _____ _____    ______ ____
ROOT
ATOM      1  C   UNL     1       1.623   8.348  19.874  0.00  0.00    +0.000 A 
ATOM      2  N   UNL     1       1.228   8.798  21.032  0.00  0.00    +0.000 NA
ATOM      3  N   UNL     1       0.440   9.944  20.814  0.00  0.00    +0.000 N 
ATOM      4  C   UNL     1      -0.170  10.684  21.815  0.00  0.00    +0.000 A 
ATOM      5  O   UNL     1      -0.118  10.467  23.014  0.00  0.00    +0.000 OA
ATOM      6  C   UNL     1      -0.979  11.888  21.253  0.00  0.00    +0.000 A 
ATOM      7  N   UNL     1      -1.028  12.134  19.977  0.00  0.00    +0.000 NA
ATOM      8  N   UNL     1      -0.363  11.337  19.077  0.00  0.00    +0.000 NA
ATOM      9  C   UNL     1       0.298  10.319  19.517  0.00  0.00    +0.000 A 
ATOM     10  S   UNL     1       1.138   9.259  18.460  0.00  0.00    +0.000 S 
ENDROOT
BRANCH   6  11
ATOM     11  C   UNL     1      -1.762  12.830  22.204  0.00  0.00    +0.000 C 
ATOM     12  C   UNL     1      -2.613  12.032  23.197  0.00  0.00    +0.000 C 
ATOM     13  C   UNL     1      -0.777  13.736  22.988  0.00  0.00    +0.000 C 
ATOM     14  C   UNL     1      -2.683  13.756  21.402  0.00  0.00    +0.000 C 
ENDBRANCH   6  11
BRANCH   1  15
ATOM     15  C   UNL     1       2.570   7.179  19.558  0.00  0.00    +0.000 C 
BRANCH  15  16
ATOM     16  O   UNL     1       2.249   6.197  18.597  0.00  0.00    +0.000 OA
BRANCH  16  24
ATOM     17  C   UNL     1       2.696   3.158  17.612  0.00  0.00    +0.000 C 
ATOM     18  C   UNL     1       3.517   4.389  17.329  0.00  0.00    +0.000 A 
ATOM     19  C   UNL     1       4.653   4.161  16.511  0.00  0.00    +0.000 A 
ATOM     20  C   UNL     1       5.538   5.182  16.183  0.00  0.00    +0.000 A 
ATOM     21 CL   UNL     1       6.908   4.849  15.197  0.00  0.00    +0.000 Cl
ATOM     22  C   UNL     1       5.315   6.462  16.661  0.00  0.00    +0.000 A 
ATOM     23  C   UNL     1       4.193   6.714  17.459  0.00  0.00    +0.000 A 
ATOM     24  C   UNL     1       3.276   5.702  17.806  0.00  0.00    +0.000 A 
ENDBRANCH  16  24
ENDBRANCH  15  16
ENDBRANCH   1  15
TORSDOF 4
ENDMDL
MODEL 6
REMARK VINA RESULT:      -7.0      1.791      2.370
REMARK  Name = 
REMARK  8 active torsions:
REMARK  status: ('A' for Active; 'I' for Inactive)
REMARK    1  A    between atoms: C_1  and  C_2
REMARK    2  A    between atoms: C_8  and  O_9
REMARK    3  A    between atoms: O_9  and  C_10
REMARK    4  A    between atoms: C_10  and  C_11
REMARK    5  A    between atoms: C_16  and  C_17
REMARK    6  A    between atoms: C_17  and  C_18
REMARK    7  A    between atoms: C_17  and  C_19
REMARK    8  A    between atoms: C_17  and  C_20
REMARK                            x       y       z     vdW  Elec       q    Type
REMARK                         _______ _______ _______ _____ _____    ______ ____
ROOT
ATOM      1  C   UNL     1       2.620   6.760  19.409  0.00  0.00    +0.000 A 
ATOM      2  N   UNL     1       1.912   7.443  20.264  0.00  0.00    +0.000 NA
ATOM      3  N   UNL     1       1.576   8.675  19.672  0.00  0.00    +0.000 N 
ATOM      4  C   UNL     1       0.810   9.659  20.279  0.00  0.00    +0.000 A 
ATOM      5  O   UNL     1       0.322   9.615  21.396  0.00  0.00    +0.000 OA
ATOM      6  C   UNL     1       0.607  10.901  19.364  0.00  0.00    +0.000 A 
ATOM      7  N   UNL     1       1.136  10.961  18.178  0.00  0.00    +0.000 NA
ATOM      8  N   UNL     1       1.896   9.927  17.689  0.00  0.00    +0.000 NA
ATOM      9  C   UNL     1       2.062   8.876  18.421  0.00  0.00    +0.000 A 
ATOM     10  S   UNL     1       2.978   7.529  17.877  0.00  0.00    +0.000 S 
ENDROOT
BRANCH   6  11
ATOM     11  C   UNL     1      -0.243  12.106  19.842  0.00  0.00    +0.000 C 
ATOM     12  C   UNL     1      -1.721  11.724  19.973  0.00  0.00    +0.000 C 
ATOM     13  C   UNL     1       0.276  12.617  21.212  0.00  0.00    +0.000 C 
ATOM     14  C   UNL     1      -0.123  13.271  18.853  0.00  0.00    +0.000 C 
ENDBRANCH   6  11
BRANCH   1  15
ATOM     15  C   UNL     1       3.306   5.395  19.586  0.00  0.00    +0.000 C 
BRANCH  15  16
ATOM     16  O   UNL     1       4.709   5.254  19.552  0.00  0.00    +0.000 OA
BRANCH  16  24
ATOM     17  C   UNL     1       7.648   6.169  18.588  0.00  0.00    +0.000 C 
ATOM     18  C   UNL     1       6.595   5.386  17.846  0.00  0.00    +0.000 A 
ATOM     19  C   UNL     1       6.964   5.008  16.530  0.00  0.00    +0.000 A 
ATOM     20  C   UNL     1       6.096   4.313  15.696  0.00  0.00    +0.000 A 
ATOM     21 CL   UNL     1       6.589   3.887  14.104  0.00  0.00    +0.000 Cl
ATOM     22  C   UNL     1       4.833   3.973  16.152  0.00  0.00    +0.000 A 
ATOM     23  C   UNL     1       4.452   4.326  17.452  0.00  0.00    +0.000 A 
ATOM     24  C   UNL     1       5.309   5.027  18.322  0.00  0.00    +0.000 A 
ENDBRANCH  16  24
ENDBRANCH  15  16
ENDBRANCH   1  15
TORSDOF 4
ENDMDL
MODEL 7
REMARK VINA RESULT:      -7.0      2.533      3.904
REMARK  Name = 
REMARK  8 active torsions:
REMARK  status: ('A' for Active; 'I' for Inactive)
REMARK    1  A    between atoms: C_1  and  C_2
REMARK    2  A    between atoms: C_8  and  O_9
REMARK    3  A    between atoms: O_9  and  C_10
REMARK    4  A    between atoms: C_10  and  C_11
REMARK    5  A    between atoms: C_16  and  C_17
REMARK    6  A    between atoms: C_17  and  C_18
REMARK    7  A    between atoms: C_17  and  C_19
REMARK    8  A    between atoms: C_17  and  C_20
REMARK                            x       y       z     vdW  Elec       q    Type
REMARK                         _______ _______ _______ _____ _____    ______ ____
ROOT
ATOM      1  C   UNL     1       1.486   8.851  19.619  0.00  0.00    +0.000 A 
ATOM      2  N   UNL     1       0.834   9.964  19.435  0.00  0.00    +0.000 NA
ATOM      3  N   UNL     1       0.176  10.292  20.635  0.00  0.00    +0.000 N 
ATOM      4  C   UNL     1      -0.604  11.423  20.825  0.00  0.00    +0.000 A 
ATOM      5  O   UNL     1      -0.840  12.290  19.999  0.00  0.00    +0.000 OA
ATOM      6  C   UNL     1      -1.188  11.507  22.264  0.00  0.00    +0.000 A 
ATOM      7  N   UNL     1      -0.952  10.579  23.145  0.00  0.00    +0.000 NA
ATOM      8  N   UNL     1      -0.177   9.489  22.834  0.00  0.00    +0.000 NA
ATOM      9  C   UNL     1       0.337   9.408  21.652  0.00  0.00    +0.000 A 
ATOM     10  S   UNL     1       1.336   8.091  21.189  0.00  0.00    +0.000 S 
ENDROOT
BRANCH   6  11
ATOM     11  C   UNL     1      -2.068  12.709  22.693  0.00  0.00    +0.000 C 
ATOM     12  C   UNL     1      -1.209  13.860  23.229  0.00  0.00    +0.000 C 
ATOM     13  C   UNL     1      -2.907  13.214  21.490  0.00  0.00    +0.000 C 
ATOM     14  C   UNL     1      -3.057  12.286  23.786  0.00  0.00    +0.000 C 
ENDBRANCH   6  11
BRANCH   1  15
ATOM     15  C   UNL     1       2.292   8.019  18.607  0.00  0.00    +0.000 C 
BRANCH  15  16
ATOM     16  O   UNL     1       2.325   6.610  18.656  0.00  0.00    +0.000 OA
BRANCH  16  24
ATOM     17  C   UNL     1       2.422   3.473  17.912  0.00  0.00    +0.000 C 
ATOM     18  C   UNL     1       3.340   4.589  17.485  0.00  0.00    +0.000 A 
ATOM     19  C   UNL     1       4.400   4.184  16.634  0.00  0.00    +0.000 A 
ATOM     20  C   UNL     1       5.358   5.082  16.178  0.00  0.00    +0.000 A 
ATOM     21 CL   UNL     1       6.631   4.536  15.157  0.00  0.00    +0.000 Cl
ATOM     22  C   UNL     1       5.286   6.413  16.555  0.00  0.00    +0.000 A 
ATOM     23  C   UNL     1       4.240   6.838  17.384  0.00  0.00    +0.000 A 
ATOM     24  C   UNL     1       3.253   5.954  17.860  0.00  0.00    +0.000 A 
ENDBRANCH  16  24
ENDBRANCH  15  16
ENDBRANCH   1  15
TORSDOF 4
ENDMDL
MODEL 8
REMARK VINA RESULT:      -6.9      2.984      4.571
REMARK  Name = 
REMARK  8 active torsions:
REMARK  status: ('A' for Active; 'I' for Inactive)
REMARK    1  A    between atoms: C_1  and  C_2
REMARK    2  A    between atoms: C_8  and  O_9
REMARK    3  A    between atoms: O_9  and  C_10
REMARK    4  A    between atoms: C_10  and  C_11
REMARK    5  A    between atoms: C_16  and  C_17
REMARK    6  A    between atoms: C_17  and  C_18
REMARK    7  A    between atoms: C_17  and  C_19
REMARK    8  A    between atoms: C_17  and  C_20
REMARK                            x       y       z     vdW  Elec       q    Type
REMARK                         _______ _______ _______ _____ _____    ______ ____
ROOT
ATOM      1  C   UNL     1       1.146   9.209  19.247  0.00  0.00    +0.000 A 
ATOM      2  N   UNL     1       0.995   9.586  20.485  0.00  0.00    +0.000 NA
ATOM      3  N   UNL     1      -0.018  10.563  20.527  0.00  0.00    +0.000 N 
ATOM      4  C   UNL     1      -0.467  11.184  21.683  0.00  0.00    +0.000 A 
ATOM      5  O   UNL     1      -0.063  10.989  22.817  0.00  0.00    +0.000 OA
ATOM      6  C   UNL     1      -1.601  12.212  21.401  0.00  0.00    +0.000 A 
ATOM      7  N   UNL     1      -2.027  12.434  20.193  0.00  0.00    +0.000 NA
ATOM      8  N   UNL     1      -1.489  11.769  19.119  0.00  0.00    +0.000 NA
ATOM      9  C   UNL     1      -0.561  10.895  19.329  0.00  0.00    +0.000 A 
ATOM     10  S   UNL     1       0.149  10.003  18.046  0.00  0.00    +0.000 S 
ENDROOT
BRANCH   6  11
ATOM     11  C   UNL     1      -2.263  12.998  22.561  0.00  0.00    +0.000 C 
ATOM     12  C   UNL     1      -3.282  14.013  22.033  0.00  0.00    +0.000 C 
ATOM     13  C   UNL     1      -2.973  12.019  23.534  0.00  0.00    +0.000 C 
ATOM     14  C   UNL     1      -1.201  13.747  23.374  0.00  0.00    +0.000 C 
ENDBRANCH   6  11
BRANCH   1  15
ATOM     15  C   UNL     1       2.173   8.234  18.646  0.00  0.00    +0.000 C 
BRANCH  15  16
ATOM     16  O   UNL     1       2.238   6.881  19.040  0.00  0.00    +0.000 OA
BRANCH  16  24
ATOM     17  C   UNL     1       1.506   3.833  18.283  0.00  0.00    +0.000 C 
ATOM     18  C   UNL     1       2.687   4.669  17.862  0.00  0.00    +0.000 A 
ATOM     19  C   UNL     1       3.605   4.002  17.011  0.00  0.00    +0.000 A 
ATOM     20  C   UNL     1       4.767   4.617  16.560  0.00  0.00    +0.000 A 
ATOM     21 CL   UNL     1       5.854   3.759  15.540  0.00  0.00    +0.000 Cl
ATOM     22  C   UNL     1       5.047   5.918  16.944  0.00  0.00    +0.000 A 
ATOM     23  C   UNL     1       4.149   6.601  17.772  0.00  0.00    +0.000 A 
ATOM     24  C   UNL     1       2.962   6.006  18.243  0.00  0.00    +0.000 A 
ENDBRANCH  16  24
ENDBRANCH  15  16
ENDBRANCH   1  15
TORSDOF 4
ENDMDL
MODEL 9
REMARK VINA RESULT:      -6.9      2.848      4.425
REMARK  Name = 
REMARK  8 active torsions:
REMARK  status: ('A' for Active; 'I' for Inactive)
REMARK    1  A    between atoms: C_1  and  C_2
REMARK    2  A    between atoms: C_8  and  O_9
REMARK    3  A    between atoms: O_9  and  C_10
REMARK    4  A    between atoms: C_10  and  C_11
REMARK    5  A    between atoms: C_16  and  C_17
REMARK    6  A    between atoms: C_17  and  C_18
REMARK    7  A    between atoms: C_17  and  C_19
REMARK    8  A    between atoms: C_17  and  C_20
REMARK                            x       y       z     vdW  Elec       q    Type
REMARK                         _______ _______ _______ _____ _____    ______ ____
ROOT
ATOM      1  C   UNL     1       1.115   9.156  19.823  0.00  0.00    +0.000 A 
ATOM      2  N   UNL     1       0.225  10.049  19.494  0.00  0.00    +0.000 NA
ATOM      3  N   UNL     1      -0.323  10.581  20.676  0.00  0.00    +0.000 N 
ATOM      4  C   UNL     1      -1.291  11.573  20.719  0.00  0.00    +0.000 A 
ATOM      5  O   UNL     1      -1.811  12.125  19.763  0.00  0.00    +0.000 OA
ATOM      6  C   UNL     1      -1.685  11.955  22.176  0.00  0.00    +0.000 A 
ATOM      7  N   UNL     1      -1.144  11.362  23.199  0.00  0.00    +0.000 NA
ATOM      8  N   UNL     1      -0.205  10.374  23.030  0.00  0.00    +0.000 NA
ATOM      9  C   UNL     1       0.154  10.055  21.832  0.00  0.00    +0.000 A 
ATOM     10  S   UNL     1       1.338   8.848  21.532  0.00  0.00    +0.000 S 
ENDROOT
BRANCH   6  11
ATOM     11  C   UNL     1      -2.732  13.064  22.448  0.00  0.00    +0.000 C 
ATOM     12  C   UNL     1      -4.050  12.773  21.721  0.00  0.00    +0.000 C 
ATOM     13  C   UNL     1      -3.004  13.180  23.971  0.00  0.00    +0.000 C 
ATOM     14  C   UNL     1      -2.205  14.425  21.980  0.00  0.00    +0.000 C 
ENDBRANCH   6  11
BRANCH   1  15
ATOM     15  C   UNL     1       1.937   8.223  18.918  0.00  0.00    +0.000 C 
BRANCH  15  16
ATOM     16  O   UNL     1       2.568   7.064  19.416  0.00  0.00    +0.000 OA
BRANCH  16  24
ATOM     17  C   UNL     1       1.924   3.940  18.938  0.00  0.00    +0.000 C 
ATOM     18  C   UNL     1       2.913   4.834  18.235  0.00  0.00    +0.000 A 
ATOM     19  C   UNL     1       3.667   4.192  17.220  0.00  0.00    +0.000 A 
ATOM     20  C   UNL     1       4.648   4.864  16.500  0.00  0.00    +0.000 A 
ATOM     21 CL   UNL     1       5.542   4.034  15.287  0.00  0.00    +0.000 Cl
ATOM     22  C   UNL     1       4.904   6.198  16.770  0.00  0.00    +0.000 A 
ATOM     23  C   UNL     1       4.164   6.855  17.759  0.00  0.00    +0.000 A 
ATOM     24  C   UNL     1       3.161   6.204  18.504  0.00  0.00    +0.000 A 
ENDBRANCH  16  24
ENDBRANCH  15  16
ENDBRANCH   1  15
TORSDOF 4
ENDMDL
